#    Name: 2ybt_DW0_5_INTS_M
#    Modification time : Tue Mar 25 08:37:51 2014

@<TRIPOS>MOLECULE
2ybt_DW0_5_INTS_M
   46     0     6     0     0
SMALL
NO_CHARGES


@<TRIPOS>ATOM
      1 N         -15.1505   10.6115 -113.3605 N.am      1 SEC2        0.0000 
      2 N         -14.4730   10.2560 -111.9810 N.am      5 SEL2        0.0000 
      3 N         -15.8280   10.9670 -114.7400 N.am      3 SEP2        0.0000 
      4 N         -11.3305   12.8850 -107.5435 N.am      1 SEC2        0.0000 
      5 N         -12.0010   12.1810 -108.5800 N.am      5 SEL2        0.0000 
      6 N         -10.6600   13.5890 -106.5070 N.am      3 SEP2        0.0000 
      7 CA        -16.3265   11.1690 -110.0700 C.3       2 GLC5        0.0000 
      8 CA        -15.3370   12.7490 -109.9750 C.3       6 GLL5        0.0000 
      9 CA        -17.3160    9.5890 -110.1650 C.3       4 GLP5        0.0000 
     10 CA        -16.4885   12.0755 -111.5680 C.3       2 GLC5        0.0000 
     11 CA        -17.6400   11.4020 -113.1610 C.3       4 GLP5        0.0000 
     12 CA        -17.0930   13.5370 -110.1230 C.3       2 GLC5        0.0000 
     13 CA        -18.8490   14.3250 -110.2710 C.3       4 GLP5        0.0000 
     14 CA        -15.6705   14.7455 -108.9940 C.3       2 GLC5        0.0000 
     15 CA        -16.0040   16.7420 -108.0130 C.3       4 GLP5        0.0000 
     16 CA        -13.9370   14.2390 -109.9370 C.3       2 GLC5        0.0000 
     17 CA        -12.5370   15.7290 -109.8990 C.3       4 GLP5        0.0000 
     18 CA        -14.8530   11.2185 -108.6175 C.3       2 GLC5        0.0000 
     19 CA        -14.3690    9.6880 -107.2600 C.3       4 GLP5        0.0000 
     20 CA        -18.0135    4.5400 -111.6965 C.3       2 GLC5        0.0000 
     21 CA        -19.0180    4.6410 -113.6230 C.3       6 GLL5        0.0000 
     22 CA        -17.0090    4.4390 -109.7700 C.3       4 GLP5        0.0000 
     23 CA        -18.9315    6.2235 -112.1780 C.3       2 GLC5        0.0000 
     24 CA        -18.8450    7.8060 -110.7330 C.3       4 GLP5        0.0000 
     25 CA        -20.6950    4.4855 -112.8335 C.3       2 GLC5        0.0000 
     26 CA        -22.3720    4.3300 -112.0440 C.3       4 GLP5        0.0000 
     27 CA         -9.2750   11.8085 -108.6165 C.3       2 GLC5        0.0000 
     28 CA         -9.6540   10.1930 -109.1780 C.3       6 GLL5        0.0000 
     29 CA         -8.8960   13.4240 -108.0550 C.3       4 GLP5        0.0000 
     30 CA         -7.8095    9.6955 -108.7675 C.3       2 GLC5        0.0000 
     31 CA         -5.9650    9.1980 -108.3570 C.3       4 GLP5        0.0000 
     32 CA         -9.8850    9.1905 -107.8580 C.3       2 GLC5        0.0000 
     33 CA        -10.1160    8.1880 -106.5380 C.3       4 GLP5        0.0000 
     34 CA        -14.2865    0.9215 -111.6580 C.3       2 GLC5        0.0000 
     35 CA        -13.8920    1.3480 -113.2960 C.3       6 GLL5        0.0000 
     36 CA        -14.6810    0.4950 -110.0200 C.3       4 GLP5        0.0000 
     37 CA        -13.2315    9.4725 -114.3580 C.3       2 GLC5        0.0000 
     38 CA        -12.7390    8.4150 -112.7770 C.3       6 GLL5        0.0000 
     39 CA        -13.7240   10.5300 -115.9390 C.3       4 GLP5        0.0000 
     40 CA        -14.6665    6.1085 -111.1695 C.3       2 GLC5        0.0000 
     41 CA        -13.6730    7.2680 -112.4940 C.3       6 GLL5        0.0000 
     42 CA        -15.6600    4.9490 -109.8450 C.3       4 GLP5        0.0000 
     43 CA        -15.6215    7.8030 -111.6350 C.3       2 GLC5        0.0000 
     44 CA        -17.5700    8.3380 -110.7760 C.3       4 GLP5        0.0000 
     45 CA        -13.4520    7.5300 -110.3955 C.3       2 GLC5        0.0000 
     46 CA        -13.2310    7.7920 -108.2970 C.3       4 GLP5        0.0000 
@<TRIPOS>BOND
@<TRIPOS>SUBSTRUCTURE
     1 SEC2        1 GROUP        1 X    SEC  0     ROOT SEC X 2
     2 GLC5        7 GROUP        1 X    GLC  0     **** GLC X 6
     3 SEP2        3 GROUP        1 Y    SEP  0     ROOT SEP Y 9
     4 GLP5        9 GROUP        1 Y    GLP  0     **** GLP Y 13
     5 SEL2        2 GROUP        1 Z    SEL  0     ROOT SEL Z 16
     6 GLL5        8 GROUP        1 Z    GLL  0     **** GLL Z 20
@<TRIPOS>SET

