#    Name: 2ybt_DW0_5_ligand
#    Modification time : Tue Mar 25 08:37:51 2014

@<TRIPOS>MOLECULE
2ybt_DW0_5_ligand
   49    52     1     0     0
SMALL
NO_CHARGES


@<TRIPOS>ATOM
      1 N1        -12.4670    9.3630 -111.6280 N.am      1 DW01399     0.0000 
      2 C2        -11.2410    9.3460 -110.9540 C.2       1 DW01399     0.0000 
      3 O2        -10.4150    8.4910 -111.2860 O.2       1 DW01399     0.0000 
      4 N3        -10.9740   10.2630 -109.9000 N.am      1 DW01399     0.0000 
      5 C4        -11.9760   11.2080 -109.5210 C.2       1 DW01399     0.0000 
      6 C5        -13.2300   11.2600 -110.2330 C.2       1 DW01399     0.0000 
      7 C6        -13.4510   10.3300 -111.2920 C.2       1 DW01399     0.0000 
      8 O6        -14.4730   10.2560 -111.9810 O.2       1 DW01399     0.0000 
      9 N7        -13.9290   12.2700 -109.6360 N.pl3     1 DW01399     0.0000 
     10 C8        -13.2020   12.8030 -108.6260 C.2       1 DW01399     0.0000 
     11 N9        -12.0010   12.1810 -108.5800 N.2       1 DW01399     0.0000 
     12 N10       -14.4500    5.1480 -113.6040 N.am      1 DW01399     0.0000 
     13 CA0       -13.6260    6.3850 -113.7170 C.3       1 DW01399     0.0000 
     14 CAA       -15.3370   12.7490 -109.9750 C.3       1 DW01399     0.0000 
     15 CAB       -19.0180    4.6410 -113.6230 C.3       1 DW01399     0.0000 
     16 CAC        -9.6540   10.1930 -109.1780 C.3       1 DW01399     0.0000 
     17 CAD       -13.8920    1.3480 -113.2960 C.3       1 DW01399     0.0000 
     18 OAF       -16.4130    6.3180 -113.7170 O.2       1 DW01399     0.0000 
     19 OAH       -12.5520    3.9260 -113.4780 O.2       1 DW01399     0.0000 
     20 CAJ       -18.0160    2.3460 -113.4050 C.2       1 DW01399     0.0000 
     21 CAK       -12.7390    8.4150 -112.7770 C.3       1 DW01399     0.0000 
     22 CAL       -13.6730    7.2680 -112.4940 C.3       1 DW01399     0.0000 
     23 NAN       -16.8050    1.7690 -113.3530 N.2       1 DW01399     0.0000 
     24 CAP       -15.8620    5.2100 -113.6300 C.2       1 DW01399     0.0000 
     25 CAR       -13.7910    3.9170 -113.4930 C.2       1 DW01399     0.0000 
     26 CAT       -15.9120    2.7580 -113.4250 C.2       1 DW01399     0.0000 
     27 CAV       -16.5780    4.0040 -113.5350 C.2       1 DW01399     0.0000 
     28 NAX       -17.8710    3.6850 -113.5210 N.pl3     1 DW01399     0.0000 
     29 NAZ       -14.5240    2.6950 -113.4030 N.am      1 DW01399     0.0000 
     30 H         -13.4927   13.5104 -108.0358 H         1 DW01399     0.0000 
     31 H         -13.9615    6.9737 -114.5945 H         1 DW01399     0.0000 
     32 H         -12.5709    6.1093 -113.9169 H         1 DW01399     0.0000 
     33 H         -18.8682    1.8782 -113.3657 H         1 DW01399     0.0000 
     34 H         -11.7641    8.0063 -113.1391 H         1 DW01399     0.0000 
     35 H         -13.1409    9.0046 -113.6369 H         1 DW01399     0.0000 
     36 H         -13.3309    6.7205 -111.6369 H         1 DW01399     0.0000 
     37 H         -14.6706    7.6357 -112.3492 H         1 DW01399     0.0000 
     38 H         -15.6229   13.5066 -109.3882 H         1 DW01399     0.0000 
     39 H         -15.4029   13.0692 -110.9200 H         1 DW01399     0.0000 
     40 H         -16.0136   12.0211 -109.8643 H         1 DW01399     0.0000 
     41 H         -18.7063    5.5877 -113.7046 H         1 DW01399     0.0000 
     42 H         -19.5900    4.4510 -114.4209 H         1 DW01399     0.0000 
     43 H         -19.6115    4.5961 -112.8194 H         1 DW01399     0.0000 
     44 H          -8.8831   10.3363 -109.7987 H         1 DW01399     0.0000 
     45 H          -9.5857   10.8866 -108.4608 H         1 DW01399     0.0000 
     46 H          -9.5167    9.3044 -108.7404 H         1 DW01399     0.0000 
     47 H         -13.3095    1.1474 -114.0837 H         1 DW01399     0.0000 
     48 H         -13.3188    1.2704 -112.4803 H         1 DW01399     0.0000 
     49 H         -14.5757    0.6201 -113.2441 H         1 DW01399     0.0000 
@<TRIPOS>BOND
     1    2    1 am   
     2    7    1 am   
     3   21    1 1    
     4    3    2 2    
     5    4    2 am   
     6    5    4 1    
     7   16    4 1    
     8    6    5 2    
     9   11    5 1    
    10    7    6 1    
    11    9    6 1    
    12    8    7 2    
    13   10    9 1    
    14   14    9 1    
    15   11   10 2    
    16   30   10 1    
    17   13   12 1    
    18   24   12 am   
    19   25   12 am   
    20   22   13 1    
    21   31   13 1    
    22   32   13 1    
    23   38   14 1    
    24   39   14 1    
    25   40   14 1    
    26   28   15 1    
    27   41   15 1    
    28   42   15 1    
    29   43   15 1    
    30   44   16 1    
    31   45   16 1    
    32   46   16 1    
    33   29   17 1    
    34   47   17 1    
    35   48   17 1    
    36   49   17 1    
    37   24   18 2    
    38   25   19 2    
    39   23   20 2    
    40   28   20 1    
    41   33   20 1    
    42   22   21 1    
    43   34   21 1    
    44   35   21 1    
    45   36   22 1    
    46   37   22 1    
    47   26   23 1    
    48   27   24 1    
    49   29   25 am   
    50   27   26 2    
    51   29   26 1    
    52   28   27 1    
@<TRIPOS>SUBSTRUCTURE
     1 DW01399     1 GROUP   
@<TRIPOS>SET

