#    Name: 4fj0_HHF_2_INTS_M
#    Modification time : Mon Mar 24 20:05:59 2014

@<TRIPOS>MOLECULE
4fj0_HHF_2_INTS_M
   38     0     9     0     0
SMALL
NO_CHARGES


@<TRIPOS>ATOM
      1 CA         19.2020   -8.8245    2.8895 C.3       3 GLC5        0.0000 
      2 CA         17.1410   -9.2830    3.0890 C.3       9 GLL5        0.0000 
      3 CA         21.2630   -8.3660    2.6900 C.3       6 GLP5        0.0000 
      4 CA         19.3405   -8.0675    3.7965 C.3       3 GLC5        0.0000 
      5 CA         17.4310   -7.9490    3.3850 C.3       9 GLL5        0.0000 
      6 CA         21.2500   -8.1860    4.2080 C.3       6 GLP5        0.0000 
      7 CA         17.2855   -5.8060    2.3525 C.3       3 GLC5        0.0000 
      8 CA         16.6900   -5.7620    4.2510 C.3       9 GLL5        0.0000 
      9 CA         17.8810   -5.8500    0.4540 C.3       6 GLP5        0.0000 
     10 CA         17.5710   -6.3325    5.6020 C.3       3 GLC5        0.0000 
     11 CA         18.4520   -6.9030    6.9530 C.3       6 GLP5        0.0000 
     12 CA         13.0685   -2.6240    4.6010 C.3       3 GLC5        0.0000 
     13 CA         14.6820   -3.2630    5.8780 C.3       9 GLL5        0.0000 
     14 CA         11.4550   -1.9850    3.3240 C.3       6 GLP5        0.0000 
     15 N          13.3985   -0.6095    7.8805 N.am      2 SEC2        0.0000 
     16 N          13.7380   -1.4860    7.1020 N.am      8 SEL2        0.0000 
     17 N          13.0590    0.2670    8.6590 N.am      5 SEP2        0.0000 
     18 O          12.5910   -1.9700    6.9595 O.2       1 ALC1        0.0000 
     19 O          13.7380   -1.4860    7.1020 O.2       7 ALL1        0.0000 
     20 O          11.4440   -2.4540    6.8170 O.2       4 ALP1        0.0000 
     21 CA         16.1210   -8.7252    5.3635 C.3       3 GLC5        0.0000 
     22 CA         15.1690   -7.6290    4.1090 C.3       9 GLL5        0.0000 
     23 CA         17.2190   -9.1590    6.7700 C.3       6 GLP5        0.0000 
     24 CA         15.2945   -8.6092    1.9040 C.3       3 GLC5        0.0000 
     25 CA         15.5660   -8.9270   -0.1490 C.3       6 GLP5        0.0000 
     26 CA         16.8597   -9.3480    4.9810 C.3       3 GLC5        0.0000 
     27 CA         15.8600   -9.7910    3.2950 C.3       9 GLL5        0.0000 
     28 CA         17.2387  -11.3165    3.7800 C.3       3 GLC5        0.0000 
     29 CA         17.9770  -13.0960    4.3680 C.3       6 GLP5        0.0000 
     30 CA         17.0785   -8.3415    5.2025 C.3       3 GLC5        0.0000 
     31 CA         16.2659   -8.8350    1.5697 C.3       3 GLC5        0.0000 
     32 CA         15.5883   -4.9813    2.9955 C.3       3 GLC5        0.0000 
     33 CA         16.4450   -7.0990    3.8850 C.3       9 GLL5        0.0000 
     34 CA         14.6090   -3.5320    1.9230 C.3       6 GLP5        0.0000 
     35 CA         13.9845   -2.9395    8.0768 C.3       3 GLC5        0.0000 
     36 CA         13.2130   -3.2220    9.9590 C.3       6 GLP5        0.0000 
     37 CA         15.3679   -3.4496    3.6736 C.3       3 GLC5        0.0000 
     38 CA         15.7850   -3.8440    5.2730 C.3       9 GLL5        0.0000 
@<TRIPOS>BOND
@<TRIPOS>SUBSTRUCTURE
     1 ALC1       18 GROUP        1 X    ALC  0     ROOT ALC X 1
     2 SEC2       15 GROUP        1 X    SEC  0     **** SEC X 2
     3 GLC5        1 GROUP        1 X    GLC  0     **** GLC X 6
     4 ALP1       20 GROUP        1 Y    ALP  0     ROOT ALP Y 8
     5 SEP2       17 GROUP        1 Y    SEP  0     **** SEP Y 9
     6 GLP5        3 GROUP        1 Y    GLP  0     **** GLP Y 13
     7 ALL1       19 GROUP        1 Z    ALL  0     ROOT ALL Z 15
     8 SEL2       16 GROUP        1 Z    SEL  0     **** SEL Z 16
     9 GLL5        2 GROUP        1 Z    GLL  0     **** GLL Z 20
@<TRIPOS>SET

