#    Name: 4fj0_HHF_2_ligand
#    Modification time : Mon Mar 24 20:05:59 2014

@<TRIPOS>MOLECULE
4fj0_HHF_2_ligand
   28    30     1     0     0
SMALL
NO_CHARGES


@<TRIPOS>ATOM
      1 CAG        15.1690   -7.6290    4.1090 C.ar      1 HHF302      0.0000 
      2 CAE        14.8770   -8.9540    3.8050 C.ar      1 HHF302      0.0000 
      3 CAD        15.8600   -9.7910    3.2950 C.ar      1 HHF302      0.0000 
      4 CAF        17.1410   -9.2830    3.0890 C.ar      1 HHF302      0.0000 
      5 CAH        17.4310   -7.9490    3.3850 C.ar      1 HHF302      0.0000 
      6 CAN        16.4450   -7.0990    3.8850 C.ar      1 HHF302      0.0000 
      7 CAP        16.6900   -5.7620    4.2510 C.2       1 HHF302      0.0000 
      8 OAL        15.5960   -5.0730    4.6860 O.3       1 HHF302      0.0000 
      9 CAR        15.7850   -3.8440    5.2730 C.ar      1 HHF302      0.0000 
     10 CAK        14.6820   -3.2630    5.8780 C.ar      1 HHF302      0.0000 
     11 CAM        14.8300   -2.0510    6.5110 C.ar      1 HHF302      0.0000 
     12 OAB        13.7380   -1.4860    7.1020 O.3       1 HHF302      0.0000 
     13 CAI        16.0650   -1.4040    6.5530 C.ar      1 HHF302      0.0000 
     14 CAJ        17.1780   -1.9650    5.9340 C.ar      1 HHF302      0.0000 
     15 CAS        17.0200   -3.1810    5.2730 C.ar      1 HHF302      0.0000 
     16 CAQ        18.1210   -3.8110    4.7100 C.2       1 HHF302      0.0000 
     17 OAA        19.2510   -3.2900    4.7630 O.2       1 HHF302      0.0000 
     18 CAO        17.9660   -5.1450    4.2740 C.2       1 HHF302      0.0000 
     19 OAC        19.0960   -5.7690    3.8380 O.co2     1 HHF302      0.0000 
     20 H          14.4329   -7.0208    4.5080 H         1 HHF302      0.0000 
     21 H          13.9236   -9.3163    3.9598 H         1 HHF302      0.0000 
     22 H          15.6497  -10.7657    3.0731 H         1 HHF302      0.0000 
     23 H          17.8812   -9.8948    2.7155 H         1 HHF302      0.0000 
     24 H          18.3859   -7.5894    3.2316 H         1 HHF302      0.0000 
     25 H          13.7719   -3.7331    5.8515 H         1 HHF302      0.0000 
     26 H          16.1525   -0.5032    7.0468 H         1 HHF302      0.0000 
     27 H          18.0804   -1.5014    5.9630 H         1 HHF302      0.0000 
     28 H          12.9758   -2.0893    6.8675 H         1 HHF302      0.0000 
@<TRIPOS>BOND
     1    2    1 ar   
     2    6    1 ar   
     3   20    1 1    
     4    3    2 ar   
     5   21    2 1    
     6    4    3 ar   
     7   22    3 1    
     8    5    4 ar   
     9   23    4 1    
    10    6    5 ar   
    11   24    5 1    
    12    7    6 1    
    13    8    7 1    
    14   18    7 2    
    15    9    8 1    
    16   10    9 ar   
    17   15    9 ar   
    18   11   10 ar   
    19   25   10 1    
    20   12   11 1    
    21   13   11 ar   
    22   28   12 1    
    23   14   13 ar   
    24   26   13 1    
    25   15   14 ar   
    26   27   14 1    
    27   16   15 1    
    28   17   16 2    
    29   18   16 1    
    30   19   18 ar   
@<TRIPOS>SUBSTRUCTURE
     1 HHF302      1 GROUP   
@<TRIPOS>SET

