#    Name: 1h73_ANP_1_INTS_M
#    Modification time : Tue Mar 25 05:01:01 2014

@<TRIPOS>MOLECULE
1h73_ANP_1_INTS_M
   55     0     9     0     0
SMALL
NO_CHARGES


@<TRIPOS>ATOM
      1 N          61.5690   44.9400   18.4485 N.am      2 SEC2        0.0000 
      2 N          60.5300   44.3330   18.1130 N.am      8 SEL2        0.0000 
      3 N          62.6080   45.5470   18.7840 N.am      5 SEP2        0.0000 
      4 N          58.8205   43.6160   20.2030 N.am      2 SEC2        0.0000 
      5 N          59.1870   42.5430   19.2310 N.am      8 SEL2        0.0000 
      6 N          58.4540   44.6890   21.1750 N.am      5 SEP2        0.0000 
      7 N          64.5270   40.8775   19.3250 N.am      2 SEC2        0.0000 
      8 N          63.4490   40.5810   18.9060 N.am      8 SEL2        0.0000 
      9 N          65.6050   41.1740   19.7440 N.am      5 SEP2        0.0000 
     10 N          61.0135   40.9600   21.7700 N.am      2 SEC2        0.0000 
     11 N          62.0940   41.6400   20.8740 N.am      8 SEL2        0.0000 
     12 N          59.9330   40.2800   22.6660 N.am      5 SEP2        0.0000 
     13 N          63.2590   42.7025   20.4950 N.am      2 SEC2        0.0000 
     14 N          64.4240   43.7650   20.1160 N.am      5 SEP2        0.0000 
     15 N          60.8025   40.1890   21.3285 N.am      2 SEC2        0.0000 
     16 N          61.6720   40.0980   19.9910 N.am      8 SEL2        0.0000 
     17 CA         62.4295   37.7195   21.4560 C.3       3 GLC5        0.0000 
     18 CA         62.4450   36.9210   19.4650 C.3       9 GLL5        0.0000 
     19 CA         62.4140   38.5180   23.4470 C.3       6 GLP5        0.0000 
     20 CA         63.8910   37.9670   19.0105 C.3       3 GLC5        0.0000 
     21 CA         65.3370   39.0130   18.5560 C.3       6 GLP5        0.0000 
     22 N          68.8930   34.5470   19.8565 N.am      2 SEC2        0.0000 
     23 N          68.1490   35.0990   21.0430 N.am      8 SEL2        0.0000 
     24 N          69.6370   33.9950   18.6700 N.am      5 SEP2        0.0000 
     25 CA         67.3935   38.7585   20.5015 C.3       3 GLC5        0.0000 
     26 CA         68.4580   37.4440   21.9100 C.3       9 GLL5        0.0000 
     27 CA         66.3290   40.0730   19.0930 C.3       6 GLP5        0.0000 
     28 CA         69.6735   38.5640   20.9695 C.3       3 GLC5        0.0000 
     29 CA         70.8890   39.6840   20.0290 C.3       6 GLP5        0.0000 
     30 O          70.6260   36.1170   21.4575 O.2       1 ALC1        0.0000 
     31 O          69.8420   37.4020   21.8590 O.2       7 ALL1        0.0000 
     32 O          71.4100   34.8320   21.0560 O.2       4 ALP1        0.0000 
     33 O          70.4235   38.6325   21.6410 O.2       1 ALC1        0.0000 
     34 O          71.0050   39.8630   21.4230 O.2       4 ALP1        0.0000 
     35 N          68.1070   39.8680   22.7575 N.am      2 SEC2        0.0000 
     36 N          67.7680   38.5750   22.3540 N.am      8 SEL2        0.0000 
     37 N          68.4460   41.1610   23.1610 N.am      5 SEP2        0.0000 
     38 CA         66.6740   38.0815   24.1295 C.3       3 GLC5        0.0000 
     39 CA         66.3960   38.5190   22.3770 C.3       9 GLL5        0.0000 
     40 CA         66.9520   37.6440   25.8820 C.3       6 GLP5        0.0000 
     41 CA         67.2885   39.7830   23.5070 C.3       3 GLC5        0.0000 
     42 CA         68.1810   41.0470   24.6370 C.3       6 GLP5        0.0000 
     43 CA         64.4050   38.5185   22.9120 C.3       3 GLC5        0.0000 
     44 CA         65.5245   40.5350   22.3230 C.3       3 GLC5        0.0000 
     45 CA         64.6530   42.5510   22.2690 C.3       6 GLP5        0.0000 
     46 CA         66.3625   39.2960   20.7350 C.3       3 GLC5        0.0000 
     47 CA         65.8175   37.6490   20.0520 C.3       3 GLC5        0.0000 
     48 CA         66.2980   36.2850   21.5480 C.3       9 GLL5        0.0000 
     49 CA         62.6660   36.7722   22.6103 C.3       3 GLC5        0.0000 
     50 CA         63.6070   34.8930   22.0770 C.3       9 GLL5        0.0000 
     51 CA         68.7043   36.9023   19.8968 C.3       3 GLC5        0.0000 
     52 CA         67.7030   36.2830   21.4970 C.3       9 GLL5        0.0000 
     53 CA         69.3280   36.9410   18.0900 C.3       6 GLP5        0.0000 
     54 CA         67.6546   35.7746   23.2459 C.3       3 GLC5        0.0000 
     55 CA         68.1200   34.9750   24.8660 C.3       6 GLP5        0.0000 
@<TRIPOS>BOND
@<TRIPOS>SUBSTRUCTURE
     1 ALC1       30 GROUP        1 X    ALC  0     ROOT ALC X 1
     2 SEC2        1 GROUP        1 X    SEC  0     **** SEC X 2
     3 GLC5       17 GROUP        1 X    GLC  0     **** GLC X 6
     4 ALP1       32 GROUP        1 Y    ALP  0     ROOT ALP Y 8
     5 SEP2        3 GROUP        1 Y    SEP  0     **** SEP Y 9
     6 GLP5       19 GROUP        1 Y    GLP  0     **** GLP Y 13
     7 ALL1       31 GROUP        1 Z    ALL  0     ROOT ALL Z 15
     8 SEL2        2 GROUP        1 Z    SEL  0     **** SEL Z 16
     9 GLL5       18 GROUP        1 Z    GLL  0     **** GLL Z 20
@<TRIPOS>SET

