#    Name: 1h73_ANP_1_ligand
#    Modification time : Tue Mar 25 05:01:01 2014

@<TRIPOS>MOLECULE
1h73_ANP_1_ligand
   43    45     1     0     0
SMALL
NO_CHARGES


@<TRIPOS>ATOM
      1 PG         60.1000   42.8890   18.0600 P.3       1 ANP418      0.0000 
      2 O1G        59.5090   42.4770   16.7260 O.co2     1 ANP418      0.0000 
      3 O2G        60.5300   44.3330   18.1130 O.co2     1 ANP418      0.0000 
      4 O3G        59.1870   42.5430   19.2310 O.co2     1 ANP418      0.0000 
      5 PB         61.8400   41.0750   19.4230 P.3       1 ANP418      0.0000 
      6 O1B        63.4490   40.5810   18.9060 O.co2     1 ANP418      0.0000 
      7 O2B        62.0940   41.6400   20.8740 O.co2     1 ANP418      0.0000 
      8 N3B        61.4100   42.0570   18.1670 N.4       1 ANP418      0.0000 
      9 PA         60.6790   38.9230   19.4330 P.3       1 ANP418      0.0000 
     10 O1A        59.3180   38.9630   20.1240 O.co2     1 ANP418      0.0000 
     11 O2A        60.5110   39.1950   17.9310 O.co2     1 ANP418      0.0000 
     12 O3A        61.6720   40.0980   19.9910 O.3       1 ANP418      0.0000 
     13 O5'        61.2170   37.4420   19.8770 O.3       1 ANP418      0.0000 
     14 C5'        62.4450   36.9210   19.4650 C.3       1 ANP418      0.0000 
     15 C4'        62.4530   35.4570   20.0030 C.3       1 ANP418      0.0000 
     16 O4'        63.7500   34.9130   19.8380 O.3       1 ANP418      0.0000 
     17 C3'        62.2290   35.1600   21.4700 C.3       1 ANP418      0.0000 
     18 O3'        61.5260   33.9120   21.4260 O.3       1 ANP418      0.0000 
     19 C2'        63.6070   34.8930   22.0770 C.3       1 ANP418      0.0000 
     20 O2'        63.7280   33.9240   23.0870 O.3       1 ANP418      0.0000 
     21 C1'        64.5130   34.5070   20.9720 C.3       1 ANP418      0.0000 
     22 N9         65.9300   35.0630   21.1110 N.pl3     1 ANP418      0.0000 
     23 C8         67.0670   34.3770   20.8140 C.2       1 ANP418      0.0000 
     24 N7         68.1490   35.0990   21.0430 N.2       1 ANP418      0.0000 
     25 C5         67.7030   36.2830   21.4970 C.ar      1 ANP418      0.0000 
     26 C6         68.4580   37.4440   21.9100 C.ar      1 ANP418      0.0000 
     27 N6         69.8420   37.4020   21.8590 N.pl3     1 ANP418      0.0000 
     28 N1         67.7680   38.5750   22.3540 N.ar      1 ANP418      0.0000 
     29 C2         66.3960   38.5190   22.3770 C.ar      1 ANP418      0.0000 
     30 N3         65.6790   37.4260   21.9930 N.ar      1 ANP418      0.0000 
     31 C4         66.2980   36.2850   21.5480 C.ar      1 ANP418      0.0000 
     32 H          63.2935   37.4197   19.9031 H         1 ANP418      0.0000 
     33 H          62.5504   36.8613   18.3945 H         1 ANP418      0.0000 
     34 H          61.7587   34.8561   19.4215 H         1 ANP418      0.0000 
     35 H          61.7397   35.9089   21.9315 H         1 ANP418      0.0000 
     36 H          63.9895   35.8794   22.4376 H         1 ANP418      0.0000 
     37 H          64.5605   33.4019   20.9873 H         1 ANP418      0.0000 
     38 H          67.0609   33.4484   20.4686 H         1 ANP418      0.0000 
     39 H          70.3175   38.2430   22.1170 H         1 ANP418      0.0000 
     40 H          70.2455   36.5343   21.5686 H         1 ANP418      0.0000 
     41 H          65.8694   39.3766   22.7131 H         1 ANP418      0.0000 
     42 H          62.0796   33.2838   21.9727 H         1 ANP418      0.0000 
     43 H          64.6024   33.4728   22.9091 H         1 ANP418      0.0000 
@<TRIPOS>BOND
     1    2    1 ar   
     2    3    1 ar   
     3    4    1 ar   
     4    8    1 1    
     5    6    5 ar   
     6    7    5 ar   
     7    8    5 1    
     8   12    5 1    
     9   10    9 ar   
    10   11    9 ar   
    11   12    9 1    
    12   13    9 1    
    13   14   13 1    
    14   15   14 1    
    15   32   14 1    
    16   33   14 1    
    17   16   15 1    
    18   17   15 1    
    19   34   15 1    
    20   21   16 1    
    21   18   17 1    
    22   19   17 1    
    23   35   17 1    
    24   42   18 1    
    25   20   19 1    
    26   21   19 1    
    27   36   19 1    
    28   43   20 1    
    29   22   21 1    
    30   37   21 1    
    31   23   22 1    
    32   31   22 1    
    33   24   23 2    
    34   38   23 1    
    35   25   24 1    
    36   26   25 ar   
    37   31   25 ar   
    38   27   26 1    
    39   28   26 ar   
    40   39   27 1    
    41   40   27 1    
    42   29   28 ar   
    43   30   29 ar   
    44   41   29 1    
    45   31   30 ar   
@<TRIPOS>SUBSTRUCTURE
     1 ANP418      1 GROUP   
@<TRIPOS>SET

