#    Name: 4l42_5FI_1_INTS_M
#    Modification time : Mon Apr  7 23:54:14 2014

@<TRIPOS>MOLECULE
4l42_5FI_1_INTS_M
   76     0     6     0     0
SMALL
NO_CHARGES


@<TRIPOS>ATOM
      1 CA         40.2070  -26.9130    0.4965 C.3       2 GLC5        0.0000 
      2 CA         38.3540  -26.0500   -0.3410 C.3       6 GLL5        0.0000 
      3 CA         42.0600  -27.7760    1.3340 C.3       4 GLP5        0.0000 
      4 CA         36.8165  -29.9510    0.3185 C.3       2 GLC5        0.0000 
      5 CA         36.7860  -27.8140    0.0480 C.3       6 GLL5        0.0000 
      6 CA         36.8470  -32.0880    0.5890 C.3       4 GLP5        0.0000 
      7 CA         35.5815  -28.5665   -1.2630 C.3       2 GLC5        0.0000 
      8 CA         34.3770  -29.3190   -2.5740 C.3       4 GLP5        0.0000 
      9 N          37.1475  -29.8735   -1.0590 N.am      1 SEC2        0.0000 
     10 N          37.6320  -28.6570   -0.5100 N.am      5 SEL2        0.0000 
     11 N          36.6630  -31.0900   -1.6080 N.am      3 SEP2        0.0000 
     12 CA         42.2625  -19.7885    7.2940 C.3       2 GLC5        0.0000 
     13 CA         40.5970  -18.5590    7.2790 C.3       6 GLL5        0.0000 
     14 CA         43.9280  -21.0180    7.3090 C.3       4 GLP5        0.0000 
     15 CA         39.1865  -20.2405    7.1070 C.3       2 GLC5        0.0000 
     16 CA         37.7760  -21.9220    6.9350 C.3       4 GLP5        0.0000 
     17 CA         37.6905  -15.9975    6.5945 C.3       2 GLC5        0.0000 
     18 CA         38.8780  -17.8060    6.2370 C.3       6 GLL5        0.0000 
     19 CA         36.5030  -14.1890    6.9520 C.3       4 GLP5        0.0000 
     20 CA         43.0100  -19.7295    6.0255 C.3       2 GLC5        0.0000 
     21 CA         42.0920  -18.4410    4.7420 C.3       6 GLL5        0.0000 
     22 CA         44.6005  -18.9680    3.8525 C.3       2 GLC5        0.0000 
     23 CA         42.5510  -18.9400    3.5290 C.3       6 GLL5        0.0000 
     24 CA         46.6500  -18.9960    4.1760 C.3       4 GLP5        0.0000 
     25 CA         38.0880  -19.3950    5.0355 C.3       2 GLC5        0.0000 
     26 CA         39.8170  -18.7330    3.9950 C.3       6 GLL5        0.0000 
     27 CA         36.3590  -20.0570    6.0760 C.3       4 GLP5        0.0000 
     28 CA         40.2435  -18.7915   -0.9565 C.3       2 GLC5        0.0000 
     29 CA         40.2660  -20.6160   -0.5660 C.3       6 GLL5        0.0000 
     30 CA         40.2210  -16.9670   -1.3470 C.3       4 GLP5        0.0000 
     31 CA         40.4310  -28.0155    0.1765 C.3       2 GLC5        0.0000 
     32 CA         38.8020  -28.2550   -0.9810 C.3       6 GLL5        0.0000 
     33 CA         38.6340  -28.5180    1.1785 C.3       2 GLC5        0.0000 
     34 CA         38.4660  -28.7810    3.3380 C.3       4 GLP5        0.0000 
     35 CA         37.2455  -28.9455   -2.1470 C.3       2 GLC5        0.0000 
     36 CA         35.6890  -29.6360   -3.3130 C.3       4 GLP5        0.0000 
     37 CA         38.5840  -27.3670   -2.8020 C.3       2 GLC5        0.0000 
     38 CA         38.3660  -26.4790   -4.6230 C.3       4 GLP5        0.0000 
     39 CA         37.4190  -25.8520   -1.9850 C.3       2 GLC5        0.0000 
     40 CA         37.1080  -25.4460   -3.8780 C.3       4 GLP5        0.0000 
     41 CA         37.7060  -27.9605    1.7203 C.3       2 GLC5        0.0000 
     42 CA         37.1060  -26.4660    0.1570 C.3       6 GLL5        0.0000 
     43 CA         37.9485  -18.9282    6.1665 C.3       2 GLC5        0.0000 
     44 CA         41.8234  -17.6743    8.0183 C.3       2 GLC5        0.0000 
     45 CA         40.6620  -16.5510    6.4050 C.3       6 GLL5        0.0000 
     46 CA         43.1170  -17.9850    9.4450 C.3       4 GLP5        0.0000 
     47 CA         39.9394  -15.9859    7.6081 C.3       2 GLC5        0.0000 
     48 CA         40.1750  -14.3870    8.8020 C.3       4 GLP5        0.0000 
     49 CA         38.9844  -17.8459    7.9166 C.3       2 GLC5        0.0000 
     50 CA         38.2650  -18.1070    9.4190 C.3       4 GLP5        0.0000 
     51 CA         41.0607  -20.5362    4.6180 C.3       2 GLC5        0.0000 
     52 CA         40.7230  -18.3440    4.9700 C.3       6 GLL5        0.0000 
     53 CA         40.7140  -22.6800    4.3800 C.3       4 GLP5        0.0000 
     54 CA         41.0358  -16.8117    3.4790 C.3       2 GLC5        0.0000 
     55 CA         40.6640  -15.2310    2.1020 C.3       4 GLP5        0.0000 
     56 CA         43.6068  -17.2092    4.5222 C.3       2 GLC5        0.0000 
     57 CA         44.8920  -15.7280    4.9090 C.3       4 GLP5        0.0000 
     58 CA         43.5920  -20.3813    2.5240 C.3       2 GLC5        0.0000 
     59 CA         45.0890  -21.6260    2.0070 C.3       4 GLP5        0.0000 
     60 CA         41.4045  -20.9083    3.7105 C.3       2 GLC5        0.0000 
     61 CA         41.2275  -17.7107    2.0395 C.3       2 GLC5        0.0000 
     62 CA         41.6390  -19.3330    2.5530 C.3       6 GLL5        0.0000 
     63 CA         40.3600  -16.2850    1.0380 C.3       4 GLP5        0.0000 
     64 CA         40.3803  -20.8305    3.8857 C.3       2 GLC5        0.0000 
     65 CA         40.2760  -19.2290    2.7880 C.3       6 GLL5        0.0000 
     66 CA         40.2032  -17.6330    2.2147 C.3       2 GLC5        0.0000 
     67 CA         42.0975  -24.8020    0.3328 C.3       2 GLC5        0.0000 
     68 CA         40.8170  -23.0720   -0.3570 C.3       6 GLL5        0.0000 
     69 CA         43.6510  -25.8350    1.2050 C.3       4 GLP5        0.0000 
     70 CA         37.6530  -24.1860   -2.2255 C.3       2 GLC5        0.0000 
     71 CA         37.9110  -23.5260   -0.1950 C.3       6 GLL5        0.0000 
     72 CA         36.3695  -22.2655   -1.3060 C.3       2 GLC5        0.0000 
     73 CA         34.5410  -21.6050   -2.0390 C.3       4 GLP5        0.0000 
     74 CA         35.6140  -25.5965    3.1303 C.3       2 GLC5        0.0000 
     75 CA         36.0450  -25.5860    0.8120 C.3       6 GLL5        0.0000 
     76 CA         34.8970  -25.9760    4.8440 C.3       4 GLP5        0.0000 
@<TRIPOS>BOND
@<TRIPOS>SUBSTRUCTURE
     1 SEC2        9 GROUP        1 X    SEC  0     ROOT SEC X 2
     2 GLC5        1 GROUP        1 X    GLC  0     **** GLC X 6
     3 SEP2       11 GROUP        1 Y    SEP  0     ROOT SEP Y 9
     4 GLP5        3 GROUP        1 Y    GLP  0     **** GLP Y 13
     5 SEL2       10 GROUP        1 Z    SEL  0     ROOT SEL Z 16
     6 GLL5        2 GROUP        1 Z    GLL  0     **** GLL Z 20
@<TRIPOS>SET

