#    Name: 4l42_5FI_1_ligand
#    Modification time : Mon Apr  7 23:54:14 2014

@<TRIPOS>MOLECULE
4l42_5FI_1_ligand
   50    53     1     0     0
SMALL
NO_CHARGES


@<TRIPOS>ATOM
      1 C4         38.3540  -26.0500   -0.3410 C.ar      1 5FI401      0.0000 
      2 C5         37.1060  -26.4660    0.1570 C.ar      1 5FI401      0.0000 
      3 C6         36.7860  -27.8140    0.0480 C.ar      1 5FI401      0.0000 
      4 N1         37.6320  -28.6570   -0.5100 N.ar      1 5FI401      0.0000 
      5 N3         39.1580  -26.9830   -0.9040 N.ar      1 5FI401      0.0000 
      6 FAB        40.5970  -18.5590    7.2790 F         1 5FI401      0.0000 
      7 CBB        40.1980  -17.7930    6.2770 C.3       1 5FI401      0.0000 
      8 FAC        40.6620  -16.5510    6.4050 F         1 5FI401      0.0000 
      9 FAD        38.8780  -17.8060    6.2370 F         1 5FI401      0.0000 
     10 CAU        40.7230  -18.3440    4.9700 C.ar      1 5FI401      0.0000 
     11 CAE        42.0920  -18.4410    4.7420 C.ar      1 5FI401      0.0000 
     12 CAF        42.5510  -18.9400    3.5290 C.ar      1 5FI401      0.0000 
     13 CAI        39.8170  -18.7330    3.9950 C.ar      1 5FI401      0.0000 
     14 CAX        40.2760  -19.2290    2.7880 C.ar      1 5FI401      0.0000 
     15 CAY        41.6390  -19.3330    2.5530 C.ar      1 5FI401      0.0000 
     16 NAS        41.7860  -19.8310    1.3290 N.pl3     1 5FI401      0.0000 
     17 NAR        39.6490  -19.6590    1.7040 N.2       1 5FI401      0.0000 
     18 CAV        40.5710  -20.0240    0.8130 C.2       1 5FI401      0.0000 
     19 CAO        40.2660  -20.6160   -0.5660 C.3       1 5FI401      0.0000 
     20 NAZ        39.7780  -22.0020   -0.3390 N.4       1 5FI401      0.0000 
     21 CAL        40.8170  -23.0720   -0.3570 C.3       1 5FI401      0.0000 
     22 CAN        40.2710  -24.4660   -0.7220 C.3       1 5FI401      0.0000 
     23 CAK        38.4850  -22.3260   -0.9510 C.3       1 5FI401      0.0000 
     24 CAM        37.9110  -23.5260   -0.1950 C.3       1 5FI401      0.0000 
     25 NBA        38.8360  -24.6950   -0.3390 N.3       1 5FI401      0.0000 
     26 CAJ        36.0450  -25.5860    0.8120 C.3       1 5FI401      0.0000 
     27 CAA        36.6170  -24.8480    2.0210 C.3       1 5FI401      0.0000 
     28 C2         38.8020  -28.2550   -0.9810 C.ar      1 5FI401      0.0000 
     29 H          35.8631  -28.1290    0.4196 H         1 5FI401      0.0000 
     30 H          42.7570  -18.1462    5.4643 H         1 5FI401      0.0000 
     31 H          43.5592  -19.0191    3.3518 H         1 5FI401      0.0000 
     32 H          38.8063  -18.6524    4.1703 H         1 5FI401      0.0000 
     33 H          42.6280  -20.0215    0.8864 H         1 5FI401      0.0000 
     34 H          41.1699  -20.6220   -1.1502 H         1 5FI401      0.0000 
     35 H          39.5073  -20.0188   -1.0414 H         1 5FI401      0.0000 
     36 H          39.4912  -21.9626    0.8507 H         1 5FI401      0.0000 
     37 H          41.3026  -23.1434    0.6327 H         1 5FI401      0.0000 
     38 H          41.6108  -22.8153   -1.0812 H         1 5FI401      0.0000 
     39 H          40.9116  -25.2252   -0.2346 H         1 5FI401      0.0000 
     40 H          40.3920  -24.6085   -1.8125 H         1 5FI401      0.0000 
     41 H          38.6034  -22.5990   -1.9904 H         1 5FI401      0.0000 
     42 H          37.7934  -21.4999   -0.8609 H         1 5FI401      0.0000 
     43 H          36.9358  -23.7672   -0.6078 H         1 5FI401      0.0000 
     44 H          37.8023  -23.2615    0.8528 H         1 5FI401      0.0000 
     45 H          35.2100  -26.2078    1.1333 H         1 5FI401      0.0000 
     46 H          35.6825  -24.8587    0.0862 H         1 5FI401      0.0000 
     47 H          39.4561  -28.9552   -1.4216 H         1 5FI401      0.0000 
     48 H          36.9523  -25.4815    2.7183 H         1 5FI401      0.0000 
     49 H          37.3839  -24.2584    1.7675 H         1 5FI401      0.0000 
     50 H          35.9320  -24.2658    2.4590 H         1 5FI401      0.0000 
@<TRIPOS>BOND
     1    2    1 ar   
     2    5    1 ar   
     3   25    1 1    
     4    3    2 ar   
     5   26    2 1    
     6    4    3 ar   
     7   29    3 1    
     8   28    4 ar   
     9   28    5 ar   
    10    7    6 1    
    11    8    7 1    
    12    9    7 1    
    13   10    7 1    
    14   11   10 ar   
    15   13   10 ar   
    16   12   11 ar   
    17   30   11 1    
    18   15   12 ar   
    19   31   12 1    
    20   14   13 ar   
    21   32   13 1    
    22   15   14 ar   
    23   17   14 1    
    24   16   15 1    
    25   18   16 1    
    26   33   16 1    
    27   18   17 2    
    28   19   18 1    
    29   20   19 1    
    30   34   19 1    
    31   35   19 1    
    32   21   20 1    
    33   23   20 1    
    34   36   20 1    
    35   22   21 1    
    36   37   21 1    
    37   38   21 1    
    38   25   22 1    
    39   39   22 1    
    40   40   22 1    
    41   24   23 1    
    42   41   23 1    
    43   42   23 1    
    44   25   24 1    
    45   43   24 1    
    46   44   24 1    
    47   27   26 1    
    48   45   26 1    
    49   46   26 1    
    50   48   27 1    
    51   49   27 1    
    52   50   27 1    
    53   47   28 1    
@<TRIPOS>SUBSTRUCTURE
     1 5FI401      1 GROUP   
@<TRIPOS>SET

