#    Name: 1rkx_NAD_2_INTS_M
#    Modification time : Tue Mar 25 00:51:37 2014

@<TRIPOS>MOLECULE
1rkx_NAD_2_INTS_M
   97     0     9     0     0
SMALL
NO_CHARGES


@<TRIPOS>ATOM
      1 N           3.5165  -21.1100   -2.1575 N.am      2 SEC2        0.0000 
      2 N           4.5280  -20.4650   -2.9670 N.am      8 SEL2        0.0000 
      3 N           2.5050  -21.7550   -1.3480 N.am      5 SEP2        0.0000 
      4 CA          0.2710  -18.2565   -7.6550 C.3       3 GLC5        0.0000 
      5 CA          1.6260  -19.6880   -6.7810 C.3       9 GLL5        0.0000 
      6 CA         -1.0840  -16.8250   -8.5290 C.3       6 GLP5        0.0000 
      7 N           1.3280  -17.3560   -8.4820 N.am      2 SEC2        0.0000 
      8 N           1.6030  -18.9530   -8.0230 N.am      8 SEL2        0.0000 
      9 N           1.0530  -15.7590   -8.9410 N.am      5 SEP2        0.0000 
     10 CA          3.3375  -22.6325   -6.6625 C.3       3 GLC5        0.0000 
     11 CA          1.9250  -21.1460   -7.1500 C.3       9 GLL5        0.0000 
     12 CA          4.7500  -24.1190   -6.1750 C.3       6 GLP5        0.0000 
     13 O           0.7640  -23.2145   -7.1460 O.2       1 ALC1        0.0000 
     14 O           0.8040  -21.9420   -6.7480 O.2       7 ALL1        0.0000 
     15 O           0.7240  -24.4870   -7.5440 O.2       4 ALP1        0.0000 
     16 N           1.0490  -22.8410  -10.5390 N.am      2 SEC2        0.0000 
     17 N           1.8330  -22.2900   -9.3540 N.am      8 SEL2        0.0000 
     18 N           0.2650  -23.3920  -11.7240 N.am      5 SEP2        0.0000 
     19 CA         -0.3675  -20.0370   -7.9995 C.3       3 GLC5        0.0000 
     20 CA          1.3330  -19.8750   -9.0450 C.3       9 GLL5        0.0000 
     21 CA         -2.0680  -20.1990   -6.9540 C.3       6 GLP5        0.0000 
     22 CA         -0.1800  -18.7060   -9.3925 C.3       3 GLC5        0.0000 
     23 CA         -1.6930  -17.5370   -9.7400 C.3       6 GLP5        0.0000 
     24 CA          2.8190  -20.0925  -13.0960 C.3       3 GLC5        0.0000 
     25 CA          1.8670  -18.7220  -12.4330 C.3       9 GLL5        0.0000 
     26 CA          3.7710  -21.4630  -13.7590 C.3       6 GLP5        0.0000 
     27 CA          1.9160  -20.4130  -13.7260 C.3       3 GLC5        0.0000 
     28 CA          1.4170  -18.6730  -13.7670 C.3       9 GLL5        0.0000 
     29 CA          2.4150  -22.1530  -13.6850 C.3       6 GLP5        0.0000 
     30 CA          0.2695  -19.7675  -15.2460 C.3       3 GLC5        0.0000 
     31 CA         -0.8780  -20.8620  -16.7250 C.3       6 GLP5        0.0000 
     32 O           1.4310  -18.3125  -16.0380 O.2       1 ALC1        0.0000 
     33 O           2.0240  -18.0650  -14.7680 O.2       7 ALL1        0.0000 
     34 O           0.8380  -18.5600  -17.3080 O.2       4 ALP1        0.0000 
     35 N          -0.7720  -19.0405  -14.9495 N.am      2 SEC2        0.0000 
     36 N           0.2380  -19.3170  -14.0640 N.am      8 SEL2        0.0000 
     37 N          -1.7820  -18.7640  -15.8350 N.am      5 SEP2        0.0000 
     38 CA         -1.1700  -21.4445  -11.9360 C.3       3 GLC5        0.0000 
     39 CA         -0.4100  -19.9600  -13.0320 C.3       9 GLL5        0.0000 
     40 CA         -1.9300  -22.9290  -10.8400 C.3       6 GLP5        0.0000 
     41 CA          1.0025  -21.0565  -13.3585 C.3       3 GLC5        0.0000 
     42 CA         -0.6440  -20.4110  -14.8785 C.3       3 GLC5        0.0000 
     43 CA         -1.7625  -18.8070  -13.1905 C.3       3 GLC5        0.0000 
     44 CA         -3.1150  -17.6540  -13.3490 C.3       6 GLP5        0.0000 
     45 CA         -1.0515  -18.7485  -11.3860 C.3       3 GLC5        0.0000 
     46 N           0.0910  -21.7295  -11.7420 N.am      2 SEC2        0.0000 
     47 N          -0.0830  -20.0670  -11.7600 N.am      8 SEL2        0.0000 
     48 CA          1.7520  -20.7835  -12.6010 C.3       3 GLC5        0.0000 
     49 CA          1.0890  -19.4140  -11.5170 C.3       9 GLL5        0.0000 
     50 CA         -0.3020  -18.4755  -10.6285 C.3       3 GLC5        0.0000 
     51 N           5.8990  -17.3040   -0.6385 N.am      2 SEC2        0.0000 
     52 N           4.2440  -17.1820   -1.0640 N.am      8 SEL2        0.0000 
     53 N           7.5540  -17.4260   -0.2130 N.am      5 SEP2        0.0000 
     54 N           1.6405  -19.1915   -0.6975 N.am      2 SEC2        0.0000 
     55 N           2.3410  -18.5800   -1.7560 N.am      8 SEL2        0.0000 
     56 N           0.9400  -19.8030    0.3610 N.am      5 SEP2        0.0000 
     57 CA          1.6385  -13.8230   -6.5040 C.3       3 GLC5        0.0000 
     58 CA          1.5100  -14.1790   -4.5650 C.3       9 GLL5        0.0000 
     59 CA          1.7670  -13.4670   -8.4430 C.3       6 GLP5        0.0000 
     60 N           0.8130  -12.0135   -5.8590 N.am      2 SEC2        0.0000 
     61 N           0.5820  -13.3420   -5.2850 N.am      8 SEL2        0.0000 
     62 N           1.0440  -10.6850   -6.4330 N.am      5 SEP2        0.0000 
     63 CA          2.4435  -11.5980   -5.2290 C.3       3 GLC5        0.0000 
     64 CA          2.6070  -13.3500   -3.9150 C.3       9 GLL5        0.0000 
     65 CA          2.2800   -9.8460   -6.5430 C.3       6 GLP5        0.0000 
     66 CA          0.0710  -12.3540   -2.6550 C.3       3 GLC5        0.0000 
     67 CA          1.8870  -12.7850   -2.7300 C.3       9 GLL5        0.0000 
     68 CA         -1.7450  -11.9230   -2.5800 C.3       6 GLP5        0.0000 
     69 N           5.4545  -13.2685    3.6210 N.am      2 SEC2        0.0000 
     70 N           5.6630  -13.3260    2.0880 N.am      8 SEL2        0.0000 
     71 N           5.2460  -13.2110    5.1540 N.am      5 SEP2        0.0000 
     72 CA         -0.1463  -20.3080   -6.9597 C.3       3 GLC5        0.0000 
     73 CA          1.9287  -21.3653   -5.1569 C.3       3 GLC5        0.0000 
     74 CA          1.7960  -22.4810   -3.5370 C.3       6 GLP5        0.0000 
     75 CA          0.1410  -21.8312   -9.1222 C.3       3 GLC5        0.0000 
     76 CA          2.1590  -21.0720   -8.6480 C.3       9 GLL5        0.0000 
     77 CA         -1.4640  -23.1890   -9.3980 C.3       6 GLP5        0.0000 
     78 CA          0.1885  -17.4697  -13.7195 C.3       3 GLC5        0.0000 
     79 CA         -1.2650  -16.2420  -14.3390 C.3       6 GLP5        0.0000 
     80 CA          2.0865  -16.7563  -13.1325 C.3       3 GLC5        0.0000 
     81 CA          2.5310  -14.8150  -13.1650 C.3       6 GLP5        0.0000 
     82 CA          0.9100  -15.4240   -1.1090 C.3       3 GLC5        0.0000 
     83 CA          0.7870  -14.7720   -3.3570 C.3       9 GLL5        0.0000 
     84 CA          0.8160  -15.3950    0.8830 C.3       6 GLP5        0.0000 
     85 CA         -1.0070  -15.9615   -3.6745 C.3       3 GLC5        0.0000 
     86 CA          1.2210  -16.1340   -2.8450 C.3       9 GLL5        0.0000 
     87 CA         -3.0180  -16.4700   -4.2480 C.3       6 GLP5        0.0000 
     88 CA         -0.2983  -13.1992   -3.2705 C.3       3 GLC5        0.0000 
     89 CA          3.9262  -14.2227   -4.7265 C.3       3 GLC5        0.0000 
     90 CA          5.7940  -14.6810   -5.2130 C.3       6 GLP5        0.0000 
     91 CA          2.3535  -14.1890    0.3113 C.3       3 GLC5        0.0000 
     92 CA          3.4410  -13.2290   -0.8030 C.3       9 GLL5        0.0000 
     93 CA          3.2315   -9.1010   -2.0587 C.3       3 GLC5        0.0000 
     94 CA          3.9110  -10.4520   -0.6600 C.3       9 GLL5        0.0000 
     95 CA          2.9610   -7.5060   -3.0000 C.3       6 GLP5        0.0000 
     96 CA          4.0979  -10.3290    1.5581 C.3       3 GLC5        0.0000 
     97 CA          3.9950   -9.4350    3.2840 C.3       6 GLP5        0.0000 
@<TRIPOS>BOND
@<TRIPOS>SUBSTRUCTURE
     1 ALC1       13 GROUP        1 X    ALC  0     ROOT ALC X 1
     2 SEC2        1 GROUP        1 X    SEC  0     **** SEC X 2
     3 GLC5        4 GROUP        1 X    GLC  0     **** GLC X 6
     4 ALP1       15 GROUP        1 Y    ALP  0     ROOT ALP Y 8
     5 SEP2        3 GROUP        1 Y    SEP  0     **** SEP Y 9
     6 GLP5        6 GROUP        1 Y    GLP  0     **** GLP Y 13
     7 ALL1       14 GROUP        1 Z    ALL  0     ROOT ALL Z 15
     8 SEL2        2 GROUP        1 Z    SEL  0     **** SEL Z 16
     9 GLL5        5 GROUP        1 Z    GLL  0     **** GLL Z 20
@<TRIPOS>SET

