#    Name: 1rkx_NAD_2_ligand
#    Modification time : Tue Mar 25 00:51:37 2014

@<TRIPOS>MOLECULE
1rkx_NAD_2_ligand
   69    73     1     0     0
SMALL
NO_CHARGES


@<TRIPOS>ATOM
      1 PA          4.3950  -19.4220   -3.9990 P.3       1 NAD360      0.0000 
      2 O1A         5.4660  -19.3190   -5.0090 O.co2     1 NAD360      0.0000 
      3 O2A         4.5280  -20.4650   -2.9670 O.co2     1 NAD360      0.0000 
      4 O5B         2.9740  -19.6310   -4.7320 O.3       1 NAD360      0.0000 
      5 C5B         2.7700  -19.0180   -6.0260 C.3       1 NAD360      0.0000 
      6 C4B         1.6260  -19.6880   -6.7810 C.3       1 NAD360      0.0000 
      7 O4B         1.6030  -18.9530   -8.0230 O.3       1 NAD360      0.0000 
      8 C3B         1.9250  -21.1460   -7.1500 C.3       1 NAD360      0.0000 
      9 O3B         0.8040  -21.9420   -6.7480 O.3       1 NAD360      0.0000 
     10 C2B         2.1590  -21.0720   -8.6480 C.3       1 NAD360      0.0000 
     11 O2B         1.8330  -22.2900   -9.3540 O.3       1 NAD360      0.0000 
     12 C1B         1.3330  -19.8750   -9.0450 C.3       1 NAD360      0.0000 
     13 N9A         1.7590  -19.3010  -10.3080 N.pl3     1 NAD360      0.0000 
     14 C8A         2.8800  -18.5650  -10.5600 C.2       1 NAD360      0.0000 
     15 N7A         2.9910  -18.1900  -11.8300 N.2       1 NAD360      0.0000 
     16 C5A         1.8670  -18.7220  -12.4330 C.ar      1 NAD360      0.0000 
     17 C6A         1.4170  -18.6730  -13.7670 C.ar      1 NAD360      0.0000 
     18 N6A         2.0240  -18.0650  -14.7680 N.pl3     1 NAD360      0.0000 
     19 N1A         0.2380  -19.3170  -14.0640 N.ar      1 NAD360      0.0000 
     20 C2A        -0.4100  -19.9600  -13.0320 C.ar      1 NAD360      0.0000 
     21 N3A        -0.0830  -20.0670  -11.7600 N.ar      1 NAD360      0.0000 
     22 C4A         1.0890  -19.4140  -11.5170 C.ar      1 NAD360      0.0000 
     23 O3          4.2430  -18.0270   -3.3420 O.3       1 NAD360      0.0000 
     24 PN          3.2930  -17.4990   -2.1270 P.3       1 NAD360      0.0000 
     25 O1N         4.2440  -17.1820   -1.0640 O.co2     1 NAD360      0.0000 
     26 O2N         2.3410  -18.5800   -1.7560 O.co2     1 NAD360      0.0000 
     27 O5D         2.6620  -16.1720   -2.7210 O.3       1 NAD360      0.0000 
     28 C5D         1.2210  -16.1340   -2.8450 C.3       1 NAD360      0.0000 
     29 C4D         0.7870  -14.7720   -3.3570 C.3       1 NAD360      0.0000 
     30 O4D         1.0770  -13.8420   -2.2670 O.3       1 NAD360      0.0000 
     31 C3D         1.5100  -14.1790   -4.5650 C.3       1 NAD360      0.0000 
     32 O3D         0.5820  -13.3420   -5.2850 O.3       1 NAD360      0.0000 
     33 C2D         2.6070  -13.3500   -3.9150 C.3       1 NAD360      0.0000 
     34 O2D         3.0830  -12.3290   -4.8080 O.3       1 NAD360      0.0000 
     35 C1D         1.8870  -12.7850   -2.7300 C.3       1 NAD360      0.0000 
     36 N1N         2.8140  -12.3390   -1.6880 N.pl3     1 NAD360      0.0000 
     37 C2N         3.4410  -13.2290   -0.8030 C.ar      1 NAD360      0.0000 
     38 C3N         4.3410  -12.7370    0.2820 C.ar      1 NAD360      0.0000 
     39 C7N         4.9260  -13.7450    1.1770 C.2       1 NAD360      0.0000 
     40 O7N         5.6630  -13.3260    2.0880 O.2       1 NAD360      0.0000 
     41 N7N         4.6970  -15.0700    1.0490 N.am      1 NAD360      0.0000 
     42 C4N         4.6400  -11.2510    0.3670 C.ar      1 NAD360      0.0000 
     43 C5N         3.9110  -10.4520   -0.6600 C.ar      1 NAD360      0.0000 
     44 C6N         3.0930  -10.9400   -1.5750 C.ar      1 NAD360      0.0000 
     45 H           3.6753  -19.0918   -6.6470 H         1 NAD360      0.0000 
     46 H           2.5295  -17.9491   -5.9250 H         1 NAD360      0.0000 
     47 H           0.7376  -19.5967   -6.2635 H         1 NAD360      0.0000 
     48 H           2.8328  -21.4077   -6.6661 H         1 NAD360      0.0000 
     49 H           3.2070  -20.7894   -8.7808 H         1 NAD360      0.0000 
     50 H           0.3112  -20.1516   -9.0532 H         1 NAD360      0.0000 
     51 H           3.5418  -18.3398   -9.8461 H         1 NAD360      0.0000 
     52 H          -1.3546  -20.4605  -13.3424 H         1 NAD360      0.0000 
     53 H           0.7362  -16.3084   -1.8793 H         1 NAD360      0.0000 
     54 H           0.8643  -16.8945   -3.5467 H         1 NAD360      0.0000 
     55 H          -0.2717  -14.7618   -3.5298 H         1 NAD360      0.0000 
     56 H           1.9266  -14.9473   -5.1228 H         1 NAD360      0.0000 
     57 H           3.3598  -14.0128   -3.5777 H         1 NAD360      0.0000 
     58 H           1.2766  -11.9648   -3.0727 H         1 NAD360      0.0000 
     59 H           3.3043  -14.2366   -0.8701 H         1 NAD360      0.0000 
     60 H           5.1520  -15.6615    1.7146 H         1 NAD360      0.0000 
     61 H           4.0928  -15.3418    0.3000 H         1 NAD360      0.0000 
     62 H           5.2241  -10.8867    1.0036 H         1 NAD360      0.0000 
     63 H           4.1108   -9.4072   -0.5953 H         1 NAD360      0.0000 
     64 H           2.6062  -10.3161   -2.2673 H         1 NAD360      0.0000 
     65 H           0.9202  -22.8126   -7.2261 H         1 NAD360      0.0000 
     66 H           2.7079  -22.7574   -9.4811 H         1 NAD360      0.0000 
     67 H           1.3007  -17.8741  -15.4316 H         1 NAD360      0.0000 
     68 H          -0.1212  -13.1007   -4.6163 H         1 NAD360      0.0000 
     69 H           2.3563  -12.2192   -5.4862 H         1 NAD360      0.0000 
@<TRIPOS>BOND
     1    2    1 ar   
     2    3    1 ar   
     3    4    1 1    
     4   23    1 1    
     5    5    4 1    
     6    6    5 1    
     7   45    5 1    
     8   46    5 1    
     9    7    6 1    
    10    8    6 1    
    11   47    6 1    
    12   12    7 1    
    13    9    8 1    
    14   10    8 1    
    15   48    8 1    
    16   65    9 1    
    17   11   10 1    
    18   12   10 1    
    19   49   10 1    
    20   66   11 1    
    21   13   12 1    
    22   50   12 1    
    23   14   13 1    
    24   22   13 1    
    25   15   14 2    
    26   51   14 1    
    27   16   15 1    
    28   17   16 ar   
    29   22   16 ar   
    30   18   17 1    
    31   19   17 ar   
    32   67   18 1    
    33   20   19 ar   
    34   21   20 ar   
    35   52   20 1    
    36   22   21 ar   
    37   24   23 1    
    38   25   24 ar   
    39   26   24 ar   
    40   27   24 1    
    41   28   27 1    
    42   29   28 1    
    43   53   28 1    
    44   54   28 1    
    45   30   29 1    
    46   31   29 1    
    47   55   29 1    
    48   35   30 1    
    49   32   31 1    
    50   33   31 1    
    51   56   31 1    
    52   68   32 1    
    53   34   33 1    
    54   35   33 1    
    55   57   33 1    
    56   69   34 1    
    57   36   35 1    
    58   58   35 1    
    59   37   36 ar   
    60   44   36 ar   
    61   38   37 ar   
    62   59   37 1    
    63   39   38 1    
    64   42   38 ar   
    65   40   39 2    
    66   41   39 am   
    67   60   41 1    
    68   61   41 1    
    69   43   42 ar   
    70   62   42 1    
    71   44   43 ar   
    72   63   43 1    
    73   64   44 1    
@<TRIPOS>SUBSTRUCTURE
     1 NAD360      1 GROUP   
@<TRIPOS>SET

