#    Name: 3nup_3NU_1_INTS_M
#    Modification time : Tue Mar 25 02:39:26 2014

@<TRIPOS>MOLECULE
3nup_3NU_1_INTS_M
   54     0    12     0     0
SMALL
NO_CHARGES


@<TRIPOS>ATOM
      1 CA         26.1390   36.6705   -3.0660 C.3       4 GLC5        0.0000 
      2 CA         25.2580   35.4700   -4.3870 C.3      12 GLL5        0.0000 
      3 CA         27.0200   37.8710   -1.7450 C.3       8 GLP5        0.0000 
      4 N          25.2835   31.8435  -10.1240 N.am      2 SEC2        0.0000 
      5 N          25.1850   32.8430   -8.8330 N.am     10 SEL2        0.0000 
      6 N          25.3820   30.8440  -11.4150 N.am      6 SEP2        0.0000 
      7 CA         26.5895   34.3055   -8.6045 C.3       4 GLC5        0.0000 
      8 CA         24.4460   33.9230   -8.9470 C.3      12 GLL5        0.0000 
      9 CA         28.7330   34.6880   -8.2620 C.3       8 GLP5        0.0000 
     10 CA         23.3680   32.7270   -8.1110 C.3       4 GLC5        0.0000 
     11 CA         22.2900   31.5310   -7.2750 C.3       8 GLP5        0.0000 
     12 O          23.7335   33.3005  -11.3765 O.2       1 ALC1        0.0000 
     13 O          23.8970   34.0630  -10.1950 O.2       9 ALL1        0.0000 
     14 O          23.5700   32.5380  -12.5580 O.2       5 ALP1        0.0000 
     15 OD1        19.2785   36.9430  -10.7605 O.co2     3 ASC3        0.0000 
     16 OD1        21.0770   37.0770  -11.0940 O.co2    11 ASL3        0.0000 
     17 OD1        17.4800   36.8090  -10.4270 O.co2     7 ASP3        0.0000 
     18 CA         24.8675   31.0015   -6.4945 C.3       4 GLC5        0.0000 
     19 CA         25.7690   32.5950   -7.6500 C.3      12 GLL5        0.0000 
     20 CA         23.9660   29.4080   -5.3390 C.3       8 GLP5        0.0000 
     21 CA         26.7670   31.8400   -9.3130 C.3       4 GLC5        0.0000 
     22 CA         27.7650   31.0850  -10.9760 C.3       8 GLP5        0.0000 
     23 CA         19.9940   36.4425   -4.6360 C.3       4 GLC5        0.0000 
     24 CA         21.3900   37.3440   -5.9370 C.3      12 GLL5        0.0000 
     25 CA         18.5980   35.5410   -3.3350 C.3       8 GLP5        0.0000 
     26 CA         23.5225   39.5035   -8.8590 C.3       4 GLC5        0.0000 
     27 CA         23.2120   38.7380   -6.8790 C.3      12 GLL5        0.0000 
     28 CA         23.8330   40.2690  -10.8390 C.3       8 GLP5        0.0000 
     29 CA         19.0265   35.1010  -10.8465 C.3       4 GLC5        0.0000 
     30 CA         20.8340   35.7050  -11.6660 C.3      12 GLL5        0.0000 
     31 CA         17.2190   34.4970  -10.0270 C.3       8 GLP5        0.0000 
     32 CA         22.0665   39.1660  -11.3545 C.3       4 GLC5        0.0000 
     33 CA         20.3000   38.0630  -11.8700 C.3      12 GLL5        0.0000 
     34 CA         25.6600   37.4808   -5.1685 C.3       4 GLC5        0.0000 
     35 CA         24.6160   35.5390   -5.6230 C.3      12 GLL5        0.0000 
     36 CA         26.3830   39.4570   -5.3320 C.3       8 GLP5        0.0000 
     37 CA         23.5390   34.0242   -4.4365 C.3       4 GLC5        0.0000 
     38 CA         22.1410   32.5440   -3.8680 C.3       8 GLP5        0.0000 
     39 CA         23.6907   33.2700   -5.2572 C.3       4 GLC5        0.0000 
     40 CA         25.6440   33.4290   -6.5410 C.3      12 GLL5        0.0000 
     41 CA         27.4027   32.3220   -6.1098 C.3       4 GLC5        0.0000 
     42 CA         29.0990   31.6320   -5.1240 C.3       8 GLP5        0.0000 
     43 CA         27.1189   33.9917   -7.7051 C.3       4 GLC5        0.0000 
     44 CA         23.8974   32.4133   -7.2116 C.3       4 GLC5        0.0000 
     45 CA         24.6935   38.7420   -6.0140 C.3       4 GLC5        0.0000 
     46 CA         22.7960   37.3160   -6.5130 C.3      12 GLL5        0.0000 
     47 CA         21.4217   33.9537   -9.4413 C.3       4 GLC5        0.0000 
     48 CA         23.1280   35.0860  -10.9070 C.3      12 GLL5        0.0000 
     49 CA         20.4530   33.0390   -7.9960 C.3       8 GLP5        0.0000 
     50 CA         20.3442   33.9825  -12.5640 C.3       4 GLC5        0.0000 
     51 CA         21.6530   34.6510  -10.8660 C.3      12 GLL5        0.0000 
     52 CA         19.4450   32.7870  -13.8620 C.3       8 GLP5        0.0000 
     53 CA         23.3645   38.6282  -10.7640 C.3       4 GLC5        0.0000 
     54 CA         22.4810   37.4770  -11.0940 C.3      12 GLL5        0.0000 
@<TRIPOS>BOND
@<TRIPOS>SUBSTRUCTURE
     1 ALC1       12 GROUP        1 X    ALC  0     ROOT ALC X 1
     2 SEC2        4 GROUP        1 X    SEC  0     **** SEC X 2
     3 ASC3       15 GROUP        1 X    ASC  0     **** ASC X 3
     4 GLC5        1 GROUP        1 X    GLC  0     **** GLC X 6
     5 ALP1       14 GROUP        1 Y    ALP  0     ROOT ALP Y 8
     6 SEP2        6 GROUP        1 Y    SEP  0     **** SEP Y 9
     7 ASP3       17 GROUP        1 Y    ASP  0     **** ASP Y 10
     8 GLP5        3 GROUP        1 Y    GLP  0     **** GLP Y 13
     9 ALL1       13 GROUP        1 Z    ALL  0     ROOT ALL Z 15
    10 SEL2        5 GROUP        1 Z    SEL  0     **** SEL Z 16
    11 ASL3       16 GROUP        1 Z    ASL  0     **** ASL Z 17
    12 GLL5        2 GROUP        1 Z    GLL  0     **** GLL Z 20
@<TRIPOS>SET

