#    Name: 3nup_3NU_1_ligand
#    Modification time : Tue Mar 25 02:39:26 2014

@<TRIPOS>MOLECULE
3nup_3NU_1_ligand
   47    49     1     0     0
SMALL
NO_CHARGES


@<TRIPOS>ATOM
      1 C1         24.6160   35.5390   -5.6230 C.2       1 3NU900      0.0000 
      2 N1         24.7960   36.4960   -3.6670 N.pl3     1 3NU900      0.0000 
      3 C2         25.2580   35.4700   -4.3870 C.2       1 3NU900      0.0000 
      4 N2         23.8850   37.2560   -4.3300 N.2       1 3NU900      0.0000 
      5 C3         23.7720   36.6820   -5.5130 C.2       1 3NU900      0.0000 
      6 N3         25.1850   32.8430   -8.8330 N.ar      1 3NU900      0.0000 
      7 C4         24.4460   33.9230   -8.9470 C.ar      1 3NU900      0.0000 
      8 N4         24.2280   34.8310   -7.9720 N.ar      1 3NU900      0.0000 
      9 C5         24.8370   34.5630   -6.7520 C.ar      1 3NU900      0.0000 
     10 N5         23.8970   34.0630  -10.1950 N.pl3     1 3NU900      0.0000 
     11 C6         25.6440   33.4290   -6.5410 C.ar      1 3NU900      0.0000 
     12 N6         21.0770   37.0770  -11.0940 N.4       1 3NU900      0.0000 
     13 C7         25.7690   32.5950   -7.6500 C.ar      1 3NU900      0.0000 
     14 C8         22.7960   37.3160   -6.5130 C.3       1 3NU900      0.0000 
     15 C9         21.3900   37.3440   -5.9370 C.3       1 3NU900      0.0000 
     16 C10        23.2120   38.7380   -6.8790 C.3       1 3NU900      0.0000 
     17 C11        23.1280   35.0860  -10.9070 C.3       1 3NU900      0.0000 
     18 C12        21.6530   34.6510  -10.8660 C.3       1 3NU900      0.0000 
     19 C13        20.8340   35.7050  -11.6660 C.3       1 3NU900      0.0000 
     20 C14        22.4810   37.4770  -11.0940 C.3       1 3NU900      0.0000 
     21 C15        23.3110   36.4980  -10.2840 C.3       1 3NU900      0.0000 
     22 C16        20.3000   38.0630  -11.8700 C.3       1 3NU900      0.0000 
     23 H          25.0843   36.6956   -2.7314 H         1 3NU900      0.0000 
     24 H          25.8914   34.8114   -4.1409 H         1 3NU900      0.0000 
     25 H          24.0691   33.1632  -10.8762 H         1 3NU900      0.0000 
     26 H          26.0820   33.2463   -5.6760 H         1 3NU900      0.0000 
     27 H          20.6945   37.0879  -10.0661 H         1 3NU900      0.0000 
     28 H          26.3612   31.7234   -7.5321 H         1 3NU900      0.0000 
     29 H          22.7850   36.7176   -7.4139 H         1 3NU900      0.0000 
     30 H          23.4285   35.1262  -11.9426 H         1 3NU900      0.0000 
     31 H          21.3081   34.6367   -9.8529 H         1 3NU900      0.0000 
     32 H          21.5446   33.6952  -11.3353 H         1 3NU900      0.0000 
     33 H          21.1496   35.6674  -12.7017 H         1 3NU900      0.0000 
     34 H          19.7842   35.4473  -11.5939 H         1 3NU900      0.0000 
     35 H          22.6006   38.4759  -10.6591 H         1 3NU900      0.0000 
     36 H          22.8771   37.5053  -12.1156 H         1 3NU900      0.0000 
     37 H          24.3513   36.7644  -10.3328 H         1 3NU900      0.0000 
     38 H          22.9666   36.4732   -9.2660 H         1 3NU900      0.0000 
     39 H          21.0570   36.4251   -5.7254 H         1 3NU900      0.0000 
     40 H          21.3461   37.8739   -5.0901 H         1 3NU900      0.0000 
     41 H          20.7361   37.7535   -6.5732 H         1 3NU900      0.0000 
     42 H          24.1218   38.7638   -7.2933 H         1 3NU900      0.0000 
     43 H          22.5800   39.1530   -7.5335 H         1 3NU900      0.0000 
     44 H          23.2379   39.3353   -6.0774 H         1 3NU900      0.0000 
     45 H          20.4335   38.9932  -11.5281 H         1 3NU900      0.0000 
     46 H          20.5613   38.0652  -12.8352 H         1 3NU900      0.0000 
     47 H          19.3185   37.8750  -11.8325 H         1 3NU900      0.0000 
@<TRIPOS>BOND
     1    3    1 2    
     2    5    1 1    
     3    9    1 1    
     4    3    2 1    
     5    4    2 1    
     6   23    2 1    
     7   24    3 1    
     8    5    4 2    
     9   14    5 1    
    10    7    6 ar   
    11   13    6 ar   
    12    8    7 ar   
    13   10    7 1    
    14    9    8 ar   
    15   11    9 ar   
    16   17   10 1    
    17   25   10 1    
    18   13   11 ar   
    19   26   11 1    
    20   19   12 1    
    21   20   12 1    
    22   22   12 1    
    23   27   12 1    
    24   28   13 1    
    25   15   14 1    
    26   16   14 1    
    27   29   14 1    
    28   39   15 1    
    29   40   15 1    
    30   41   15 1    
    31   42   16 1    
    32   43   16 1    
    33   44   16 1    
    34   18   17 1    
    35   21   17 1    
    36   30   17 1    
    37   19   18 1    
    38   31   18 1    
    39   32   18 1    
    40   33   19 1    
    41   34   19 1    
    42   21   20 1    
    43   35   20 1    
    44   36   20 1    
    45   37   21 1    
    46   38   21 1    
    47   45   22 1    
    48   46   22 1    
    49   47   22 1    
@<TRIPOS>SUBSTRUCTURE
     1 3NU900      1 GROUP   
@<TRIPOS>SET

