#    Name: 2jt6_JT6_1_INTS_M
#    Modification time : Tue Mar 25 21:14:28 2014

@<TRIPOS>MOLECULE
2jt6_JT6_1_INTS_M
   41     0     9     0     0
SMALL
NO_CHARGES


@<TRIPOS>ATOM
      1 CA          6.9185    3.1440    3.6770 C.3       3 GLC5        0.0000 
      2 CA          8.4960    1.8230    4.2480 C.3       9 GLL5        0.0000 
      3 CA          5.3410    4.4650    3.1060 C.3       6 GLP5        0.0000 
      4 CA         10.3690    3.1135   -1.6150 C.3       3 GLC5        0.0000 
      5 CA         10.7850    1.2690   -1.1540 C.3       9 GLL5        0.0000 
      6 CA          9.9530    4.9580   -2.0760 C.3       6 GLP5        0.0000 
      7 CA          8.9030    2.8050   -0.7060 C.3       3 GLC5        0.0000 
      8 CA         10.1770    1.4090    0.1030 C.3       9 GLL5        0.0000 
      9 CA          7.6290    4.2010   -1.5150 C.3       6 GLP5        0.0000 
     10 CA          5.3450    2.4655    6.7925 C.3       3 GLC5        0.0000 
     11 CA          5.7720    0.5180    6.1630 C.3       9 GLL5        0.0000 
     12 CA          4.9180    4.4130    7.4220 C.3       6 GLP5        0.0000 
     13 CA          5.3645   -0.9830    4.6150 C.3       3 GLC5        0.0000 
     14 CA          4.9570   -2.4840    3.0670 C.3       6 GLP5        0.0000 
     15 Zn          5.8680   -3.6240    5.8930 Zn        2 ZIC7        0.0000 
     16 Zn          6.4120   -2.8490    6.3150 Zn        8 ZIL7        0.0000 
     17 Zn          5.3240   -4.3990    5.4710 Zn        5 ZIP7        0.0000 
     18 Zn          4.4085   -3.8235    5.8105 Zn        2 ZIC7        0.0000 
     19 Zn          3.4930   -3.2480    6.1500 Zn        8 ZIL7        0.0000 
     20 O           3.0140   -2.0390    5.2350 O.2       1 ALC1        0.0000 
     21 O           3.4930   -3.2480    6.1500 O.2       7 ALL1        0.0000 
     22 O           2.5350   -0.8300    4.3200 O.2       4 ALP1        0.0000 
     23 CA         12.9453    0.3463    0.1248 C.3       3 GLC5        0.0000 
     24 CA         11.4410   -0.9730   -0.5830 C.3       9 GLL5        0.0000 
     25 CA         14.4730    1.1530    1.3260 C.3       6 GLP5        0.0000 
     26 CA         11.7800   -2.5353    0.8178 C.3       3 GLC5        0.0000 
     27 CA         12.4400   -4.1600    1.5980 C.3       6 GLP5        0.0000 
     28 CA         12.4645    0.4487    1.0922 C.3       3 GLC5        0.0000 
     29 CA         10.7990   -0.8480    0.6580 C.3       9 GLL5        0.0000 
     30 CA          7.0282   -1.3880    2.7807 C.3       3 GLC5        0.0000 
     31 CA          8.8550   -0.6810    3.0540 C.3       9 GLL5        0.0000 
     32 CA          5.5390   -2.1350    1.8940 C.3       6 GLP5        0.0000 
     33 CA          7.6528    2.9605    5.4065 C.3       3 GLC5        0.0000 
     34 CA          7.1320    4.6650    6.2700 C.3       6 GLP5        0.0000 
     35 CA         12.4770    1.2460    0.4003 C.3       3 GLC5        0.0000 
     36 CA         10.6760    1.4550    4.1549 C.3       3 GLC5        0.0000 
     37 CA          9.3810    0.4480    2.3670 C.3       9 GLL5        0.0000 
     38 CA         12.2490    1.8060    5.3090 C.3       6 GLP5        0.0000 
     39 CA         10.3306   -1.8329   -2.4321 C.3       3 GLC5        0.0000 
     40 CA         11.3940    0.0520   -1.5700 C.3       9 GLL5        0.0000 
     41 CA          8.9860   -3.3700   -2.8720 C.3       6 GLP5        0.0000 
@<TRIPOS>BOND
@<TRIPOS>SUBSTRUCTURE
     1 ALC1       20 GROUP        1 X    ALC  0     ROOT ALC X 1
     2 ZIC7       15 GROUP        1 X    ZIC  0     **** ZIC X 5
     3 GLC5        1 GROUP        1 X    GLC  0     **** GLC X 6
     4 ALP1       22 GROUP        1 Y    ALP  0     ROOT ALP Y 8
     5 ZIP7       17 GROUP        1 Y    ZIP  0     **** ZIP Y 12
     6 GLP5        3 GROUP        1 Y    GLP  0     **** GLP Y 13
     7 ALL1       21 GROUP        1 Z    ALL  0     ROOT ALL Z 15
     8 ZIL7       16 GROUP        1 Z    ZIL  0     **** ZIL Z 19
     9 GLL5        2 GROUP        1 Z    GLL  0     **** GLL Z 20
@<TRIPOS>SET

