#    Name: 2jt6_JT6_1_ligand
#    Modification time : Tue Mar 25 21:14:28 2014

@<TRIPOS>MOLECULE
2jt6_JT6_1_ligand
   35    36     1     0     0
SMALL
NO_CHARGES


@<TRIPOS>ATOM
      1 C17        11.3940    0.0520   -1.5700 C.ar      1 JT61        0.0000 
      2 C16        11.4410   -0.9730   -0.5830 C.ar      1 JT61        0.0000 
      3 C15        10.7990   -0.8480    0.6580 C.ar      1 JT61        0.0000 
      4 C14        10.1130    0.3370    1.0590 C.ar      1 JT61        0.0000 
      5 C13         8.1800   -0.6010    4.2810 C.ar      1 JT61        0.0000 
      6 C12         8.8550   -0.6810    3.0540 C.ar      1 JT61        0.0000 
      7 C10         9.1540    1.6970    3.0210 C.ar      1 JT61        0.0000 
      8 C9          8.4960    1.8230    4.2480 C.ar      1 JT61        0.0000 
      9 C18        10.7850    1.2690   -1.1540 C.ar      1 JT61        0.0000 
     10 C8          7.8510    0.6890    4.8380 C.ar      1 JT61        0.0000 
     11 C19        10.1770    1.4090    0.1030 C.ar      1 JT61        0.0000 
     12 C1          5.4980   -2.0410    6.6150 C.2       1 JT61        0.0000 
     13 C6          5.7720    0.5180    6.1630 C.3       1 JT61        0.0000 
     14 C3          5.9300   -0.6420    7.1120 C.3       1 JT61        0.0000 
     15 N2          4.2080   -2.2570    6.5280 N.am      1 JT61        0.0000 
     16 O4          6.4120   -2.8490    6.3150 O.2       1 JT61        0.0000 
     17 O5          3.4930   -3.2480    6.1500 O.3       1 JT61        0.0000 
     18 O7          7.0120    0.9740    5.8020 O.3       1 JT61        0.0000 
     19 C11         9.3810    0.4480    2.3670 C.ar      1 JT61        0.0000 
     20 C20        11.9330   -0.1310   -2.9080 C.1       1 JT61        0.0000 
     21 N21        12.3630   -0.2780   -3.9770 N.1       1 JT61        0.0000 
     22 H          11.9704   -1.8386   -0.7973 H         1 JT61        0.0000 
     23 H          10.8183   -1.6491    1.3222 H         1 JT61        0.0000 
     24 H           7.9152   -1.4399    4.7910 H         1 JT61        0.0000 
     25 H           8.9831   -1.6222    2.6119 H         1 JT61        0.0000 
     26 H           9.5054    2.5614    2.5441 H         1 JT61        0.0000 
     27 H           8.4669    2.7195    4.7365 H         1 JT61        0.0000 
     28 H          10.7952    2.0738   -1.8069 H         1 JT61        0.0000 
     29 H           9.7518    2.3184    0.3670 H         1 JT61        0.0000 
     30 H           5.1652    1.2831    6.6764 H         1 JT61        0.0000 
     31 H           5.1779    0.1622    5.3041 H         1 JT61        0.0000 
     32 H           7.0001   -0.7111    7.4340 H         1 JT61        0.0000 
     33 H           5.3648   -0.4264    8.0542 H         1 JT61        0.0000 
     34 H           3.5877   -1.3438    6.8711 H         1 JT61        0.0000 
     35 H           2.6408   -2.8414    5.8207 H         1 JT61        0.0000 
@<TRIPOS>BOND
     1    2    1 ar   
     2    9    1 ar   
     3   20    1 1    
     4    3    2 ar   
     5   22    2 1    
     6    4    3 ar   
     7   23    3 1    
     8   11    4 ar   
     9   19    4 1    
    10    6    5 ar   
    11   10    5 ar   
    12   24    5 1    
    13   19    6 ar   
    14   25    6 1    
    15    8    7 ar   
    16   19    7 ar   
    17   26    7 1    
    18   10    8 ar   
    19   27    8 1    
    20   11    9 ar   
    21   28    9 1    
    22   18   10 1    
    23   29   11 1    
    24   14   12 1    
    25   15   12 am   
    26   16   12 2    
    27   14   13 1    
    28   18   13 1    
    29   30   13 1    
    30   31   13 1    
    31   32   14 1    
    32   33   14 1    
    33   17   15 1    
    34   34   15 1    
    35   35   17 1    
    36   21   20 3    
@<TRIPOS>SUBSTRUCTURE
     1 JT61        1 GROUP   
@<TRIPOS>SET

