#    Name: 4dd8_BAT_3_INTS_M
#    Modification time : Tue Mar 25 09:36:37 2014

@<TRIPOS>MOLECULE
4dd8_BAT_3_INTS_M
   74     0    12     0     0
SMALL
NO_CHARGES


@<TRIPOS>ATOM
      1 CA         -6.9645   13.6270   37.1835 C.3       4 GLC5        0.0000 
      2 CA         -4.9840   12.7510   37.1510 C.3      12 GLL5        0.0000 
      3 CA         -8.9450   14.5030   37.2160 C.3       8 GLP5        0.0000 
      4 CA         -4.0470   14.0240   38.6795 C.3       4 GLC5        0.0000 
      5 CA         -3.1100   15.2970   40.2080 C.3       8 GLP5        0.0000 
      6 CA         -3.4125   12.2525   38.4970 C.3       4 GLC5        0.0000 
      7 CA         -1.8410   11.7540   39.8430 C.3       8 GLP5        0.0000 
      8 CA         -8.2935   11.2610   34.7475 C.3       4 GLC5        0.0000 
      9 CA         -6.6540   11.9870   35.5140 C.3      12 GLL5        0.0000 
     10 CA         -9.9330   10.5350   33.9810 C.3       8 GLP5        0.0000 
     11 CA         -7.7995   13.2450   36.3650 C.3       4 GLC5        0.0000 
     12 CA         -6.2055   10.0695   35.8280 C.3       4 GLC5        0.0000 
     13 CA         -5.7570    8.1520   36.1420 C.3       8 GLP5        0.0000 
     14 CA         -0.5830   12.3410   33.0540 C.3       4 GLC5        0.0000 
     15 CA         -0.6610   11.9400   35.2090 C.3      12 GLL5        0.0000 
     16 CA         -0.5050   12.7420   30.8990 C.3       8 GLP5        0.0000 
     17 CA         -2.9115    9.2165   33.5195 C.3       4 GLC5        0.0000 
     18 CA         -1.7380    8.4240   34.6410 C.3      12 GLL5        0.0000 
     19 CA         -4.0850   10.0090   32.3980 C.3       8 GLP5        0.0000 
     20 CA         -3.7475    8.2880   35.3915 C.3       4 GLC5        0.0000 
     21 CA         -0.6505   11.9670   37.9670 C.3       4 GLC5        0.0000 
     22 CA          0.5400   12.1800   36.0910 C.3      12 GLL5        0.0000 
     23 CA          2.5390   14.2770   38.0155 C.3       4 GLC5        0.0000 
     24 CA          0.9640   14.4860   36.8880 C.3      12 GLL5        0.0000 
     25 CA          4.1140   14.0680   39.1430 C.3       8 GLP5        0.0000 
     26 CA          3.5905   17.4405   34.7560 C.3       4 GLC5        0.0000 
     27 CA          1.9300   16.1280   35.4610 C.3      12 GLL5        0.0000 
     28 CA          5.2510   18.7530   34.0510 C.3       8 GLP5        0.0000 
     29 CA          2.1150   11.9410   33.8205 C.3       4 GLC5        0.0000 
     30 CA          1.5440   13.9270   34.6500 C.3      12 GLL5        0.0000 
     31 CA          2.6860    9.9550   32.9910 C.3       8 GLP5        0.0000 
     32 CA          0.5195   13.3345   32.7745 C.3       4 GLC5        0.0000 
     33 O          -5.3570   16.2645   32.6475 O.2       1 ALC1        0.0000 
     34 O          -5.5180   16.7220   33.9890 O.2       9 ALL1        0.0000 
     35 O          -5.1960   15.8070   31.3060 O.2       5 ALP1        0.0000 
     36 O          -1.8330   13.5285   36.9765 O.2       1 ALC1        0.0000 
     37 O          -1.7100   12.8820   35.5240 O.2       9 ALL1        0.0000 
     38 O          -1.9560   14.1750   38.4290 O.2       5 ALP1        0.0000 
     39 O          -0.6520   10.0410   33.3235 O.2       1 ALC1        0.0000 
     40 O          -1.2460    9.7660   34.4950 O.2       9 ALL1        0.0000 
     41 O          -0.0580   10.3160   32.1520 O.2       5 ALP1        0.0000 
     42 Zn         -5.2115   17.3820   36.2585 Zn        3 ZIC7        0.0000 
     43 Zn         -4.2280   17.1070   35.8780 Zn       11 ZIL7        0.0000 
     44 Zn         -6.1950   17.6570   36.6390 Zn        7 ZIP7        0.0000 
     45 Zn         -6.3660   17.5685   35.6000 Zn        3 ZIC7        0.0000 
     46 Zn         -6.5370   17.4800   34.5610 Zn       11 ZIL7        0.0000 
     47 O          -7.5730   17.3490   33.6995 O.2       1 ALC1        0.0000 
     48 O          -6.5370   17.4800   34.5610 O.2       9 ALL1        0.0000 
     49 O          -8.6090   17.2180   32.8380 O.2       5 ALP1        0.0000 
     50 N          -2.7265   12.3130   32.0880 N.am      2 SEC2        0.0000 
     51 N          -2.6960   12.7770   33.4360 N.am     10 SEL2        0.0000 
     52 N          -2.7570   11.8490   30.7400 N.am      6 SEP2        0.0000 
     53 N          -2.2820   10.0075   37.9750 N.am      2 SEC2        0.0000 
     54 N          -1.5680   10.3140   36.7130 N.am     10 SEL2        0.0000 
     55 N          -2.9960    9.7010   39.2370 N.am      6 SEP2        0.0000 
     56 CA         -1.7815   16.2565   31.9385 C.3       4 GLC5        0.0000 
     57 CA         -2.0160   17.5140   33.3370 C.3      12 GLL5        0.0000 
     58 CA         -1.5470   14.9990   30.5400 C.3       8 GLP5        0.0000 
     59 CA         -2.9390   18.4455   31.6585 C.3       4 GLC5        0.0000 
     60 CA         -3.8620   19.3770   29.9800 C.3       8 GLP5        0.0000 
     61 CA         -2.1650   15.3867   32.4378 C.3       4 GLC5        0.0000 
     62 CA         -2.0870   16.0540   34.4010 C.3      12 GLL5        0.0000 
     63 CA         -6.7308   14.3077   35.9430 C.3       4 GLC5        0.0000 
     64 CA         -5.0140   13.6870   34.8700 C.3      12 GLL5        0.0000 
     65 CA         -8.3390   15.5490   36.6040 C.3       8 GLP5        0.0000 
     66 CA         -5.0137   11.1128   34.0010 C.3       4 GLC5        0.0000 
     67 CA         -5.1732   10.6798   36.9188 C.3       4 GLC5        0.0000 
     68 CA         -5.2310   12.4460   35.6940 C.3      12 GLL5        0.0000 
     69 CA         -5.2390    8.7610   37.4150 C.3       8 GLP5        0.0000 
     70 CA          1.3127   11.0075   34.3205 C.3       4 GLC5        0.0000 
     71 CA          3.3102   15.3927   37.0960 C.3       4 GLC5        0.0000 
     72 CA          4.9480   14.8380   38.1200 C.3       8 GLP5        0.0000 
     73 CA          3.5892   14.3316   34.6421 C.3       4 GLC5        0.0000 
     74 CA          5.4250   13.8660   34.4830 C.3       8 GLP5        0.0000 
@<TRIPOS>BOND
@<TRIPOS>SUBSTRUCTURE
     1 ALC1       33 GROUP        1 X    ALC  0     ROOT ALC X 1
     2 SEC2       50 GROUP        1 X    SEC  0     **** SEC X 2
     3 ZIC7       42 GROUP        1 X    ZIC  0     **** ZIC X 5
     4 GLC5        1 GROUP        1 X    GLC  0     **** GLC X 6
     5 ALP1       35 GROUP        1 Y    ALP  0     ROOT ALP Y 8
     6 SEP2       52 GROUP        1 Y    SEP  0     **** SEP Y 9
     7 ZIP7       44 GROUP        1 Y    ZIP  0     **** ZIP Y 12
     8 GLP5        3 GROUP        1 Y    GLP  0     **** GLP Y 13
     9 ALL1       34 GROUP        1 Z    ALL  0     ROOT ALL Z 15
    10 SEL2       51 GROUP        1 Z    SEL  0     **** SEL Z 16
    11 ZIL7       43 GROUP        1 Z    ZIL  0     **** ZIL Z 19
    12 GLL5        2 GROUP        1 Z    GLL  0     **** GLL Z 20
@<TRIPOS>SET

