#    Name: 4dd8_BAT_3_ligand
#    Modification time : Tue Mar 25 09:36:37 2014

@<TRIPOS>MOLECULE
4dd8_BAT_3_ligand
   63    64     1     0     0
SMALL
NO_CHARGES


@<TRIPOS>ATOM
      1 C1         -3.4790   15.4950   34.2700 C.3       1 BAT1000     0.0000 
      2 C2         -4.4180   16.5220   34.8230 C.2       1 BAT1000     0.0000 
      3 C3         -2.0870   16.0540   34.4010 C.3       1 BAT1000     0.0000 
      4 C4         -1.8300   18.7870   34.5000 C.2       1 BAT1000     0.0000 
      5 C5         -2.5380   19.9700   34.5350 C.2       1 BAT1000     0.0000 
      6 C6         -2.1590   20.8150   35.6100 C.2       1 BAT1000     0.0000 
      7 C7         -1.1650   20.2600   36.3800 C.2       1 BAT1000     0.0000 
      8 C8         -3.6270   14.2320   35.0920 C.3       1 BAT1000     0.0000 
      9 C9         -5.0140   13.6870   34.8700 C.3       1 BAT1000     0.0000 
     10 C10        -5.2310   12.4460   35.6940 C.3       1 BAT1000     0.0000 
     11 C11        -4.9840   12.7510   37.1510 C.3       1 BAT1000     0.0000 
     12 C12        -6.6540   11.9870   35.5140 C.3       1 BAT1000     0.0000 
     13 C13        -2.6460   13.2240   34.5720 C.2       1 BAT1000     0.0000 
     14 C14        -0.6610   11.9400   35.2090 C.3       1 BAT1000     0.0000 
     15 C15        -1.2160   10.6030   35.5790 C.2       1 BAT1000     0.0000 
     16 C16        -1.7380    8.4240   34.6410 C.3       1 BAT1000     0.0000 
     17 C17         0.5400   12.1800   36.0910 C.3       1 BAT1000     0.0000 
     18 C18         1.0280   13.5660   35.8710 C.ar      1 BAT1000     0.0000 
     19 C19         0.9640   14.4860   36.8880 C.ar      1 BAT1000     0.0000 
     20 C20         1.4150   15.7670   36.6830 C.ar      1 BAT1000     0.0000 
     21 C21         1.9300   16.1280   35.4610 C.ar      1 BAT1000     0.0000 
     22 C22         1.9960   15.2070   34.4440 C.ar      1 BAT1000     0.0000 
     23 C23         1.5440   13.9270   34.6500 C.ar      1 BAT1000     0.0000 
     24 N1         -5.5180   16.7220   33.9890 N.am      1 BAT1000     0.0000 
     25 N2         -1.7100   12.8820   35.5240 N.am      1 BAT1000     0.0000 
     26 N3         -1.2460    9.7660   34.4950 N.am      1 BAT1000     0.0000 
     27 O1         -4.2280   17.1070   35.8780 O.2       1 BAT1000     0.0000 
     28 O2         -6.5370   17.4800   34.5610 O.3       1 BAT1000     0.0000 
     29 O3         -2.6960   12.7770   33.4360 O.2       1 BAT1000     0.0000 
     30 O4         -1.5680   10.3140   36.7130 O.2       1 BAT1000     0.0000 
     31 S1         -2.0160   17.5140   33.3370 S.3       1 BAT1000     0.0000 
     32 S2         -0.6960   18.7210   35.7900 S.3       1 BAT1000     0.0000 
     33 H          -3.7066   15.3057   33.2584 H         1 BAT1000     0.0000 
     34 H          -1.3350   15.4435   33.9940 H         1 BAT1000     0.0000 
     35 H          -1.8688   16.4555   35.3471 H         1 BAT1000     0.0000 
     36 H          -3.2336   20.2201   33.8944 H         1 BAT1000     0.0000 
     37 H          -2.5697   21.6829   35.7641 H         1 BAT1000     0.0000 
     38 H          -0.7018   20.5314   37.1345 H         1 BAT1000     0.0000 
     39 H          -3.4620   14.4295   36.1033 H         1 BAT1000     0.0000 
     40 H          -5.1464   13.4499   33.8121 H         1 BAT1000     0.0000 
     41 H          -5.7508   14.4433   35.1492 H         1 BAT1000     0.0000 
     42 H          -4.5651   11.6786   35.3692 H         1 BAT1000     0.0000 
     43 H          -0.3955   11.9525   34.2024 H         1 BAT1000     0.0000 
     44 H           1.3183   11.4639   35.8388 H         1 BAT1000     0.0000 
     45 H           0.2535   12.0439   37.1310 H         1 BAT1000     0.0000 
     46 H           0.5768   14.2151   37.8073 H         1 BAT1000     0.0000 
     47 H           1.3672   16.4607   37.4485 H         1 BAT1000     0.0000 
     48 H           2.2677   17.0930   35.3074 H         1 BAT1000     0.0000 
     49 H           2.3851   15.4772   33.5258 H         1 BAT1000     0.0000 
     50 H           1.5919   13.2325   33.8842 H         1 BAT1000     0.0000 
     51 H          -5.5689   16.3577   33.0733 H         1 BAT1000     0.0000 
     52 H          -1.7329   13.2809   36.4666 H         1 BAT1000     0.0000 
     53 H          -0.9255   10.0674   33.5710 H         1 BAT1000     0.0000 
     54 H          -4.0507   13.0729   37.3100 H         1 BAT1000     0.0000 
     55 H          -5.6008   13.4605   37.4917 H         1 BAT1000     0.0000 
     56 H          -5.1181   11.9447   37.7271 H         1 BAT1000     0.0000 
     57 H          -6.8592   11.7797   34.5575 H         1 BAT1000     0.0000 
     58 H          -6.8468   11.1594   36.0411 H         1 BAT1000     0.0000 
     59 H          -7.3088   12.6823   35.8102 H         1 BAT1000     0.0000 
     60 H          -1.7090    7.9217   33.7768 H         1 BAT1000     0.0000 
     61 H          -1.2000    7.9011   35.3021 H         1 BAT1000     0.0000 
     62 H          -2.6865    8.4085   34.9573 H         1 BAT1000     0.0000 
     63 H          -7.3002   17.4144   33.9182 H         1 BAT1000     0.0000 
@<TRIPOS>BOND
     1    2    1 1    
     2    3    1 1    
     3    8    1 1    
     4   33    1 1    
     5   24    2 am   
     6   27    2 2    
     7   31    3 1    
     8   34    3 1    
     9   35    3 1    
    10    5    4 2    
    11   31    4 1    
    12   32    4 1    
    13    6    5 1    
    14   36    5 1    
    15    7    6 2    
    16   37    6 1    
    17   32    7 1    
    18   38    7 1    
    19    9    8 1    
    20   13    8 1    
    21   39    8 1    
    22   10    9 1    
    23   40    9 1    
    24   41    9 1    
    25   11   10 1    
    26   12   10 1    
    27   42   10 1    
    28   54   11 1    
    29   55   11 1    
    30   56   11 1    
    31   57   12 1    
    32   58   12 1    
    33   59   12 1    
    34   25   13 am   
    35   29   13 2    
    36   15   14 1    
    37   17   14 1    
    38   25   14 1    
    39   43   14 1    
    40   26   15 am   
    41   30   15 2    
    42   26   16 1    
    43   60   16 1    
    44   61   16 1    
    45   62   16 1    
    46   18   17 1    
    47   44   17 1    
    48   45   17 1    
    49   19   18 ar   
    50   23   18 ar   
    51   20   19 ar   
    52   46   19 1    
    53   21   20 ar   
    54   47   20 1    
    55   22   21 ar   
    56   48   21 1    
    57   23   22 ar   
    58   49   22 1    
    59   50   23 1    
    60   28   24 1    
    61   51   24 1    
    62   52   25 1    
    63   53   26 1    
    64   63   28 1    
@<TRIPOS>SUBSTRUCTURE
     1 BAT1000     1 GROUP   
@<TRIPOS>SET

