#    Name: 2uuv_FAD_4_INTS_M
#    Modification time : Tue Mar 25 00:20:50 2014

@<TRIPOS>MOLECULE
2uuv_FAD_4_INTS_M
  130     0     9     0     0
SMALL
NO_CHARGES


@<TRIPOS>ATOM
      1 N         -21.6175   66.0700  -31.6760 N.am      2 SEC2        0.0000 
      2 N         -23.1510   66.1630  -31.7670 N.am      8 SEL2        0.0000 
      3 N         -20.0840   65.9770  -31.5850 N.am      5 SEP2        0.0000 
      4 N         -22.7920   64.7970  -31.4810 N.am      2 SEC2        0.0000 
      5 N         -22.4330   63.4310  -31.1950 N.am      5 SEP2        0.0000 
      6 N         -26.4135   67.6250  -33.3675 N.am      2 SEC2        0.0000 
      7 N         -25.2860   67.0390  -32.8370 N.am      8 SEL2        0.0000 
      8 N         -27.5410   68.2110  -33.8980 N.am      5 SEP2        0.0000 
      9 N         -24.4000   67.2435  -33.9475 N.am      2 SEC2        0.0000 
     10 N         -23.5140   67.4480  -35.0580 N.am      5 SEP2        0.0000 
     11 CA        -22.9210   65.3525  -29.3955 C.3       3 GLC5        0.0000 
     12 CA        -24.7620   65.9650  -29.1520 C.3       9 GLL5        0.0000 
     13 CA        -21.0800   64.7400  -29.6390 C.3       6 GLP5        0.0000 
     14 CA        -25.4305   64.5435  -30.7245 C.3       3 GLC5        0.0000 
     15 CA        -26.0990   63.1220  -32.2970 C.3       6 GLP5        0.0000 
     16 O         -29.2500   64.1575  -30.6745 O.2       1 ALC1        0.0000 
     17 O         -28.9090   63.9350  -29.3700 O.2       7 ALL1        0.0000 
     18 O         -29.5910   64.3800  -31.9790 O.2       4 ALP1        0.0000 
     19 CA        -28.2980   67.1825  -27.0480 C.3       3 GLC5        0.0000 
     20 CA        -28.0880   65.9780  -28.4470 C.3       9 GLL5        0.0000 
     21 CA        -28.5080   68.3870  -25.6490 C.3       6 GLP5        0.0000 
     22 CA        -28.0905   65.1145  -26.5450 C.3       3 GLC5        0.0000 
     23 CA        -28.0930   64.2510  -24.6430 C.3       6 GLP5        0.0000 
     24 CA        -29.7685   64.8925  -27.4280 C.3       3 GLC5        0.0000 
     25 CA        -31.4490   63.8070  -26.4090 C.3       6 GLP5        0.0000 
     26 CA        -32.6430   70.4675  -27.8775 C.3       3 GLC5        0.0000 
     27 CA        -31.6210   69.2030  -29.2410 C.3       9 GLL5        0.0000 
     28 CA        -33.6650   71.7320  -26.5140 C.3       6 GLP5        0.0000 
     29 O         -33.3145   70.9795  -29.6640 O.2       1 ALC1        0.0000 
     30 O         -32.0490   70.3100  -29.8930 O.2       7 ALL1        0.0000 
     31 O         -34.5800   71.6490  -29.4350 O.2       4 ALP1        0.0000 
     32 N         -33.6655   69.2360  -27.8095 N.am      2 SEC2        0.0000 
     33 N         -32.3790   68.6870  -28.2140 N.am      8 SEL2        0.0000 
     34 N         -34.9520   69.7850  -27.4050 N.am      5 SEP2        0.0000 
     35 CA        -32.1550   66.3340  -28.7335 C.3       3 GLC5        0.0000 
     36 CA        -32.0040   67.6430  -27.4230 C.3       9 GLL5        0.0000 
     37 CA        -32.3060   65.0250  -30.0440 C.3       6 GLP5        0.0000 
     38 CA        -30.2560   68.0150  -26.5360 C.3       3 GLC5        0.0000 
     39 CA        -31.7265   65.7250  -26.9160 C.3       3 GLC5        0.0000 
     40 CA        -33.9765   67.6575  -27.7620 C.3       3 GLC5        0.0000 
     41 CA        -35.9490   67.6720  -28.1010 C.3       6 GLP5        0.0000 
     42 CA        -32.6565   69.2785  -26.3430 C.3       3 GLC5        0.0000 
     43 CA        -33.3090   70.9140  -25.2630 C.3       6 GLP5        0.0000 
     44 CA        -31.1625   66.2685  -29.3555 C.3       3 GLC5        0.0000 
     45 CA        -30.0190   67.5120  -28.6670 C.3       9 GLL5        0.0000 
     46 N         -17.9875   71.7860  -23.2925 N.am      2 SEC2        0.0000 
     47 N         -17.5850   70.7510  -24.2180 N.am      8 SEL2        0.0000 
     48 N         -18.3900   72.8210  -22.3670 N.am      5 SEP2        0.0000 
     49 O         -16.3860   73.2305  -24.5475 O.2       1 ALC1        0.0000 
     50 O         -15.8680   71.9100  -25.1300 O.2       7 ALL1        0.0000 
     51 O         -16.9040   74.5510  -23.9650 O.2       4 ALP1        0.0000 
     52 O         -15.6570   72.3905  -23.6875 O.2       1 ALC1        0.0000 
     53 O         -15.4460   72.8710  -22.2450 O.2       4 ALP1        0.0000 
     54 N         -14.1375   73.8000  -27.2680 N.am      2 SEC2        0.0000 
     55 N         -14.1090   72.9120  -26.1990 N.am      8 SEL2        0.0000 
     56 N         -14.1660   74.6880  -28.3370 N.am      5 SEP2        0.0000 
     57 N         -13.2550   73.9605  -25.4155 N.am      2 SEC2        0.0000 
     58 N         -12.4010   75.0090  -24.6320 N.am      5 SEP2        0.0000 
     59 CA        -14.2080   70.0460  -33.7305 C.3       3 GLC5        0.0000 
     60 CA        -12.6690   69.5330  -32.6120 C.3       9 GLL5        0.0000 
     61 CA        -15.7470   70.5590  -34.8490 C.3       6 GLP5        0.0000 
     62 CA        -11.7220   70.1825  -33.8390 C.3       3 GLC5        0.0000 
     63 CA        -10.7750   70.8320  -35.0660 C.3       6 GLP5        0.0000 
     64 CA        -15.2550   68.3215  -33.9405 C.3       3 GLC5        0.0000 
     65 CA        -14.7800   67.4200  -32.6120 C.3       9 GLL5        0.0000 
     66 CA        -15.7300   69.2230  -35.2690 C.3       6 GLP5        0.0000 
     67 CA        -15.6120   66.2860  -33.9200 C.3       3 GLC5        0.0000 
     68 CA        -16.4440   65.1520  -35.2280 C.3       6 GLP5        0.0000 
     69 CA        -17.7700   70.4220  -30.1330 C.3       3 GLC5        0.0000 
     70 CA        -18.7830   68.8920  -28.9290 C.3       9 GLL5        0.0000 
     71 CA        -16.7570   71.9520  -31.3370 C.3       6 GLP5        0.0000 
     72 N         -17.8995   70.9785  -30.0360 N.am      2 SEC2        0.0000 
     73 N         -18.4860   69.7850  -30.0030 N.am      8 SEL2        0.0000 
     74 N         -17.3130   72.1720  -30.0690 N.am      5 SEP2        0.0000 
     75 O         -19.1115   69.6170  -31.1375 O.2       1 ALC1        0.0000 
     76 O         -18.4860   69.7850  -30.0030 O.2       7 ALL1        0.0000 
     77 O         -19.7370   69.4490  -32.2720 O.2       4 ALP1        0.0000 
     78 CA        -21.6920   72.1560  -28.4735 C.3       3 GLC5        0.0000 
     79 CA        -20.9770   70.2630  -28.6270 C.3       9 GLL5        0.0000 
     80 CA        -22.4070   74.0490  -28.3200 C.3       6 GLP5        0.0000 
     81 O         -22.3545   70.1875  -26.3700 O.2       1 ALC1        0.0000 
     82 O         -21.7410   70.8220  -27.6000 O.2       7 ALL1        0.0000 
     83 O         -22.9680   69.5530  -25.1400 O.2       4 ALP1        0.0000 
     84 CA        -23.9655   70.0105  -29.1185 C.3       3 GLC5        0.0000 
     85 CA        -21.8850   69.3640  -29.4460 C.3       9 GLL5        0.0000 
     86 CA        -26.0460   70.6570  -28.7910 C.3       6 GLP5        0.0000 
     87 N         -24.6110   70.2810  -33.4015 N.am      2 SEC2        0.0000 
     88 N         -24.3860   70.6960  -31.9640 N.am      8 SEL2        0.0000 
     89 N         -24.8360   69.8660  -34.8390 N.am      5 SEP2        0.0000 
     90 N         -24.2115   72.0640  -32.2085 N.am      2 SEC2        0.0000 
     91 N         -24.0370   73.4320  -32.4530 N.am      5 SEP2        0.0000 
     92 N         -25.6080   71.5425  -32.0855 N.am      2 SEC2        0.0000 
     93 N         -26.8300   72.3890  -32.2070 N.am      5 SEP2        0.0000 
     94 N         -21.7030   68.1925  -33.1830 N.am      2 SEC2        0.0000 
     95 N         -22.4010   69.2050  -32.4720 N.am      8 SEL2        0.0000 
     96 N         -21.0050   67.1800  -33.8940 N.am      5 SEP2        0.0000 
     97 N         -21.0690   69.3270  -32.3720 N.am      2 SEC2        0.0000 
     98 N         -19.7370   69.4490  -32.2720 N.am      5 SEP2        0.0000 
     99 CA        -24.5360   66.5560  -27.2540 C.3       3 GLC5        0.0000 
    100 CA        -25.8320   65.4410  -28.1940 C.3       9 GLL5        0.0000 
    101 CA        -23.7750   67.4090  -25.8350 C.3       6 GLP5        0.0000 
    102 CA        -27.1330   64.5422  -26.5725 C.3       3 GLC5        0.0000 
    103 CA        -24.9893   63.3608  -28.3563 C.3       3 GLC5        0.0000 
    104 CA        -26.5140   64.2260  -28.8100 C.3       9 GLL5        0.0000 
    105 CA        -24.0730   61.7570  -27.9710 C.3       6 GLP5        0.0000 
    106 CA        -26.6295   63.8212  -30.7052 C.3       3 GLC5        0.0000 
    107 CA        -31.7040   67.3545  -30.3485 C.3       3 GLC5        0.0000 
    108 CA        -30.3830   68.6070  -29.4550 C.3       9 GLL5        0.0000 
    109 CA        -32.4060   65.8040  -31.3490 C.3       6 GLP5        0.0000 
    110 CA        -29.3545   68.2233  -27.3550 C.3       3 GLC5        0.0000 
    111 CA        -12.9865   72.0397  -29.5365 C.3       3 GLC5        0.0000 
    112 CA        -14.4280   70.2340  -29.3570 C.3       9 GLL5        0.0000 
    113 CA        -11.9960   73.8160  -29.1870 C.3       6 GLP5        0.0000 
    114 CA        -15.3670   71.1077  -30.6115 C.3       3 GLC5        0.0000 
    115 CA        -13.5260   70.2930  -30.4150 C.3       9 GLL5        0.0000 
    116 CA        -15.4507   70.4240  -31.4083 C.3       3 GLC5        0.0000 
    117 CA        -13.6340   69.3910  -31.4790 C.3       9 GLL5        0.0000 
    118 CA        -15.1334   66.2714  -30.9095 C.3       3 GLC5        0.0000 
    119 CA        -14.6550   68.4010  -31.4800 C.3       9 GLL5        0.0000 
    120 CA        -15.1420   64.4170  -30.5980 C.3       6 GLP5        0.0000 
    121 CA        -16.1180   70.3768  -30.6005 C.3       3 GLC5        0.0000 
    122 CA        -15.5320   68.3410  -30.3960 C.3       9 GLL5        0.0000 
    123 CA        -18.9720   66.9380  -29.4565 C.3       3 GLC5        0.0000 
    124 CA        -17.5170   68.3200  -28.2230 C.3       9 GLL5        0.0000 
    125 CA        -19.7940   65.2700  -30.3370 C.3       6 GLP5        0.0000 
    126 CA        -20.3618   70.9200  -26.5490 C.3       3 GLC5        0.0000 
    127 CA        -19.7740   69.5270  -27.9690 C.3       9 GLL5        0.0000 
    128 CA        -20.3480   71.9450  -24.8000 C.3       6 GLP5        0.0000 
    129 CA        -21.2355   71.1988  -30.5368 C.3       3 GLC5        0.0000 
    130 CA        -21.0400   72.5840  -32.0370 C.3       6 GLP5        0.0000 
@<TRIPOS>BOND
@<TRIPOS>SUBSTRUCTURE
     1 ALC1       16 GROUP        1 X    ALC  0     ROOT ALC X 1
     2 SEC2        1 GROUP        1 X    SEC  0     **** SEC X 2
     3 GLC5       11 GROUP        1 X    GLC  0     **** GLC X 6
     4 ALP1       18 GROUP        1 Y    ALP  0     ROOT ALP Y 8
     5 SEP2        3 GROUP        1 Y    SEP  0     **** SEP Y 9
     6 GLP5       13 GROUP        1 Y    GLP  0     **** GLP Y 13
     7 ALL1       17 GROUP        1 Z    ALL  0     ROOT ALL Z 15
     8 SEL2        2 GROUP        1 Z    SEL  0     **** SEL Z 16
     9 GLL5       12 GROUP        1 Z    GLL  0     **** GLL Z 20
@<TRIPOS>SET

