#    Name: 2uuv_FAD_4_ligand
#    Modification time : Tue Mar 25 00:20:51 2014

@<TRIPOS>MOLECULE
2uuv_FAD_4_ligand
   84    89     1     0     0
SMALL
NO_CHARGES


@<TRIPOS>ATOM
      1 PA        -24.4430   66.8840  -31.5790 P.3       1 FAD1585     0.0000 
      2 O1A       -23.1510   66.1630  -31.7670 O.co2     1 FAD1585     0.0000 
      3 O2A       -25.2860   67.0390  -32.8370 O.co2     1 FAD1585     0.0000 
      4 O5B       -25.2990   66.1630  -30.4750 O.3       1 FAD1585     0.0000 
      5 C5B       -24.7620   65.9650  -29.1520 C.3       1 FAD1585     0.0000 
      6 C4B       -25.8320   65.4410  -28.1940 C.3       1 FAD1585     0.0000 
      7 O4B       -26.8210   66.4240  -27.9790 O.3       1 FAD1585     0.0000 
      8 C3B       -26.5140   64.2260  -28.8100 C.3       1 FAD1585     0.0000 
      9 O3B       -26.9410   63.4410  -27.7530 O.3       1 FAD1585     0.0000 
     10 C2B       -27.8060   64.8150  -29.4170 C.3       1 FAD1585     0.0000 
     11 O2B       -28.9090   63.9350  -29.3700 O.3       1 FAD1585     0.0000 
     12 C1B       -28.0880   65.9780  -28.4470 C.3       1 FAD1585     0.0000 
     13 N9A       -28.7850   67.0940  -29.0850 N.pl3     1 FAD1585     0.0000 
     14 C8A       -28.4210   67.8660  -30.1420 C.2       1 FAD1585     0.0000 
     15 N7A       -29.3800   68.7840  -30.3500 N.2       1 FAD1585     0.0000 
     16 C5A       -30.3830   68.6070  -29.4550 C.ar      1 FAD1585     0.0000 
     17 C6A       -31.6210   69.2030  -29.2410 C.ar      1 FAD1585     0.0000 
     18 N6A       -32.0490   70.3100  -29.8930 N.pl3     1 FAD1585     0.0000 
     19 N1A       -32.3790   68.6870  -28.2140 N.ar      1 FAD1585     0.0000 
     20 C2A       -32.0040   67.6430  -27.4230 C.ar      1 FAD1585     0.0000 
     21 N3A       -30.7890   67.0140  -27.6780 N.ar      1 FAD1585     0.0000 
     22 C4A       -30.0190   67.5120  -28.6670 C.ar      1 FAD1585     0.0000 
     23 N1        -17.0010   70.0410  -26.1640 N.2       1 FAD1585     0.0000 
     24 C2        -16.8260   70.8920  -25.1310 C.2       1 FAD1585     0.0000 
     25 O2        -17.5850   70.7510  -24.2180 O.2       1 FAD1585     0.0000 
     26 N3        -15.8680   71.9100  -25.1300 N.am      1 FAD1585     0.0000 
     27 C4        -14.9860   72.0150  -26.1850 C.2       1 FAD1585     0.0000 
     28 O4        -14.1090   72.9120  -26.1990 O.2       1 FAD1585     0.0000 
     29 C4X       -15.1240   71.0950  -27.2310 C.2       1 FAD1585     0.0000 
     30 N5        -14.3070   71.1530  -28.3200 N.2       1 FAD1585     0.0000 
     31 C5X       -14.4280   70.2340  -29.3570 C.ar      1 FAD1585     0.0000 
     32 C6        -13.5260   70.2930  -30.4150 C.ar      1 FAD1585     0.0000 
     33 C7        -13.6340   69.3910  -31.4790 C.ar      1 FAD1585     0.0000 
     34 C7M       -12.6690   69.5330  -32.6120 C.3       1 FAD1585     0.0000 
     35 C8        -14.6550   68.4010  -31.4800 C.ar      1 FAD1585     0.0000 
     36 C8M       -14.7800   67.4200  -32.6120 C.3       1 FAD1585     0.0000 
     37 C9        -15.5320   68.3410  -30.3960 C.ar      1 FAD1585     0.0000 
     38 C9A       -15.4260   69.2620  -29.3320 C.ar      1 FAD1585     0.0000 
     39 N10       -16.3010   69.2280  -28.2440 N.pl3     1 FAD1585     0.0000 
     40 C10       -16.1390   70.1130  -27.2170 C.2       1 FAD1585     0.0000 
     41 C1'       -17.5170   68.3200  -28.2230 C.3       1 FAD1585     0.0000 
     42 C2'       -18.7830   68.8920  -28.9290 C.3       1 FAD1585     0.0000 
     43 O2'       -18.4860   69.7850  -30.0030 O.3       1 FAD1585     0.0000 
     44 C3'       -19.7740   69.5270  -27.9690 C.3       1 FAD1585     0.0000 
     45 O3'       -20.2400   68.5170  -27.0830 O.3       1 FAD1585     0.0000 
     46 C4'       -20.9770   70.2630  -28.6270 C.3       1 FAD1585     0.0000 
     47 O4'       -21.7410   70.8220  -27.6000 O.3       1 FAD1585     0.0000 
     48 C5'       -21.8850   69.3640  -29.4460 C.3       1 FAD1585     0.0000 
     49 O5'       -22.7470   70.1570  -30.2280 O.3       1 FAD1585     0.0000 
     50 P         -23.4900   69.6060  -31.5190 P.3       1 FAD1585     0.0000 
     51 O1P       -24.3860   70.6960  -31.9640 O.co2     1 FAD1585     0.0000 
     52 O2P       -22.4010   69.2050  -32.4720 O.co2     1 FAD1585     0.0000 
     53 O3P       -24.2150   68.2940  -30.8460 O.3       1 FAD1585     0.0000 
     54 H         -24.3686   66.9045  -28.7356 H         1 FAD1585     0.0000 
     55 H         -23.9343   65.2400  -29.1609 H         1 FAD1585     0.0000 
     56 H         -25.3603   65.1356  -27.2839 H         1 FAD1585     0.0000 
     57 H         -25.9504   63.7984  -29.5179 H         1 FAD1585     0.0000 
     58 H         -27.5878   65.2266  -30.3510 H         1 FAD1585     0.0000 
     59 H         -28.6688   65.5827  -27.6289 H         1 FAD1585     0.0000 
     60 H         -27.6077   67.7650  -30.6526 H         1 FAD1585     0.0000 
     61 H         -31.4134   70.7024  -30.5578 H         1 FAD1585     0.0000 
     62 H         -32.9628   70.6370  -29.6519 H         1 FAD1585     0.0000 
     63 H         -32.5948   67.3174  -26.6528 H         1 FAD1585     0.0000 
     64 H         -15.8282   72.5703  -24.3459 H         1 FAD1585     0.0000 
     65 H         -12.7792   70.9981  -30.4179 H         1 FAD1585     0.0000 
     66 H         -16.2657   67.6204  -30.3659 H         1 FAD1585     0.0000 
     67 H         -17.7869   68.0888  -27.1761 H         1 FAD1585     0.0000 
     68 H         -17.2662   67.3562  -28.7032 H         1 FAD1585     0.0000 
     69 H         -19.3150   67.9897  -29.3589 H         1 FAD1585     0.0000 
     70 H         -19.2203   70.2863  -27.3801 H         1 FAD1585     0.0000 
     71 H         -20.5750   71.0340  -29.2712 H         1 FAD1585     0.0000 
     72 H         -22.4355   68.7196  -28.7475 H         1 FAD1585     0.0000 
     73 H         -21.2467   68.7160  -30.0615 H         1 FAD1585     0.0000 
     74 H         -11.7218   69.4302  -32.3082 H         1 FAD1585     0.0000 
     75 H         -12.8255   68.8458  -33.3214 H         1 FAD1585     0.0000 
     76 H         -12.7405   70.4288  -33.0507 H         1 FAD1585     0.0000 
     77 H         -13.9548   66.8646  -32.7149 H         1 FAD1585     0.0000 
     78 H         -15.5430   66.7885  -32.4737 H         1 FAD1585     0.0000 
     79 H         -14.9349   67.8797  -33.4865 H         1 FAD1585     0.0000 
     80 H         -27.9213   63.3144  -27.9043 H         1 FAD1585     0.0000 
     81 H         -29.2796   63.9349  -30.2988 H         1 FAD1585     0.0000 
     82 H         -19.0820   69.4959  -30.7521 H         1 FAD1585     0.0000 
     83 H         -19.7786   68.7012  -26.2151 H         1 FAD1585     0.0000 
     84 H         -21.9497   70.0591  -26.9882 H         1 FAD1585     0.0000 
@<TRIPOS>BOND
     1    2    1 ar   
     2    3    1 ar   
     3    4    1 1    
     4   53    1 1    
     5    5    4 1    
     6    6    5 1    
     7   54    5 1    
     8   55    5 1    
     9    7    6 1    
    10    8    6 1    
    11   56    6 1    
    12   12    7 1    
    13    9    8 1    
    14   10    8 1    
    15   57    8 1    
    16   80    9 1    
    17   11   10 1    
    18   12   10 1    
    19   58   10 1    
    20   81   11 1    
    21   13   12 1    
    22   59   12 1    
    23   14   13 1    
    24   22   13 1    
    25   15   14 2    
    26   60   14 1    
    27   16   15 1    
    28   17   16 ar   
    29   22   16 ar   
    30   18   17 1    
    31   19   17 ar   
    32   61   18 1    
    33   62   18 1    
    34   20   19 ar   
    35   21   20 ar   
    36   63   20 1    
    37   22   21 ar   
    38   24   23 1    
    39   40   23 2    
    40   25   24 2    
    41   26   24 am   
    42   27   26 am   
    43   64   26 1    
    44   28   27 2    
    45   29   27 1    
    46   30   29 2    
    47   40   29 1    
    48   31   30 1    
    49   32   31 ar   
    50   38   31 ar   
    51   33   32 ar   
    52   65   32 1    
    53   34   33 1    
    54   35   33 ar   
    55   74   34 1    
    56   75   34 1    
    57   76   34 1    
    58   36   35 1    
    59   37   35 ar   
    60   77   36 1    
    61   78   36 1    
    62   79   36 1    
    63   38   37 ar   
    64   66   37 1    
    65   39   38 1    
    66   40   39 1    
    67   41   39 1    
    68   42   41 1    
    69   67   41 1    
    70   68   41 1    
    71   43   42 1    
    72   44   42 1    
    73   69   42 1    
    74   82   43 1    
    75   45   44 1    
    76   46   44 1    
    77   70   44 1    
    78   83   45 1    
    79   47   46 1    
    80   48   46 1    
    81   71   46 1    
    82   84   47 1    
    83   49   48 1    
    84   72   48 1    
    85   73   48 1    
    86   50   49 1    
    87   51   50 ar   
    88   52   50 ar   
    89   53   50 1    
@<TRIPOS>SUBSTRUCTURE
     1 FAD1585     1 GROUP   
@<TRIPOS>SET

