#    Name: 2jc1_698_1_INTS_M
#    Modification time : Tue Mar 25 19:56:53 2014

@<TRIPOS>MOLECULE
2jc1_698_1_INTS_M
   54     0     6     0     0
SMALL
NO_CHARGES


@<TRIPOS>ATOM
      1 CA          8.0170   41.5660   49.3220 C.3       2 GLC5        0.0000 
      2 CA          9.6260   42.1720   49.0130 C.3       6 GLL5        0.0000 
      3 CA          6.4080   40.9600   49.6310 C.3       4 GLP5        0.0000 
      4 CA          7.6745   42.6220   48.2530 C.3       2 GLC5        0.0000 
      5 CA          9.6090   43.3600   48.2830 C.3       6 GLL5        0.0000 
      6 CA          5.7400   41.8840   48.2230 C.3       4 GLP5        0.0000 
      7 CA         13.5630   47.2705   56.3230 C.3       2 GLC5        0.0000 
      8 CA         12.7210   45.8660   54.9870 C.3       6 GLL5        0.0000 
      9 CA         14.4050   48.6750   57.6590 C.3       4 GLP5        0.0000 
     10 CA         13.2775   45.5255   57.0125 C.3       2 GLC5        0.0000 
     11 CA         13.8340   45.1850   59.0380 C.3       4 GLP5        0.0000 
     12 CA         11.1375   46.7150   55.6615 C.3       2 GLC5        0.0000 
     13 CA          9.5540   47.5640   56.3360 C.3       4 GLP5        0.0000 
     14 CA         17.2550   45.7710   55.3255 C.3       2 GLC5        0.0000 
     15 CA         15.2260   45.9310   54.8530 C.3       6 GLL5        0.0000 
     16 CA         19.2840   45.6110   55.7980 C.3       4 GLP5        0.0000 
     17 CA         14.8155   47.3030   56.2560 C.3       2 GLC5        0.0000 
     18 CA         14.5300   45.5580   56.9455 C.3       2 GLC5        0.0000 
     19 N          12.8285   48.9970   49.4590 N.am      1 SEC2        0.0000 
     20 N          13.4580   48.1010   50.4580 N.am      5 SEL2        0.0000 
     21 N          12.1990   49.8930   48.4600 N.am      3 SEP2        0.0000 
     22 N          12.1640   48.3520   48.9910 N.am      1 SEC2        0.0000 
     23 N          12.1290   46.8110   49.5220 N.am      5 SEL2        0.0000 
     24 N          10.5505   48.3880   51.4505 N.am      1 SEC2        0.0000 
     25 N          10.7620   47.2120   52.3060 N.am      5 SEL2        0.0000 
     26 N          10.3390   49.5640   50.5950 N.am      3 SEP2        0.0000 
     27 CA          3.7445   42.3645   52.6595 C.3       2 GLC5        0.0000 
     28 CA          5.5510   41.9360   53.1810 C.3       6 GLL5        0.0000 
     29 CA          1.9380   42.7930   52.1380 C.3       4 GLP5        0.0000 
     30 CA          5.9795   41.4480   51.4060 C.3       2 GLC5        0.0000 
     31 CA          5.9705   40.1535   53.6740 C.3       2 GLC5        0.0000 
     32 CA          6.3900   38.3710   54.1670 C.3       4 GLP5        0.0000 
     33 CA          6.3230   40.4105   54.8225 C.3       2 GLC5        0.0000 
     34 CA          6.2560   42.4500   55.4780 C.3       6 GLL5        0.0000 
     35 CA          4.9795   41.3005   56.3695 C.3       2 GLC5        0.0000 
     36 CA          3.7030   40.1510   57.2610 C.3       4 GLP5        0.0000 
     37 CA          7.5065   41.4970   56.3340 C.3       2 GLC5        0.0000 
     38 CA          8.7570   40.5440   57.1900 C.3       4 GLP5        0.0000 
     39 CA          4.2845   44.9295   55.8630 C.3       2 GLC5        0.0000 
     40 CA          4.9260   44.1960   54.2050 C.3       6 GLL5        0.0000 
     41 CA          3.6430   45.6630   57.5210 C.3       4 GLP5        0.0000 
     42 CA          3.4320   43.4945   53.1715 C.3       2 GLC5        0.0000 
     43 CA          6.1420   45.7940   54.4665 C.3       2 GLC5        0.0000 
     44 CA          7.3580   47.3920   54.7280 C.3       4 GLP5        0.0000 
     45 CA          8.1715   46.3418   53.5635 C.3       2 GLC5        0.0000 
     46 CA          8.3910   45.3320   52.0440 C.3       6 GLL5        0.0000 
     47 CA          7.3117   45.8238   53.8905 C.3       2 GLC5        0.0000 
     48 CA          7.2550   44.6590   52.4740 C.3       6 GLL5        0.0000 
     49 CA          9.2050   45.1767   55.5883 C.3       2 GLC5        0.0000 
     50 CA          8.4930   43.7700   54.3280 C.3       6 GLL5        0.0000 
     51 CA          9.3470   46.2390   57.0620 C.3       4 GLP5        0.0000 
     52 CA          3.7761   42.4120   54.8208 C.3       2 GLC5        0.0000 
     53 CA          6.0140   43.1080   54.1030 C.3       6 GLL5        0.0000 
     54 CA          2.1980   41.4650   55.7180 C.3       4 GLP5        0.0000 
@<TRIPOS>BOND
@<TRIPOS>SUBSTRUCTURE
     1 SEC2       19 GROUP        1 X    SEC  0     ROOT SEC X 2
     2 GLC5        1 GROUP        1 X    GLC  0     **** GLC X 6
     3 SEP2       21 GROUP        1 Y    SEP  0     ROOT SEP Y 9
     4 GLP5        3 GROUP        1 Y    GLP  0     **** GLP Y 13
     5 SEL2       20 GROUP        1 Z    SEL  0     ROOT SEL Z 16
     6 GLL5        2 GROUP        1 Z    GLL  0     **** GLL Z 20
@<TRIPOS>SET

