#    Name: 2jc1_698_1_ligand
#    Modification time : Tue Mar 25 19:56:53 2014

@<TRIPOS>MOLECULE
2jc1_698_1_ligand
   60    62     1     0     0
SMALL
NO_CHARGES


@<TRIPOS>ATOM
      1 O24        14.4150   42.2490   49.6710 O.co2     1 698600      0.0000 
      2 C22        13.5990   42.2240   50.5450 C.2       1 698600      0.0000 
      3 O1         12.9670   41.1850   50.8000 O.co2     1 698600      0.0000 
      4 C15        13.2920   43.4870   51.3790 C.3       1 698600      0.0000 
      5 C14        11.8000   43.8180   51.5600 C.3       1 698600      0.0000 
      6 C20        10.9250   43.4490   50.3490 C.2       1 698600      0.0000 
      7 N1         10.3440   42.2300   50.1590 N.2       1 698600      0.0000 
      8 C28         9.6260   42.1720   49.0130 C.2       1 698600      0.0000 
      9 C27         9.6090   43.3600   48.2830 C.2       1 698600      0.0000 
     10 S1         10.5260   44.5200   49.0910 S.3       1 698600      0.0000 
     11 C16        13.9380   44.7790   50.8630 C.3       1 698600      0.0000 
     12 C17        13.1220   45.9150   51.5080 C.3       1 698600      0.0000 
     13 C33        13.8510   46.4910   52.7660 C.3       1 698600      0.0000 
     14 C37        13.9390   45.6330   54.0660 C.3       1 698600      0.0000 
     15 C40        12.7210   45.8660   54.9870 C.3       1 698600      0.0000 
     16 C44        15.2260   45.9310   54.8530 C.3       1 698600      0.0000 
     17 C34        12.9130   47.0350   50.4310 C.2       1 698600      0.0000 
     18 O35        13.4580   48.1010   50.4580 O.co2     1 698600      0.0000 
     19 O36        12.1290   46.8110   49.5220 O.co2     1 698600      0.0000 
     20 N12        11.8220   45.2700   51.8230 N.am      1 698600      0.0000 
     21 C11        10.7570   45.9900   52.2820 C.2       1 698600      0.0000 
     22 O13        10.7620   47.2120   52.3060 O.2       1 698600      0.0000 
     23 C5          9.5790   45.2510   52.7540 C.ar      1 698600      0.0000 
     24 C4          8.3910   45.3320   52.0440 C.ar      1 698600      0.0000 
     25 C3          7.2550   44.6590   52.4740 C.ar      1 698600      0.0000 
     26 C6          9.6330   44.4590   53.9010 C.ar      1 698600      0.0000 
     27 C1          8.4930   43.7700   54.3280 C.ar      1 698600      0.0000 
     28 C2          7.2760   43.8520   53.6320 C.ar      1 698600      0.0000 
     29 C51         6.0140   43.1080   54.1030 C.3       1 698600      0.0000 
     30 C9          5.5510   41.9360   53.1810 C.3       1 698600      0.0000 
     31 C8          6.2560   42.4500   55.4780 C.3       1 698600      0.0000 
     32 C7          4.9260   44.1960   54.2050 C.3       1 698600      0.0000 
     33 H          13.6964   43.3343   52.4068 H         1 698600      0.0000 
     34 H          11.4578   43.3056   52.4395 H         1 698600      0.0000 
     35 H           9.1431   41.3595   48.6994 H         1 698600      0.0000 
     36 H           9.2255   43.6216   47.5037 H         1 698600      0.0000 
     37 H          13.8445   44.8306   49.8059 H         1 698600      0.0000 
     38 H          14.9462   44.8340   51.1937 H         1 698600      0.0000 
     39 H          13.3669   47.4680   53.0272 H         1 698600      0.0000 
     40 H          14.8940   46.7688   52.4624 H         1 698600      0.0000 
     41 H          13.9500   44.5863   53.7824 H         1 698600      0.0000 
     42 H           8.3491   45.9024   51.1803 H         1 698600      0.0000 
     43 H           6.3720   44.7442   51.9427 H         1 698600      0.0000 
     44 H          10.5071   44.3808   54.4321 H         1 698600      0.0000 
     45 H           8.5455   43.1824   55.1809 H         1 698600      0.0000 
     46 H          12.7737   45.3141   55.8193 H         1 698600      0.0000 
     47 H          12.6491   46.8215   55.2730 H         1 698600      0.0000 
     48 H          11.8617   45.6304   54.5331 H         1 698600      0.0000 
     49 H          16.0449   45.7358   54.3133 H         1 698600      0.0000 
     50 H          15.2787   46.8907   55.1290 H         1 698600      0.0000 
     51 H          15.2868   45.3824   55.6869 H         1 698600      0.0000 
     52 H           6.2544   41.2303   53.0959 H         1 698600      0.0000 
     53 H           4.7286   41.4891   53.5331 H         1 698600      0.0000 
     54 H           5.3397   42.2523   52.2562 H         1 698600      0.0000 
     55 H           7.0032   41.7861   55.4457 H         1 698600      0.0000 
     56 H           6.4939   43.1253   56.1762 H         1 698600      0.0000 
     57 H           5.4457   41.9636   55.8047 H         1 698600      0.0000 
     58 H           5.1752   44.9103   54.8589 H         1 698600      0.0000 
     59 H           4.7670   44.6457   53.3261 H         1 698600      0.0000 
     60 H           4.0497   43.8180   54.5037 H         1 698600      0.0000 
@<TRIPOS>BOND
     1    2    1 ar   
     2    3    2 ar   
     3    4    2 1    
     4    5    4 1    
     5   11    4 1    
     6   33    4 1    
     7    6    5 1    
     8   20    5 1    
     9   34    5 1    
    10    7    6 2    
    11   10    6 1    
    12    8    7 1    
    13    9    8 2    
    14   35    8 1    
    15   10    9 1    
    16   36    9 1    
    17   12   11 1    
    18   37   11 1    
    19   38   11 1    
    20   13   12 1    
    21   17   12 1    
    22   20   12 1    
    23   14   13 1    
    24   39   13 1    
    25   40   13 1    
    26   15   14 1    
    27   16   14 1    
    28   41   14 1    
    29   46   15 1    
    30   47   15 1    
    31   48   15 1    
    32   49   16 1    
    33   50   16 1    
    34   51   16 1    
    35   18   17 ar   
    36   19   17 ar   
    37   21   20 am   
    38   22   21 2    
    39   23   21 1    
    40   24   23 ar   
    41   26   23 ar   
    42   25   24 ar   
    43   42   24 1    
    44   28   25 ar   
    45   43   25 1    
    46   27   26 ar   
    47   44   26 1    
    48   28   27 ar   
    49   45   27 1    
    50   29   28 1    
    51   30   29 1    
    52   31   29 1    
    53   32   29 1    
    54   52   30 1    
    55   53   30 1    
    56   54   30 1    
    57   55   31 1    
    58   56   31 1    
    59   57   31 1    
    60   58   32 1    
    61   59   32 1    
    62   60   32 1    
@<TRIPOS>SUBSTRUCTURE
     1 698600      1 GROUP   
@<TRIPOS>SET

