#    Name: 1rjd_SAM_3_INTS_M
#    Modification time : Tue Mar 25 00:46:12 2014

@<TRIPOS>MOLECULE
1rjd_SAM_3_INTS_M
   83     0    12     0     0
SMALL
NO_CHARGES


@<TRIPOS>ATOM
      1 O          24.8175  114.6845  -37.0795 O.2       1 ALC1        0.0000 
      2 O          24.6940  115.0700  -35.6660 O.2       9 ALL1        0.0000 
      3 O          24.9410  114.2990  -38.4930 O.2       5 ALP1        0.0000 
      4 O          25.7990  116.0670  -35.5415 O.2       1 ALC1        0.0000 
      5 O          26.9040  117.0640  -35.4170 O.2       5 ALP1        0.0000 
      6 O          23.5435  115.6520  -35.1735 O.2       1 ALC1        0.0000 
      7 O          22.3930  116.2340  -34.6810 O.2       5 ALP1        0.0000 
      8 CA         23.5150  113.6715  -36.7385 C.3       4 GLC5        0.0000 
      9 CA         24.8090  113.7840  -34.9730 C.3      12 GLL5        0.0000 
     10 CA         22.2210  113.5590  -38.5040 C.3       8 GLP5        0.0000 
     11 NZ         26.6235  115.1215  -32.1745 N.4       3 LYC4        0.0000 
     12 NZ         25.5800  115.0940  -33.1450 N.4      11 LYL4        0.0000 
     13 NZ         27.8920  115.8360  -30.0930 N.4       7 LYP4        0.0000 
     14 N          26.6235  115.1215  -32.1745 N.am      2 SEC2        0.0000 
     15 N          25.5800  115.0940  -33.1450 N.am     10 SEL2        0.0000 
     16 N          27.6670  115.1490  -31.2040 N.am      6 SEP2        0.0000 
     17 CA         24.8625  111.5840  -36.5355 C.3       4 GLC5        0.0000 
     18 CA         25.9880  112.9640  -35.4950 C.3      12 GLL5        0.0000 
     19 CA         23.7370  110.2040  -37.5760 C.3       8 GLP5        0.0000 
     20 CA         28.5575  115.2070  -34.7650 C.3       4 GLC5        0.0000 
     21 CA         27.3610  113.6250  -35.3620 C.3      12 GLL5        0.0000 
     22 CA         29.7540  116.7890  -34.1680 C.3       8 GLP5        0.0000 
     23 CA         28.5855  110.6870  -35.3955 C.3       4 GLC5        0.0000 
     24 CA         28.6760  112.5140  -35.9300 C.3      12 GLL5        0.0000 
     25 CA         28.4950  108.8600  -34.8610 C.3       8 GLP5        0.0000 
     26 CA         29.9275  114.9340  -34.5700 C.3       4 GLC5        0.0000 
     27 CA         30.1010  113.0790  -34.9720 C.3      12 GLL5        0.0000 
     28 CA         31.4275  113.8645  -35.9425 C.3       4 GLC5        0.0000 
     29 CA         32.7540  114.6500  -36.9130 C.3       8 GLP5        0.0000 
     30 CA         30.9345  113.8910  -37.2520 C.3       4 GLC5        0.0000 
     31 CA         29.1150  113.1320  -37.5910 C.3      12 GLL5        0.0000 
     32 CA         26.5155  113.7595  -39.7580 C.3       4 GLC5        0.0000 
     33 CA         28.0980  112.7550  -38.6630 C.3      12 GLL5        0.0000 
     34 CA         24.9330  114.7640  -40.8530 C.3       8 GLP5        0.0000 
     35 CA         27.8860  109.9505  -37.5385 C.3       4 GLC5        0.0000 
     36 CA         28.2840  111.3080  -39.1180 C.3      12 GLL5        0.0000 
     37 CA         27.4880  108.5930  -35.9590 C.3       8 GLP5        0.0000 
     38 O          26.5235  110.4090  -40.6325 O.2       1 ALC1        0.0000 
     39 O          27.0850  110.5830  -39.0640 O.2       9 ALL1        0.0000 
     40 O          25.9620  110.2350  -42.2010 O.2       5 ALP1        0.0000 
     41 O          26.0730  110.9285  -39.8260 O.2       1 ALC1        0.0000 
     42 O          25.0610  111.2740  -40.5880 O.2       5 ALP1        0.0000 
     43 CA         30.8605  111.6955  -40.9530 C.3       4 GLC5        0.0000 
     44 CA         28.7790  111.4740  -40.5320 C.3      12 GLL5        0.0000 
     45 CA         32.9420  111.9170  -41.3740 C.3       8 GLP5        0.0000 
     46 CA         29.7400  109.6235  -40.5625 C.3       4 GLC5        0.0000 
     47 CA         30.7010  107.7730  -40.5930 C.3       8 GLP5        0.0000 
     48 CA         28.9905  110.7855  -42.6215 C.3       4 GLC5        0.0000 
     49 CA         29.2020  110.0970  -44.7110 C.3       8 GLP5        0.0000 
     50 O          27.1925  110.3040  -41.7750 O.2       1 ALC1        0.0000 
     51 O          28.4230  110.3730  -41.3490 O.2       9 ALL1        0.0000 
     52 CA         26.5405  113.7785  -40.9000 C.3       4 GLC5        0.0000 
     53 CA         28.1480  112.7930  -40.9470 C.3      12 GLL5        0.0000 
     54 CA         28.2910  114.7795  -41.3245 C.3       4 GLC5        0.0000 
     55 CA         28.4340  116.7660  -41.7020 C.3       8 GLP5        0.0000 
     56 N          31.6520  114.2010  -44.1460 N.am      2 SEC2        0.0000 
     57 N          30.4720  114.1190  -43.4240 N.am     10 SEL2        0.0000 
     58 N          32.8320  114.2830  -44.8680 N.am      6 SEP2        0.0000 
     59 CA         28.0215  115.7245  -46.1805 C.3       4 GLC5        0.0000 
     60 CA         29.0930  114.2200  -45.5080 C.3      12 GLL5        0.0000 
     61 CA         26.9500  117.2290  -46.8530 C.3       8 GLP5        0.0000 
     62 O          29.9660  114.2530  -47.7945 O.2       1 ALC1        0.0000 
     63 O          30.0180  114.7070  -46.3500 O.2       9 ALL1        0.0000 
     64 O          29.9140  113.7990  -49.2390 O.2       5 ALP1        0.0000 
     65 N          27.5500  114.7045  -47.2150 N.am      2 SEC2        0.0000 
     66 N          27.8420  113.9760  -45.9770 N.am     10 SEL2        0.0000 
     67 N          27.2580  115.4330  -48.4530 N.am      6 SEP2        0.0000 
     68 CA         25.2185  112.5095  -44.4750 C.3       4 GLC5        0.0000 
     69 CA         26.8360  113.4760  -45.1620 C.3      12 GLL5        0.0000 
     70 CA         23.6010  111.5430  -43.7880 C.3       8 GLP5        0.0000 
     71 CA         26.3405  111.3845  -45.5575 C.3       4 GLC5        0.0000 
     72 CA         25.8450  109.2930  -45.9530 C.3       8 GLP5        0.0000 
     73 CA         27.0090  113.3955  -47.3825 C.3       4 GLC5        0.0000 
     74 CA         27.1820  113.3150  -49.6030 C.3       8 GLP5        0.0000 
     75 CA         26.2110  115.1170  -45.7335 C.3       4 GLC5        0.0000 
     76 CA         25.5860  116.7580  -46.3050 C.3       8 GLP5        0.0000 
     77 CA         26.6395  114.1210  -42.1015 C.3       4 GLC5        0.0000 
     78 CA         28.3460  113.4780  -43.3500 C.3      12 GLL5        0.0000 
     79 CA         27.0583  112.2762  -33.5892 C.3       4 GLC5        0.0000 
     80 CA         27.4420  111.2580  -31.7500 C.3       8 GLP5        0.0000 
     81 CA         30.9958  111.7133  -35.6745 C.3       4 GLC5        0.0000 
     82 CA         32.6030  110.6300  -35.8980 C.3       8 GLP5        0.0000 
     83 CA         28.6425  115.2515  -42.7297 C.3       4 GLC5        0.0000 
@<TRIPOS>BOND
@<TRIPOS>SUBSTRUCTURE
     1 ALC1        1 GROUP        1 X    ALC  0     ROOT ALC X 1
     2 SEC2       14 GROUP        1 X    SEC  0     **** SEC X 2
     3 LYC4       11 GROUP        1 X    LYC  0     **** LYC X 4
     4 GLC5        8 GROUP        1 X    GLC  0     **** GLC X 6
     5 ALP1        3 GROUP        1 Y    ALP  0     ROOT ALP Y 8
     6 SEP2       16 GROUP        1 Y    SEP  0     **** SEP Y 9
     7 LYP4       13 GROUP        1 Y    LYP  0     **** LYP Y 11
     8 GLP5       10 GROUP        1 Y    GLP  0     **** GLP Y 13
     9 ALL1        2 GROUP        1 Z    ALL  0     ROOT ALL Z 15
    10 SEL2       15 GROUP        1 Z    SEL  0     **** SEL Z 16
    11 LYL4       12 GROUP        1 Z    LYL  0     **** LYL Z 18
    12 GLL5        9 GROUP        1 Z    GLL  0     **** GLL Z 20
@<TRIPOS>SET

