#    Name: 1rjd_SAM_3_ligand
#    Modification time : Tue Mar 25 00:46:13 2014

@<TRIPOS>MOLECULE
1rjd_SAM_3_ligand
   50    52     1     0     0
SMALL
NO_CHARGES


@<TRIPOS>ATOM
      1 N          24.6940  115.0700  -35.6660 N.4       1 SAM803      0.0000 
      2 CA         24.8090  113.7840  -34.9730 C.3       1 SAM803      0.0000 
      3 C          25.0260  114.0280  -33.4930 C.2       1 SAM803      0.0000 
      4 O          25.5800  115.0940  -33.1450 O.co2     1 SAM803      0.0000 
      5 OXT        24.6340  113.1780  -32.6860 O.co2     1 SAM803      0.0000 
      6 CB         25.9880  112.9640  -35.4950 C.3       1 SAM803      0.0000 
      7 CG         27.3610  113.6250  -35.3620 C.3       1 SAM803      0.0000 
      8 SD         28.6760  112.5140  -35.9300 S.3       1 SAM803      0.0000 
      9 CE         30.1010  113.0790  -34.9720 C.3       1 SAM803      0.0000 
     10 C5'        29.1150  113.1320  -37.5910 C.3       1 SAM803      0.0000 
     11 C4'        28.0980  112.7550  -38.6630 C.3       1 SAM803      0.0000 
     12 O4'        28.2490  113.5960  -39.7930 O.3       1 SAM803      0.0000 
     13 C3'        28.2840  111.3080  -39.1180 C.3       1 SAM803      0.0000 
     14 O3'        27.0850  110.5830  -39.0640 O.3       1 SAM803      0.0000 
     15 C2'        28.7790  111.4740  -40.5320 C.3       1 SAM803      0.0000 
     16 O2'        28.4230  110.3730  -41.3490 O.3       1 SAM803      0.0000 
     17 C1'        28.1480  112.7930  -40.9470 C.3       1 SAM803      0.0000 
     18 N9         28.8770  113.3460  -42.1020 N.pl3     1 SAM803      0.0000 
     19 C8         30.1960  113.7160  -42.1570 C.2       1 SAM803      0.0000 
     20 N7         30.4720  114.1190  -43.4240 N.2       1 SAM803      0.0000 
     21 C5         29.3560  113.9960  -44.1650 C.ar      1 SAM803      0.0000 
     22 C6         29.0930  114.2200  -45.5080 C.ar      1 SAM803      0.0000 
     23 N6         30.0180  114.7070  -46.3500 N.pl3     1 SAM803      0.0000 
     24 N1         27.8420  113.9760  -45.9770 N.ar      1 SAM803      0.0000 
     25 C2         26.8360  113.4760  -45.1620 C.ar      1 SAM803      0.0000 
     26 N3         27.0940  113.2160  -43.8410 N.ar      1 SAM803      0.0000 
     27 C4         28.3460  113.4780  -43.3500 C.ar      1 SAM803      0.0000 
     28 H          23.9113  113.2033  -35.0904 H         1 SAM803      0.0000 
     29 H          25.8107  112.7250  -36.5635 H         1 SAM803      0.0000 
     30 H          26.0090  111.9911  -34.9628 H         1 SAM803      0.0000 
     31 H          27.6445  113.8199  -34.3537 H         1 SAM803      0.0000 
     32 H          27.4886  114.4736  -35.9933 H         1 SAM803      0.0000 
     33 H          30.0853  112.6944  -37.7427 H         1 SAM803      0.0000 
     34 H          29.1924  114.1910  -37.4218 H         1 SAM803      0.0000 
     35 H          27.1070  112.8449  -38.2410 H         1 SAM803      0.0000 
     36 H          29.0780  110.8913  -38.5375 H         1 SAM803      0.0000 
     37 H          29.8472  111.6359  -40.4744 H         1 SAM803      0.0000 
     38 H          27.1272  112.5895  -41.1981 H         1 SAM803      0.0000 
     39 H          30.8117  113.6916  -41.4225 H         1 SAM803      0.0000 
     40 H          29.9620  114.3895  -47.2966 H         1 SAM803      0.0000 
     41 H          30.6804  115.3438  -45.9554 H         1 SAM803      0.0000 
     42 H          25.8993  113.3031  -45.5565 H         1 SAM803      0.0000 
     43 H          25.5171  115.6268  -35.5546 H         1 SAM803      0.0000 
     44 H          24.5515  114.9509  -36.6486 H         1 SAM803      0.0000 
     45 H          23.9260  115.6100  -35.3217 H         1 SAM803      0.0000 
     46 H          30.9457  112.6296  -35.2627 H         1 SAM803      0.0000 
     47 H          30.2454  114.0640  -35.0669 H         1 SAM803      0.0000 
     48 H          29.9902  112.8917  -33.9960 H         1 SAM803      0.0000 
     49 H          26.4768  111.0402  -39.7128 H         1 SAM803      0.0000 
     50 H          27.4614  110.5222  -41.5795 H         1 SAM803      0.0000 
@<TRIPOS>BOND
     1    2    1 1    
     2   43    1 1    
     3   44    1 1    
     4   45    1 1    
     5    3    2 1    
     6    6    2 1    
     7   28    2 1    
     8    4    3 ar   
     9    5    3 ar   
    10    7    6 1    
    11   29    6 1    
    12   30    6 1    
    13    8    7 1    
    14   31    7 1    
    15   32    7 1    
    16    9    8 1    
    17   10    8 1    
    18   46    9 1    
    19   47    9 1    
    20   48    9 1    
    21   11   10 1    
    22   33   10 1    
    23   34   10 1    
    24   12   11 1    
    25   13   11 1    
    26   35   11 1    
    27   17   12 1    
    28   14   13 1    
    29   15   13 1    
    30   36   13 1    
    31   49   14 1    
    32   16   15 1    
    33   17   15 1    
    34   37   15 1    
    35   50   16 1    
    36   18   17 1    
    37   38   17 1    
    38   19   18 1    
    39   27   18 1    
    40   20   19 2    
    41   39   19 1    
    42   21   20 1    
    43   22   21 ar   
    44   27   21 ar   
    45   23   22 1    
    46   24   22 ar   
    47   40   23 1    
    48   41   23 1    
    49   25   24 ar   
    50   26   25 ar   
    51   42   25 1    
    52   27   26 ar   
@<TRIPOS>SUBSTRUCTURE
     1 SAM803      1 GROUP   
@<TRIPOS>SET

