#    Name: 3W1U_2_CAVITY_N1_6.mol2
#    Modification time : Tue Mar 11 12:32:59 2014

@<TRIPOS>MOLECULE
3W1U_2_CAVITY_N1_6.mol2
  126     0     5     0     0
SMALL
NO_CHARGES


@<TRIPOS>ATOM
      1 N          -4.8699   -6.9756   11.9454 N.2       2 ALA2        0.0000 
      2 N          -6.7159  -10.6101   14.3709 N.2       2 ALA2        0.0000 
      3 N          -7.5573  -11.4264   13.4351 N.2       2 ALA2        0.0000 
      4 O          -7.2224  -10.4870   12.3146 O.2       2 ALA2        0.0000 
      5 O          -8.3986  -12.2426   12.4992 O.2       2 ALA2        0.0000 
      6 CA          1.6548  -16.4719   11.9579 C.3       4 GLY6        0.0000 
      7 CA          2.3245  -14.5931    9.7170 C.3       4 GLY6        0.0000 
      8 O           0.8134  -17.2881   11.0221 O.2       2 ALA2        0.0000 
      9 CA          1.1482  -16.3487    9.9017 C.3       4 GLY6        0.0000 
     10 O           1.4831  -15.4093    8.7812 O.2       2 ALA2        0.0000 
     11 N          -0.0280  -18.1044   10.0863 N.2       2 ALA2        0.0000 
     12 CA          0.3068  -17.1650    8.9658 C.3       4 GLY6        0.0000 
     13 N          -1.2043  -19.8601   10.2709 N.2       2 ALA2        0.0000 
     14 O           0.0654   -8.7947   13.9033 O.2       2 ALA2        0.0000 
     15 O          -1.1108  -10.5503   14.0880 O.2       2 ALA2        0.0000 
     16 O          -0.7760   -9.6109   12.9675 O.2       2 ALA2        0.0000 
     17 O          -0.4411   -8.6715   11.8471 O.2       2 ALA2        0.0000 
     18 O          -0.1063   -7.7321   10.7266 O.2       2 ALA2        0.0000 
     19 N          -2.2871  -12.3060   14.2726 N.2       2 ALA2        0.0000 
     20 DU         -1.9522  -11.3666   13.1521 H         5 CUB7        0.0000 
     21 O          -1.6174  -10.4272   12.0317 O.2       2 ALA2        0.0000 
     22 O          -1.2825   -9.4878   10.9112 O.2       2 ALA2        0.0000 
     23 O          -0.9477   -8.5484    9.7908 O.2       2 ALA2        0.0000 
     24 O          -0.6128   -7.6090    8.6703 O.2       2 ALA2        0.0000 
     25 N          -3.4633  -14.0617   14.4572 N.2       2 ALA2        0.0000 
     26 N          -3.1285  -13.1223   13.3368 N.2       2 ALA2        0.0000 
     27 DU         -2.7936  -12.1829   12.2163 H         5 CUB7        0.0000 
     28 O          -2.4588  -11.2435   11.0959 O.2       2 ALA2        0.0000 
     29 O          -4.6396  -15.8173   14.6418 O.2       2 ALA2        0.0000 
     30 O          -4.3047  -14.8779   13.5214 O.2       2 ALA2        0.0000 
     31 DU         -3.9698  -13.9385   12.4009 H         5 CUB7        0.0000 
     32 DU         -3.6350  -12.9991   11.2805 H         5 CUB7        0.0000 
     33 N          -3.3001  -12.0598   10.1600 N.2       2 ALA2        0.0000 
     34 O          -5.1461  -15.6942   12.5856 O.2       2 ALA2        0.0000 
     35 O          -4.8112  -14.7548   11.4651 O.2       2 ALA2        0.0000 
     36 CA         -4.4764  -13.8154   10.3447 C.3       4 GLY6        0.0000 
     37 CA         -5.6526  -15.5711   10.5293 C.3       4 GLY6        0.0000 
     38 CA         -5.3178  -14.6317    9.4088 C.3       4 GLY6        0.0000 
     39 OG         -2.3066   -9.7129   14.4327 O.2       1 SER1        0.0000 
     40 OG         -1.9718   -8.7735   13.3122 O.2       1 SER1        0.0000 
     41 CA         -1.6369   -7.8341   12.1918 C.3       4 GLY6        0.0000 
     42 CA         -1.3021   -6.8947   11.0713 C.3       4 GLY6        0.0000 
     43 N          -3.4829  -11.4686   14.6173 N.2       2 ALA2        0.0000 
     44 OG         -3.1480  -10.5292   13.4969 O.2       1 SER1        0.0000 
     45 OG         -2.8132   -9.5898   12.3764 O.2       1 SER1        0.0000 
     46 O          -2.4783   -8.6504   11.2560 O.2       2 ALA2        0.0000 
     47 O          -2.1435   -7.7110   10.1355 O.2       2 ALA2        0.0000 
     48 N          -4.6591  -13.2243   14.8019 N.2       2 ALA2        0.0000 
     49 N          -4.3243  -12.2849   13.6815 N.2       2 ALA2        0.0000 
     50 DU         -3.9894  -11.3455   12.5610 H         5 CUB7        0.0000 
     51 O          -3.6546  -10.4061   11.4406 O.2       2 ALA2        0.0000 
     52 CA         -5.8354  -14.9799   14.9865 C.3       4 GLY6        0.0000 
     53 N          -5.5005  -14.0405   13.8661 N.2       2 ALA2        0.0000 
     54 DU         -5.1657  -13.1012   12.7456 H         5 CUB7        0.0000 
     55 DU         -4.8308  -12.1618   11.6252 H         5 CUB7        0.0000 
     56 OD1        -6.6767  -15.7962   14.0507 O.3       3 ASP3        0.0000 
     57 O          -6.3419  -14.8568   12.9303 O.2       2 ALA2        0.0000 
     58 DU         -6.0070  -13.9174   11.8098 H         5 CUB7        0.0000 
     59 N          -5.6722  -12.9780   10.6894 N.2       2 ALA2        0.0000 
     60 O          -5.3373  -12.0386    9.5689 O.2       2 ALA2        0.0000 
     61 CA         -7.1833  -15.6731   11.9944 C.3       4 GLY6        0.0000 
     62 N          -6.5136  -13.7943    9.7536 N.2       2 ALA2        0.0000 
     63 N          -2.8327   -6.9967   12.5365 N.2       2 ALA2        0.0000 
     64 OG         -4.6787  -10.6312   14.9620 O.2       1 SER1        0.0000 
     65 OG         -4.0090   -8.7524   12.7211 O.2       1 SER1        0.0000 
     66 OG         -3.6741   -7.8130   11.6007 O.2       1 SER1        0.0000 
     67 OG         -3.3393   -6.8736   10.4802 O.2       1 SER1        0.0000 
     68 N          -5.8549  -12.3869   15.1466 N.2       2 ALA2        0.0000 
     69 N          -5.5201  -11.4475   14.0262 N.2       2 ALA2        0.0000 
     70 N          -5.1852  -10.5081   12.9057 N.2       2 ALA2        0.0000 
     71 CA         -4.8504   -9.5687   11.7853 C.3       4 GLY6        0.0000 
     72 CA         -4.5155   -8.6293   10.6648 C.3       4 GLY6        0.0000 
     73 OG         -4.1807   -7.6899    9.5444 O.2       1 SER1        0.0000 
     74 N          -6.6963  -13.2032   14.2108 N.2       2 ALA2        0.0000 
     75 DU         -6.3615  -12.2638   13.0904 H         5 CUB7        0.0000 
     76 CA         -6.0266  -11.3244   11.9699 C.3       4 GLY6        0.0000 
     77 N          -7.5377  -14.0194   13.2750 N.2       2 ALA2        0.0000 
     78 O          -7.2028  -13.0800   12.1545 O.2       2 ALA2        0.0000 
     79 N          -6.8680  -12.1406   11.0341 N.2       2 ALA2        0.0000 
     80 CA         -8.3791  -14.8357   12.3392 C.3       4 GLY6        0.0000 
     81 O          -8.0442  -13.8963   11.2187 O.2       2 ALA2        0.0000 
     82 N          -7.7094  -12.9569   10.0983 N.2       2 ALA2        0.0000 
     83 CA          2.8506  -17.3092   11.6132 C.3       4 GLY6        0.0000 
     84 O           2.0092  -18.1255   10.6774 O.2       2 ALA2        0.0000 
     85 N           1.1678  -18.9418    9.7416 N.2       2 ALA2        0.0000 
     86 OG          0.1045  -13.9808   13.5832 O.2       1 SER1        0.0000 
     87 O           1.4439  -10.2232    9.1014 O.2       2 ALA2        0.0000 
     88 O           1.7788   -9.2838    7.9809 O.2       2 ALA2        0.0000 
     89 O          -1.0717  -15.7365   13.7678 O.2       2 ALA2        0.0000 
     90 CA         -0.7369  -14.7971   12.6473 C.3       4 GLY6        0.0000 
     91 OD1        -0.4020  -13.8577   11.5269 O.3       3 ASP3        0.0000 
     92 OD1        -0.0672  -12.9183   10.4064 O.3       3 ASP3        0.0000 
     93 O           0.2677  -11.9789    9.2860 O.2       2 ALA2        0.0000 
     94 N           0.6026  -11.0395    8.1655 N.2       2 ALA2        0.0000 
     95 N           0.9374  -10.1001    7.0451 N.2       2 ALA2        0.0000 
     96 CA         -1.5782  -15.6133   11.7115 C.3       4 GLY6        0.0000 
     97 CA         -1.2434  -14.6739   10.5911 C.3       4 GLY6        0.0000 
     98 CA         -2.4196  -16.4296   10.7757 C.3       4 GLY6        0.0000 
     99 OD1         0.0850  -11.3877   13.7433 O.3       3 ASP3        0.0000 
    100 OD1         0.4198  -10.4483   12.6228 O.3       3 ASP3        0.0000 
    101 O           0.7547   -9.5089   11.5024 O.2       2 ALA2        0.0000 
    102 CA         -1.0913  -13.1434   13.9279 C.3       4 GLY6        0.0000 
    103 OD1        -0.7564  -12.2040   12.8074 O.3       3 ASP3        0.0000 
    104 OD1        -0.4216  -11.2646   11.6870 O.3       3 ASP3        0.0000 
    105 OD1        -0.0867  -10.3252   10.5665 O.3       3 ASP3        0.0000 
    106 O           0.2481   -9.3858    9.4461 O.2       2 ALA2        0.0000 
    107 N           0.5830   -8.4464    8.3256 N.2       2 ALA2        0.0000 
    108 O          -2.2675  -14.8991   14.1125 O.2       2 ALA2        0.0000 
    109 CA         -1.9327  -13.9597   12.9921 C.3       4 GLY6        0.0000 
    110 DU         -1.5978  -13.0203   11.8716 H         5 CUB7        0.0000 
    111 O          -1.2630  -12.0809   10.7512 O.2       2 ALA2        0.0000 
    112 O          -0.9281  -11.1415    9.6307 O.2       2 ALA2        0.0000 
    113 O          -2.7740  -14.7759   12.0562 O.2       2 ALA2        0.0000 
    114 CA         -2.4392  -13.8365   10.9358 C.3       4 GLY6        0.0000 
    115 N          -2.1043  -12.8971    9.8153 N.2       2 ALA2        0.0000 
    116 CA         -3.6154  -15.5922   11.1204 C.3       4 GLY6        0.0000 
    117 CA         -3.2806  -14.6528   10.0000 C.3       4 GLY6        0.0000 
    118 CA          2.6397  -11.0606    8.7567 C.3       4 GLY6        0.0000 
    119 O           0.4589  -15.6345   12.3026 O.2       2 ALA2        0.0000 
    120 CA          0.7938  -14.6951   11.1822 C.3       4 GLY6        0.0000 
    121 OD1         1.1287  -13.7557   10.0617 O.3       3 ASP3        0.0000 
    122 O           1.4635  -12.8163    8.9413 O.2       2 ALA2        0.0000 
    123 O          -0.3824  -16.4507   11.3668 O.2       2 ALA2        0.0000 
    124 CA         -0.0476  -15.5113   10.2464 C.3       4 GLY6        0.0000 
    125 O           0.2873  -14.5719    9.1259 O.2       2 ALA2        0.0000 
    126 CA         -1.2238  -17.2670   10.4310 C.3       4 GLY6        0.0000 
@<TRIPOS>BOND
@<TRIPOS>SUBSTRUCTURE
     1 SER1       39 GROUP   
     2 ALA2        1 GROUP   
     3 ASP3       56 GROUP   
     4 GLY6        6 GROUP   
     5 CUB7       20 GROUP   
@<TRIPOS>SET

