#    Name: 3w1u_LRO_2_INTS_M
#    Modification time : Tue Mar 25 01:59:51 2014

@<TRIPOS>MOLECULE
3w1u_LRO_2_INTS_M
   52     0    12     0     0
SMALL
NO_CHARGES


@<TRIPOS>ATOM
      1 N          -3.4990  -16.3465   14.2420 N.am      2 SEC2        0.0000 
      2 N          -4.0700  -14.9400   14.3230 N.am     10 SEL2        0.0000 
      3 N          -2.9280  -17.7530   14.1610 N.am      6 SEP2        0.0000 
      4 NZ         -7.4625  -16.0760   14.8305 N.4       3 LYC4        0.0000 
      5 NZ         -6.1040  -15.7710   14.2370 N.4      11 LYL4        0.0000 
      6 NZ         -8.8210  -16.3810   15.4240 N.4       7 LYP4        0.0000 
      7 N          -5.7525  -16.9760   13.4980 N.am      2 SEC2        0.0000 
      8 N          -6.1040  -15.7710   14.2370 N.am     10 SEL2        0.0000 
      9 N          -5.4010  -18.1810   12.7590 N.am      6 SEP2        0.0000 
     10 N          -7.4625  -16.0760   14.8305 N.am      2 SEC2        0.0000 
     11 N          -8.8210  -16.3810   15.4240 N.am      6 SEP2        0.0000 
     12 CA         -7.0500  -13.2595   15.8300 C.3       4 GLC5        0.0000 
     13 CA         -5.8640  -13.4690   14.1130 C.3      12 GLL5        0.0000 
     14 CA         -8.2360  -13.0500   17.5470 C.3       8 GLP5        0.0000 
     15 O          -4.4775  -12.9800   16.2050 O.2       1 ALC1        0.0000 
     16 O          -5.4580  -12.6200   15.1730 O.2       9 ALL1        0.0000 
     17 O          -3.4970  -13.3400   17.2370 O.2       5 ALP1        0.0000 
     18 N          -4.6340  -10.9770   17.2235 N.am      2 SEC2        0.0000 
     19 N          -5.3530  -10.5160   16.0500 N.am     10 SEL2        0.0000 
     20 N          -3.9150  -11.4380   18.3970 N.am      6 SEP2        0.0000 
     21 N          -4.8150   -9.3120   15.9010 N.am      2 SEC2        0.0000 
     22 N          -4.2770   -8.1080   15.7520 N.am      6 SEP2        0.0000 
     23 O          -6.9430   -9.4535   14.1620 O.2       1 ALC1        0.0000 
     24 O          -6.6460  -10.7840   14.1900 O.2       9 ALL1        0.0000 
     25 O          -7.2400   -8.1230   14.1340 O.2       5 ALP1        0.0000 
     26 N          -8.9565  -11.3645   11.4365 N.am      2 SEC2        0.0000 
     27 N          -7.7990  -11.0980   12.3440 N.am     10 SEL2        0.0000 
     28 N         -10.1140  -11.6310   10.5290 N.am      6 SEP2        0.0000 
     29 N          -8.1430   -9.6910   12.2885 N.am      2 SEC2        0.0000 
     30 N          -8.4870   -8.2840   12.2330 N.am      6 SEP2        0.0000 
     31 CA         -5.6810  -16.3925   10.8430 C.3       4 GLC5        0.0000 
     32 CA         -4.4600  -14.7090   10.7830 C.3      12 GLL5        0.0000 
     33 CA         -6.9020  -18.0760   10.9030 C.3       8 GLP5        0.0000 
     34 CA         -3.0190  -16.5980   11.8860 C.3       4 GLC5        0.0000 
     35 CA         -3.0500  -14.7440   10.8650 C.3      12 GLL5        0.0000 
     36 CA         -2.9880  -18.4520   12.9070 C.3       8 GLP5        0.0000 
     37 CA          1.1890  -13.8680   11.6040 C.3       4 GLC5        0.0000 
     38 CA         -0.8780  -13.5610   10.9260 C.3      12 GLL5        0.0000 
     39 CA          3.2560  -14.1750   12.2820 C.3       8 GLP5        0.0000 
     40 CA         -5.4600  -10.6210    9.9695 C.3       4 GLC5        0.0000 
     41 CA         -4.4190  -12.3230   10.8070 C.3      12 GLL5        0.0000 
     42 CA         -6.5010   -8.9190    9.1320 C.3       8 GLP5        0.0000 
     43 CA         -7.9928  -15.3152   11.1562 C.3       4 GLC5        0.0000 
     44 CA         -6.5790  -13.4440   10.7500 C.3      12 GLL5        0.0000 
     45 CA         -9.1110  -16.9580   10.9080 C.3       8 GLP5        0.0000 
     46 CA         -4.4320  -14.9032    8.9915 C.3       4 GLC5        0.0000 
     47 CA         -5.1780  -13.4900   10.8030 C.3      12 GLL5        0.0000 
     48 CA         -4.0450  -15.7070    7.1900 C.3       8 GLP5        0.0000 
     49 CA         -2.0789  -13.9243    9.1257 C.3       4 GLC5        0.0000 
     50 CA         -1.7710  -14.7340    7.3790 C.3       8 GLP5        0.0000 
     51 CA         -5.1264  -12.8325    8.7639 C.3       4 GLC5        0.0000 
     52 CA         -5.1040  -12.7700    6.7360 C.3       8 GLP5        0.0000 
@<TRIPOS>BOND
@<TRIPOS>SUBSTRUCTURE
     1 ALC1       15 GROUP        1 X    ALC  0     ROOT ALC X 1
     2 SEC2        1 GROUP        1 X    SEC  0     **** SEC X 2
     3 LYC4        4 GROUP        1 X    LYC  0     **** LYC X 4
     4 GLC5       12 GROUP        1 X    GLC  0     **** GLC X 6
     5 ALP1       17 GROUP        1 Y    ALP  0     ROOT ALP Y 8
     6 SEP2        3 GROUP        1 Y    SEP  0     **** SEP Y 9
     7 LYP4        6 GROUP        1 Y    LYP  0     **** LYP Y 11
     8 GLP5       14 GROUP        1 Y    GLP  0     **** GLP Y 13
     9 ALL1       16 GROUP        1 Z    ALL  0     ROOT ALL Z 15
    10 SEL2        2 GROUP        1 Z    SEL  0     **** SEL Z 16
    11 LYL4        5 GROUP        1 Z    LYL  0     **** LYL Z 18
    12 GLL5       13 GROUP        1 Z    GLL  0     **** GLL Z 20
@<TRIPOS>SET

