#    Name: 3w1u_LRO_2_ligand
#    Modification time : Tue Mar 25 01:59:51 2014

@<TRIPOS>MOLECULE
3w1u_LRO_2_ligand
   33    34     1     0     0
SMALL
NO_CHARGES


@<TRIPOS>ATOM
      1 OAB        -4.0700  -14.9400   14.3230 O.co2     1 LRO401      0.0000 
      2 CAN        -5.3340  -14.7990   14.2570 C.2       1 LRO401      0.0000 
      3 OAE        -6.1040  -15.7710   14.2370 O.co2     1 LRO401      0.0000 
      4 CAQ        -5.8640  -13.4690   14.1130 C.2       1 LRO401      0.0000 
      5 NAL        -5.4580  -12.6200   15.1730 N.am      1 LRO401      0.0000 
      6 CAS        -5.8220  -11.2630   15.1790 C.2       1 LRO401      0.0000 
      7 OAC        -5.3530  -10.5160   16.0500 O.2       1 LRO401      0.0000 
      8 NAM        -6.6460  -10.7840   14.1900 N.am      1 LRO401      0.0000 
      9 CAT        -7.1090  -11.6390   13.1810 C.2       1 LRO401      0.0000 
     10 OAD        -7.7990  -11.0980   12.3440 O.2       1 LRO401      0.0000 
     11 CAR        -6.7170  -13.0110   13.1340 C.2       1 LRO401      0.0000 
     12 CAK        -7.1700  -13.9010   12.0590 C.3       1 LRO401      0.0000 
     13 CAJ        -6.5790  -13.4440   10.7500 C.3       1 LRO401      0.0000 
     14 CAP        -5.1780  -13.4900   10.8030 C.ar      1 LRO401      0.0000 
     15 CAH        -4.4600  -14.7090   10.7830 C.ar      1 LRO401      0.0000 
     16 CAF        -3.0500  -14.7440   10.8650 C.ar      1 LRO401      0.0000 
     17 CAO        -2.3080  -13.5710   10.8980 C.ar      1 LRO401      0.0000 
     18 CAA        -0.8780  -13.5610   10.9260 C.3       1 LRO401      0.0000 
     19 CAG        -2.9950  -12.3700   10.8410 C.ar      1 LRO401      0.0000 
     20 CAI        -4.4190  -12.3230   10.8070 C.ar      1 LRO401      0.0000 
     21 H          -4.8948  -13.0042   15.9383 H         1 LRO401      0.0000 
     22 H          -6.9321   -9.7933   14.1791 H         1 LRO401      0.0000 
     23 H          -8.2588  -13.8843   11.9811 H         1 LRO401      0.0000 
     24 H          -6.8522  -14.9275   12.2520 H         1 LRO401      0.0000 
     25 H          -6.9516  -12.4240   10.5499 H         1 LRO401      0.0000 
     26 H          -6.9838  -14.0922    9.9530 H         1 LRO401      0.0000 
     27 H          -4.9820  -15.5976   10.7063 H         1 LRO401      0.0000 
     28 H          -2.5752  -15.6590   10.9003 H         1 LRO401      0.0000 
     29 H          -2.4766  -11.4737   10.8219 H         1 LRO401      0.0000 
     30 H          -4.8813  -11.4023   10.7852 H         1 LRO401      0.0000 
     31 H          -0.4876  -14.0066   10.1203 H         1 LRO401      0.0000 
     32 H          -0.5135  -12.6301   10.9516 H         1 LRO401      0.0000 
     33 H          -0.5189  -14.0385   11.7279 H         1 LRO401      0.0000 
@<TRIPOS>BOND
     1    2    1 ar   
     2    3    2 ar   
     3    4    2 1    
     4    5    4 1    
     5   11    4 2    
     6    6    5 am   
     7   21    5 1    
     8    7    6 2    
     9    8    6 am   
    10    9    8 am   
    11   22    8 1    
    12   10    9 2    
    13   11    9 1    
    14   12   11 1    
    15   13   12 1    
    16   23   12 1    
    17   24   12 1    
    18   14   13 1    
    19   25   13 1    
    20   26   13 1    
    21   15   14 ar   
    22   20   14 ar   
    23   16   15 ar   
    24   27   15 1    
    25   17   16 ar   
    26   28   16 1    
    27   18   17 1    
    28   19   17 ar   
    29   31   18 1    
    30   32   18 1    
    31   33   18 1    
    32   20   19 ar   
    33   29   19 1    
    34   30   20 1    
@<TRIPOS>SUBSTRUCTURE
     1 LRO401      1 GROUP   
@<TRIPOS>SET

