#    Name: 2uup_LK4_1_INTS_M
#    Modification time : Tue Mar 25 00:18:15 2014

@<TRIPOS>MOLECULE
2uup_LK4_1_INTS_M
   63     0     9     0     0
SMALL
NO_CHARGES


@<TRIPOS>ATOM
      1 N         -10.5710    2.8405  -23.5985 N.am      1 SEC2        0.0000 
      2 N         -10.6970    1.6870  -22.5910 N.am      7 SEL2        0.0000 
      3 N         -10.4450    3.9940  -24.6060 N.am      4 SEP2        0.0000 
      4 CA        -10.2270    0.8865  -21.3195 C.3       3 GLC5        0.0000 
      5 CA        -11.8280    1.4560  -22.4440 C.3       9 GLL5        0.0000 
      6 CA         -8.6260    0.3170  -20.1950 C.3       6 GLP5        0.0000 
      7 CA        -10.8885    3.2595  -22.4555 C.3       3 GLC5        0.0000 
      8 CA         -9.9490    5.0630  -22.4670 C.3       6 GLP5        0.0000 
      9 CA        -10.8485    1.4075  -24.2980 C.3       3 GLC5        0.0000 
     10 CA         -9.8690    1.3590  -26.1520 C.3       6 GLP5        0.0000 
     11 CA        -10.8150   -0.2490  -22.6815 C.3       3 GLC5        0.0000 
     12 CA         -9.8020   -1.9540  -22.9190 C.3       6 GLP5        0.0000 
     13 NZ        -26.3335   -6.8640  -22.1645 N.4       2 LYC4        0.0000 
     14 NZ        -25.6800   -5.7220  -21.5820 N.4       8 LYL4        0.0000 
     15 NZ        -26.9870   -8.0060  -22.7470 N.4       5 LYP4        0.0000 
     16 N         -26.3335   -6.8640  -22.1645 N.am      1 SEC2        0.0000 
     17 N         -25.6800   -5.7220  -21.5820 N.am      7 SEL2        0.0000 
     18 N         -26.9870   -8.0060  -22.7470 N.am      4 SEP2        0.0000 
     19 NZ        -26.5795   -7.1150  -21.1470 N.4       2 LYC4        0.0000 
     20 NZ        -26.1720   -6.2240  -19.5470 N.4       8 LYL4        0.0000 
     21 CA        -28.7335   -3.7355  -20.8400 C.3       3 GLC5        0.0000 
     22 CA        -26.7980   -2.7480  -21.0460 C.3       9 GLL5        0.0000 
     23 CA        -30.6690   -4.7230  -20.6340 C.3       6 GLP5        0.0000 
     24 CA        -26.9190   -3.4260  -22.7740 C.3       3 GLC5        0.0000 
     25 CA        -27.0400   -4.1040  -24.5020 C.3       6 GLP5        0.0000 
     26 CA        -25.8970   -1.5770  -22.2855 C.3       3 GLC5        0.0000 
     27 CA        -24.9960   -0.4060  -23.5250 C.3       6 GLP5        0.0000 
     28 N         -28.7825   -1.5315  -23.2180 N.am      1 SEC2        0.0000 
     29 N         -28.5510   -1.4010  -21.8760 N.am      7 SEL2        0.0000 
     30 N         -29.0140   -1.6620  -24.5600 N.am      4 SEP2        0.0000 
     31 N         -28.8875   -0.2455  -22.4615 N.am      1 SEC2        0.0000 
     32 N         -29.2240    0.9100  -23.0470 N.am      4 SEP2        0.0000 
     33 N         -28.7930    0.1540  -19.9490 N.am      1 SEC2        0.0000 
     34 N         -27.7050   -0.8340  -19.9300 N.am      7 SEL2        0.0000 
     35 N         -29.8810    1.1420  -19.9680 N.am      4 SEP2        0.0000 
     36 CA        -12.2395    2.2627  -20.5397 C.3       3 GLC5        0.0000 
     37 CA        -13.0960    1.4150  -22.2830 C.3       9 GLL5        0.0000 
     38 CA        -12.0170    3.0900  -18.7160 C.3       6 GLP5        0.0000 
     39 CA        -12.5055   -0.7393  -21.5130 C.3       3 GLC5        0.0000 
     40 CA        -13.5040    1.1500  -20.9910 C.3       9 GLL5        0.0000 
     41 CA        -11.7110   -2.7610  -21.3890 C.3       6 GLP5        0.0000 
     42 CA        -13.0953    2.1105  -19.7788 C.3       3 GLC5        0.0000 
     43 CA        -13.8917    0.4275  -19.0123 C.3       3 GLC5        0.0000 
     44 CA        -13.6100   -0.2760  -17.1830 C.3       6 GLP5        0.0000 
     45 CA        -15.5373    3.2492  -23.7790 C.3       3 GLC5        0.0000 
     46 CA        -15.4040    1.5780  -23.0130 C.3       9 GLL5        0.0000 
     47 CA        -16.3540    4.8930  -24.3980 C.3       6 GLP5        0.0000 
     48 CA        -16.3215   -0.7776  -20.5781 C.3       3 GLC5        0.0000 
     49 CA        -17.1660    1.2960  -21.1720 C.3       9 GLL5        0.0000 
     50 CA        -16.4070   -2.8060  -19.9740 C.3       6 GLP5        0.0000 
     51 CA        -17.6010   -1.5065  -20.0723 C.3       3 GLC5        0.0000 
     52 CA        -18.7980   -0.2900  -20.8750 C.3       9 GLL5        0.0000 
     53 CA        -18.1788   -2.1515  -19.4790 C.3       3 GLC5        0.0000 
     54 CA        -19.5730   -0.9960  -18.6660 C.3       9 GLL5        0.0000 
     55 CA        -18.1542   -2.2492  -20.5267 C.3       3 GLC5        0.0000 
     56 CA        -20.2770   -2.1100  -20.6910 C.3       9 GLL5        0.0000 
     57 CA        -21.8458   -1.3917  -21.9668 C.3       3 GLC5        0.0000 
     58 CA        -19.5260   -1.2750  -21.4680 C.3       9 GLL5        0.0000 
     59 CA        -23.7900   -1.0910  -22.8540 C.3       6 GLP5        0.0000 
     60 CA        -22.5708   -2.2953  -21.9593 C.3       3 GLC5        0.0000 
     61 CA        -20.9630   -3.0590  -21.4080 C.3       9 GLL5        0.0000 
     62 CA        -24.6900   -2.3485  -21.3307 C.3       3 GLC5        0.0000 
     63 CA        -25.0410   -4.1410  -19.9040 C.3       9 GLL5        0.0000 
@<TRIPOS>BOND
@<TRIPOS>SUBSTRUCTURE
     1 SEC2        1 GROUP        1 X    SEC  0     ROOT SEC X 2
     2 LYC4       13 GROUP        1 X    LYC  0     **** LYC X 4
     3 GLC5        4 GROUP        1 X    GLC  0     **** GLC X 6
     4 SEP2        3 GROUP        1 Y    SEP  0     ROOT SEP Y 9
     5 LYP4       15 GROUP        1 Y    LYP  0     **** LYP Y 11
     6 GLP5        6 GROUP        1 Y    GLP  0     **** GLP Y 13
     7 SEL2        2 GROUP        1 Z    SEL  0     ROOT SEL Z 16
     8 LYL4       14 GROUP        1 Z    LYL  0     **** LYL Z 18
     9 GLL5        5 GROUP        1 Z    GLL  0     **** GLL Z 20
@<TRIPOS>SET

