#    Name: 2uup_LK4_1_ligand
#    Modification time : Tue Mar 25 00:18:15 2014

@<TRIPOS>MOLECULE
2uup_LK4_1_ligand
   51    53     1     0     0
SMALL
NO_CHARGES


@<TRIPOS>ATOM
      1 N31       -10.6970    1.6870  -22.5910 N.1       1 LK41440     0.0000 
      2 C30       -11.8280    1.4560  -22.4440 C.1       1 LK41440     0.0000 
      3 C27       -13.0960    1.4150  -22.2830 C.ar      1 LK41440     0.0000 
      4 C28       -13.5040    1.1500  -20.9910 C.ar      1 LK41440     0.0000 
      5 C29       -14.8430    1.1120  -20.6920 C.ar      1 LK41440     0.0000 
      6 C26       -14.0370    1.6330  -23.3070 C.ar      1 LK41440     0.0000 
      7 C25       -15.4040    1.5780  -23.0130 C.ar      1 LK41440     0.0000 
      8 C24       -15.7690    1.2990  -21.6930 C.ar      1 LK41440     0.0000 
      9 C23       -17.1660    1.2960  -21.1720 C.3       1 LK41440     0.0000 
     10 O22       -18.0820    0.4510  -21.7780 O.3       1 LK41440     0.0000 
     11 C20       -18.7980   -0.2900  -20.8750 C.ar      1 LK41440     0.0000 
     12 C19       -18.7920   -0.1240  -19.4660 C.ar      1 LK41440     0.0000 
     13 C18       -19.5730   -0.9960  -18.6660 C.ar      1 LK41440     0.0000 
     14 C21       -19.5260   -1.2750  -21.4680 C.ar      1 LK41440     0.0000 
     15 C15       -20.2770   -2.1100  -20.6910 C.ar      1 LK41440     0.0000 
     16 C16       -20.3280   -1.9980  -19.3020 C.ar      1 LK41440     0.0000 
     17 C17       -21.1300   -2.9060  -18.6090 C.ar      1 LK41440     0.0000 
     18 C14       -20.9630   -3.0590  -21.4080 C.ar      1 LK41440     0.0000 
     19 C13       -21.7400   -3.9400  -20.7210 C.ar      1 LK41440     0.0000 
     20 C12       -21.8300   -3.8810  -19.3500 C.ar      1 LK41440     0.0000 
     21 S11       -22.8060   -4.9850  -18.7290 S.o2      1 LK41440     0.0000 
     22 O33       -22.4680   -5.3570  -17.3410 O.2       1 LK41440     0.0000 
     23 O32       -22.8200   -6.1180  -19.6730 O.2       1 LK41440     0.0000 
     24 N         -24.2830   -4.3120  -18.6650 N.pl3     1 LK41440     0.0000 
     25 CA        -25.0410   -4.1410  -19.9040 C.3       1 LK41440     0.0000 
     26 C         -25.6660   -5.4470  -20.3740 C.2       1 LK41440     0.0000 
     27 O         -25.6800   -5.7220  -21.5820 O.co2     1 LK41440     0.0000 
     28 OXT       -26.1720   -6.2240  -19.5470 O.co2     1 LK41440     0.0000 
     29 CB        -26.1390   -3.0710  -19.7110 C.3       1 LK41440     0.0000 
     30 CG        -26.7980   -2.7480  -21.0460 C.3       1 LK41440     0.0000 
     31 CD        -27.7430   -1.5740  -20.9390 C.2       1 LK41440     0.0000 
     32 OE1       -28.5510   -1.4010  -21.8760 O.co2     1 LK41440     0.0000 
     33 OE2       -27.7050   -0.8340  -19.9300 O.co2     1 LK41440     0.0000 
     34 H         -12.8012    0.9814  -20.2545 H         1 LK41440     0.0000 
     35 H         -15.1552    0.9445  -19.7238 H         1 LK41440     0.0000 
     36 H         -13.7201    1.8299  -24.2576 H         1 LK41440     0.0000 
     37 H         -16.0985    1.7338  -23.7267 H         1 LK41440     0.0000 
     38 H         -17.5301    2.3762  -21.1950 H         1 LK41440     0.0000 
     39 H         -17.1012    1.0916  -20.0522 H         1 LK41440     0.0000 
     40 H         -18.2376    0.6071  -19.0380 H         1 LK41440     0.0000 
     41 H         -19.5836   -0.8955  -17.6599 H         1 LK41440     0.0000 
     42 H         -19.5122   -1.3916  -22.4937 H         1 LK41440     0.0000 
     43 H         -21.2118   -2.8715  -17.6008 H         1 LK41440     0.0000 
     44 H         -20.8885   -3.0978  -22.4268 H         1 LK41440     0.0000 
     45 H         -22.2760   -4.6709  -21.2344 H         1 LK41440     0.0000 
     46 H         -24.5957   -4.0503  -17.7817 H         1 LK41440     0.0000 
     47 H         -24.3821   -3.7781  -20.6959 H         1 LK41440     0.0000 
     48 H         -25.6865   -2.1750  -19.3002 H         1 LK41440     0.0000 
     49 H         -26.8820   -3.4525  -19.0191 H         1 LK41440     0.0000 
     50 H         -27.3481   -3.6293  -21.3944 H         1 LK41440     0.0000 
     51 H         -26.0188   -2.5239  -21.7831 H         1 LK41440     0.0000 
@<TRIPOS>BOND
     1    2    1 3    
     2    3    2 1    
     3    4    3 ar   
     4    6    3 ar   
     5    5    4 ar   
     6   34    4 1    
     7    8    5 ar   
     8   35    5 1    
     9    7    6 ar   
    10   36    6 1    
    11    8    7 ar   
    12   37    7 1    
    13    9    8 1    
    14   10    9 1    
    15   38    9 1    
    16   39    9 1    
    17   11   10 1    
    18   12   11 ar   
    19   14   11 ar   
    20   13   12 ar   
    21   40   12 1    
    22   16   13 ar   
    23   41   13 1    
    24   15   14 ar   
    25   42   14 1    
    26   16   15 ar   
    27   18   15 ar   
    28   17   16 ar   
    29   20   17 ar   
    30   43   17 1    
    31   19   18 ar   
    32   44   18 1    
    33   20   19 ar   
    34   45   19 1    
    35   21   20 1    
    36   22   21 2    
    37   23   21 2    
    38   24   21 1    
    39   25   24 1    
    40   46   24 1    
    41   26   25 1    
    42   29   25 1    
    43   47   25 1    
    44   27   26 ar   
    45   28   26 ar   
    46   30   29 1    
    47   48   29 1    
    48   49   29 1    
    49   31   30 1    
    50   50   30 1    
    51   51   30 1    
    52   32   31 ar   
    53   33   31 ar   
@<TRIPOS>SUBSTRUCTURE
     1 LK41440     1 GROUP   
@<TRIPOS>SET

