#    Name: 1sqx_SMA_1_INTS_M
#    Modification time : Tue Mar 25 02:40:44 2014

@<TRIPOS>MOLECULE
1sqx_SMA_1_INTS_M
  107     0     6     0     0
SMALL
NO_CHARGES


@<TRIPOS>ATOM
      1 CA         68.8025   53.3315  166.6590 C.3       2 GLC5        0.0000 
      2 CA         70.6740   53.5670  165.6350 C.3       6 GLL5        0.0000 
      3 CA         66.9310   53.0960  167.6830 C.3       4 GLP5        0.0000 
      4 CA         69.9230   50.9250  166.9710 C.3       2 GLC5        0.0000 
      5 CA         71.2080   52.3630  166.1890 C.3       6 GLL5        0.0000 
      6 CA         68.6380   49.4870  167.7530 C.3       4 GLP5        0.0000 
      7 CA         70.0630   50.1960  164.9405 C.3       2 GLC5        0.0000 
      8 CA         71.7810   51.2580  165.3050 C.3       6 GLL5        0.0000 
      9 CA         68.3450   49.1340  164.5760 C.3       4 GLP5        0.0000 
     10 CA         73.1635   49.5710  164.8930 C.3       2 GLC5        0.0000 
     11 CA         74.5460   47.8840  164.4810 C.3       4 GLP5        0.0000 
     12 CA         72.0630   50.8050  163.4780 C.3       2 GLC5        0.0000 
     13 CA         72.3450   50.3520  161.6510 C.3       4 GLP5        0.0000 
     14 CA         72.0970   51.8985  171.9575 C.3       2 GLC5        0.0000 
     15 CA         70.2320   51.3940  171.5410 C.3       6 GLL5        0.0000 
     16 CA         73.9620   52.4030  172.3740 C.3       4 GLP5        0.0000 
     17 CA         69.3095   51.1110  173.2100 C.3       2 GLC5        0.0000 
     18 CA         68.3870   50.8280  174.8790 C.3       4 GLP5        0.0000 
     19 CA         69.4140   50.2950  170.3415 C.3       2 GLC5        0.0000 
     20 CA         68.5960   49.1960  169.1420 C.3       4 GLP5        0.0000 
     21 CA         72.2385   53.5995  170.8510 C.3       2 GLC5        0.0000 
     22 CA         70.1130   54.2030  170.6590 C.3       6 GLL5        0.0000 
     23 CA         74.3640   52.9960  171.0430 C.3       4 GLP5        0.0000 
     24 CA         66.5220   56.2610  172.5930 C.3       2 GLC5        0.0000 
     25 CA         67.7140   56.3990  171.1060 C.3       6 GLL5        0.0000 
     26 CA         65.3300   56.1230  174.0800 C.3       4 GLP5        0.0000 
     27 CA         66.6530   55.6430  169.8110 C.3       2 GLC5        0.0000 
     28 CA         65.5920   54.8870  168.5160 C.3       4 GLP5        0.0000 
     29 CA         72.7870   55.0495  165.2220 C.3       2 GLC5        0.0000 
     30 CA         71.8580   54.3150  163.4750 C.3       6 GLL5        0.0000 
     31 CA         73.7160   55.7840  166.9690 C.3       4 GLP5        0.0000 
     32 CA         70.2090   55.7025  163.9210 C.3       2 GLC5        0.0000 
     33 CA         68.5600   57.0900  164.3670 C.3       4 GLP5        0.0000 
     34 CA         72.1015   52.3335  162.5630 C.3       2 GLC5        0.0000 
     35 CA         69.7770   55.8065  162.8180 C.3       2 GLC5        0.0000 
     36 CA         71.7250   55.2430  162.2260 C.3       6 GLL5        0.0000 
     37 CA         67.8290   56.3700  163.4100 C.3       4 GLP5        0.0000 
     38 CA         75.9665   59.8500  161.2620 C.3       2 GLC5        0.0000 
     39 CA         76.2100   57.9320  162.2260 C.3       6 GLL5        0.0000 
     40 CA         75.7230   61.7680  160.2980 C.3       4 GLP5        0.0000 
     41 CA         75.7155   59.3950  163.8210 C.3       2 GLC5        0.0000 
     42 CA         75.2210   60.8580  165.4160 C.3       4 GLP5        0.0000 
     43 CA         76.8665   60.4270  161.6435 C.3       2 GLC5        0.0000 
     44 CA         78.0100   59.0860  162.9890 C.3       6 GLL5        0.0000 
     45 CA         79.9370   63.3970  165.0165 C.3       2 GLC5        0.0000 
     46 CA         81.3980   62.2490  164.6110 C.3       6 GLL5        0.0000 
     47 CA         78.4760   64.5450  165.4220 C.3       4 GLP5        0.0000 
     48 CA         69.2040   55.8750  161.6555 C.3       2 GLC5        0.0000 
     49 CA         70.6110   54.8970  161.2320 C.3       6 GLL5        0.0000 
     50 CA         67.7970   56.8530  162.0790 C.3       4 GLP5        0.0000 
     51 CA         69.8325   52.9170  160.8425 C.3       2 GLC5        0.0000 
     52 CA         69.0540   50.9370  160.4530 C.3       4 GLP5        0.0000 
     53 CA         72.9400   55.1345  158.8885 C.3       2 GLC5        0.0000 
     54 CA         73.9150   53.9070  159.8290 C.3       6 GLL5        0.0000 
     55 CA         71.9650   56.3620  157.9480 C.3       4 GLP5        0.0000 
     56 CA         74.3200   52.4080  160.9715 C.3       2 GLC5        0.0000 
     57 CA         74.7250   50.9090  162.1140 C.3       4 GLP5        0.0000 
     58 CA         72.6130   53.2875  158.4515 C.3       2 GLC5        0.0000 
     59 CA         71.3110   52.6680  157.0740 C.3       4 GLP5        0.0000 
     60 CA         72.2965   58.5210  160.7105 C.3       2 GLC5        0.0000 
     61 CA         73.2350   57.8210  162.6300 C.3       6 GLL5        0.0000 
     62 CA         71.3580   59.2210  158.7910 C.3       4 GLP5        0.0000 
     63 CA         73.7970   59.7785  161.7995 C.3       2 GLC5        0.0000 
     64 CA         74.3590   61.7360  160.9690 C.3       4 GLP5        0.0000 
     65 CA         72.9705   59.2780  163.7975 C.3       2 GLC5        0.0000 
     66 CA         72.7060   60.7350  164.9650 C.3       4 GLP5        0.0000 
     67 CA         74.4085   57.4345  164.2515 C.3       2 GLC5        0.0000 
     68 CA         75.5820   57.0480  165.8730 C.3       4 GLP5        0.0000 
     69 CA         71.2230   58.2940  162.6590 C.3       2 GLC5        0.0000 
     70 CA         69.2110   58.7670  162.6880 C.3       4 GLP5        0.0000 
     71 CA         75.2000   57.1045  157.5060 C.3       2 GLC5        0.0000 
     72 CA         75.2170   58.0320  159.4820 C.3       6 GLL5        0.0000 
     73 CA         75.1830   56.1770  155.5300 C.3       4 GLP5        0.0000 
     74 CA         73.5910   57.1970  158.7150 C.3       2 GLC5        0.0000 
     75 CA         75.4700   59.9000  159.8900 C.3       2 GLC5        0.0000 
     76 CA         77.1840   61.7640  161.8800 C.3       2 GLC5        0.0000 
     77 CA         78.6450   61.7600  163.4620 C.3       6 GLL5        0.0000 
     78 O          68.0340   57.2555  167.8930 O.2       1 ALC1        0.0000 
     79 O          69.1320   56.5080  167.9810 O.2       5 ALL1        0.0000 
     80 O          66.9360   58.0030  167.8050 O.2       3 ALP1        0.0000 
     81 CA         72.3285   54.3745  166.4405 C.3       2 GLC5        0.0000 
     82 CA         68.8600   54.3955  164.3540 C.3       2 GLC5        0.0000 
     83 CA         67.1100   55.0820  163.8250 C.3       4 GLP5        0.0000 
     84 CA         72.4228   52.5517  169.5700 C.3       2 GLC5        0.0000 
     85 CA         70.6590   53.2000  168.4660 C.3       6 GLL5        0.0000 
     86 CA         74.2150   51.9520  169.9550 C.3       4 GLP5        0.0000 
     87 CA         71.4897   55.2720  167.6713 C.3       2 GLC5        0.0000 
     88 CA         72.5730   56.7610  167.1810 C.3       4 GLP5        0.0000 
     89 CA         71.0700   56.0595  168.2558 C.3       2 GLC5        0.0000 
     90 CA         69.5320   55.3120  170.0340 C.3       6 GLL5        0.0000 
     91 CA         68.2644   53.6262  169.6499 C.3       2 GLC5        0.0000 
     92 CA         66.5840   52.7700  169.1420 C.3       4 GLP5        0.0000 
     93 CA         70.9171   56.3434  170.5349 C.3       2 GLC5        0.0000 
     94 CA         72.1220   57.6060  171.5830 C.3       4 GLP5        0.0000 
     95 CA         68.4676   53.8447  168.0386 C.3       2 GLC5        0.0000 
     96 CA         69.6020   55.4040  168.6270 C.3       6 GLL5        0.0000 
     97 CA         75.1467   56.8520  163.9105 C.3       2 GLC5        0.0000 
     98 CA         73.9920   56.5410  162.2440 C.3       6 GLL5        0.0000 
     99 CA         77.4888   59.9290  164.7420 C.3       2 GLC5        0.0000 
    100 CA         76.3610   60.6750  166.2450 C.3       4 GLP5        0.0000 
    101 CA         76.5015   57.7656  164.2917 C.3       2 GLC5        0.0000 
    102 CA         77.7463   60.9380  164.9338 C.3       2 GLC5        0.0000 
    103 CA         79.6180   60.6420  163.7830 C.3       6 GLL5        0.0000 
    104 CA         78.8037   62.8730  164.5222 C.3       2 GLC5        0.0000 
    105 CA         81.5917   61.3710  166.2632 C.3       2 GLC5        0.0000 
    106 CA         82.0640   61.1830  168.0720 C.3       4 GLP5        0.0000 
    107 CA         71.7353   55.7504  159.7459 C.3       2 GLC5        0.0000 
@<TRIPOS>BOND
@<TRIPOS>SUBSTRUCTURE
     1 ALC1       78 GROUP        1 X    ALC  0     ROOT ALC X 1
     2 GLC5        1 GROUP        1 X    GLC  0     **** GLC X 6
     3 ALP1       80 GROUP        1 Y    ALP  0     ROOT ALP Y 8
     4 GLP5        3 GROUP        1 Y    GLP  0     **** GLP Y 13
     5 ALL1       79 GROUP        1 Z    ALL  0     ROOT ALL Z 15
     6 GLL5        2 GROUP        1 Z    GLL  0     **** GLL Z 20
@<TRIPOS>SET

