#    Name: 1sqx_SMA_1_ligand
#    Modification time : Tue Mar 25 02:40:44 2014

@<TRIPOS>MOLECULE
1sqx_SMA_1_ligand
   79    80     1     0     0
SMALL
NO_CHARGES


@<TRIPOS>ATOM
      1 C2         70.6740   53.5670  165.6350 C.2       1 SMA383      0.0000 
      2 C3         71.2080   52.3630  166.1890 C.2       1 SMA383      0.0000 
      3 C3M        71.7810   51.2580  165.3050 C.3       1 SMA383      0.0000 
      4 C4         71.2010   52.1870  167.6110 C.2       1 SMA383      0.0000 
      5 C4A        70.6590   53.2000  168.4660 C.ar      1 SMA383      0.0000 
      6 C5         70.6020   53.1030  169.9040 C.ar      1 SMA383      0.0000 
      7 C5M        70.2320   51.3940  171.5410 C.3       1 SMA383      0.0000 
      8 C6         70.1130   54.2030  170.6590 C.ar      1 SMA383      0.0000 
      9 C7         69.5320   55.3120  170.0340 C.ar      1 SMA383      0.0000 
     10 C7M        67.7140   56.3990  171.1060 C.3       1 SMA383      0.0000 
     11 C8         69.6020   55.4040  168.6270 C.ar      1 SMA383      0.0000 
     12 C8A        70.1540   54.3660  167.8570 C.ar      1 SMA383      0.0000 
     13 C9         70.5460   53.8510  164.1310 C.3       1 SMA383      0.0000 
     14 C10        71.8580   54.3150  163.4750 C.3       1 SMA383      0.0000 
     15 C11        71.7250   55.2430  162.2260 C.3       1 SMA383      0.0000 
     16 C12        73.0750   55.5180  161.4850 C.3       1 SMA383      0.0000 
     17 C13        73.9920   56.5410  162.2440 C.3       1 SMA383      0.0000 
     18 C14        75.4310   56.7710  161.6520 C.3       1 SMA383      0.0000 
     19 C15        76.2100   57.9320  162.2260 C.2       1 SMA383      0.0000 
     20 C16        77.4540   57.8290  162.6380 C.2       1 SMA383      0.0000 
     21 C17        78.0100   59.0860  162.9890 C.2       1 SMA383      0.0000 
     22 C18        79.2230   59.2800  163.4890 C.2       1 SMA383      0.0000 
     23 C19        79.6180   60.6420  163.7830 C.2       1 SMA383      0.0000 
     24 C20        80.8410   60.8690  164.2980 C.2       1 SMA383      0.0000 
     25 C21        81.3980   62.2490  164.6110 C.3       1 SMA383      0.0000 
     26 C22        70.6110   54.8970  161.2320 C.3       1 SMA383      0.0000 
     27 C23        73.9150   53.9070  159.8290 C.3       1 SMA383      0.0000 
     28 C24        73.2350   57.8210  162.6300 C.3       1 SMA383      0.0000 
     29 C25        75.2170   58.0320  159.4820 C.3       1 SMA383      0.0000 
     30 C26        78.6450   61.7600  163.4620 C.3       1 SMA383      0.0000 
     31 O1         70.1430   54.4990  166.4840 O.3       1 SMA383      0.0000 
     32 O4         71.6670   51.1420  168.0840 O.2       1 SMA383      0.0000 
     33 O5         71.1180   51.9970  170.5770 O.3       1 SMA383      0.0000 
     34 O7         69.1100   56.3830  170.8070 O.3       1 SMA383      0.0000 
     35 O8         69.1320   56.5080  167.9810 O.3       1 SMA383      0.0000 
     36 O12        73.7590   54.2720  161.2130 O.3       1 SMA383      0.0000 
     37 O14        75.5210   56.8050  160.1910 O.3       1 SMA383      0.0000 
     38 H          70.1921   54.1746  171.6864 H         1 SMA383      0.0000 
     39 H          69.7800   54.6244  163.9780 H         1 SMA383      0.0000 
     40 H          70.1990   52.9394  163.6242 H         1 SMA383      0.0000 
     41 H          72.4463   53.4225  163.1777 H         1 SMA383      0.0000 
     42 H          72.4704   54.8459  164.2327 H         1 SMA383      0.0000 
     43 H          71.4344   56.2764  162.6513 H         1 SMA383      0.0000 
     44 H          72.8016   56.0003  160.5228 H         1 SMA383      0.0000 
     45 H          74.1899   56.0151  163.2703 H         1 SMA383      0.0000 
     46 H          76.0281   55.8351  161.9774 H         1 SMA383      0.0000 
     47 H          75.6628   58.8237  162.2630 H         1 SMA383      0.0000 
     48 H          77.9862   57.0032  162.7141 H         1 SMA383      0.0000 
     49 H          77.3662   59.9292  162.8223 H         1 SMA383      0.0000 
     50 H          79.8915   58.5412  163.6791 H         1 SMA383      0.0000 
     51 H          81.5054   60.0894  164.5223 H         1 SMA383      0.0000 
     52 H          72.5496   51.5838  164.7545 H         1 SMA383      0.0000 
     53 H          72.1142   50.4854  165.8454 H         1 SMA383      0.0000 
     54 H          71.0973   50.8984  164.6700 H         1 SMA383      0.0000 
     55 H          70.6531   50.6063  171.9906 H         1 SMA383      0.0000 
     56 H          69.9724   52.0380  172.2606 H         1 SMA383      0.0000 
     57 H          69.3857   51.0716  171.1169 H         1 SMA383      0.0000 
     58 H          67.4320   55.5806  171.6068 H         1 SMA383      0.0000 
     59 H          67.4636   57.1873  171.6680 H         1 SMA383      0.0000 
     60 H          67.1570   56.4415  170.2766 H         1 SMA383      0.0000 
     61 H          82.3226   62.1994  164.9887 H         1 SMA383      0.0000 
     62 H          81.4454   62.8243  163.7945 H         1 SMA383      0.0000 
     63 H          80.8341   62.7343  165.2792 H         1 SMA383      0.0000 
     64 H          70.5893   55.5344  160.4618 H         1 SMA383      0.0000 
     65 H          70.7255   53.9798  160.8503 H         1 SMA383      0.0000 
     66 H          69.7083   54.9252  161.6613 H         1 SMA383      0.0000 
     67 H          74.4377   54.5916  159.3210 H         1 SMA383      0.0000 
     68 H          74.3955   53.0360  159.7265 H         1 SMA383      0.0000 
     69 H          73.0326   53.8109  159.3685 H         1 SMA383      0.0000 
     70 H          73.8237   58.4693  163.1128 H         1 SMA383      0.0000 
     71 H          72.8735   58.2951  161.8272 H         1 SMA383      0.0000 
     72 H          72.4589   57.6268  163.2299 H         1 SMA383      0.0000 
     73 H          75.8211   58.7797  159.7577 H         1 SMA383      0.0000 
     74 H          75.3170   57.9239  158.4929 H         1 SMA383      0.0000 
     75 H          74.2792   58.3356  159.6504 H         1 SMA383      0.0000 
     76 H          79.0172   62.6566  163.7019 H         1 SMA383      0.0000 
     77 H          78.4190   61.7875  162.4883 H         1 SMA383      0.0000 
     78 H          77.7839   61.6574  163.9600 H         1 SMA383      0.0000 
     79 H          68.1995   56.6295  168.3213 H         1 SMA383      0.0000 
@<TRIPOS>BOND
     1    2    1 2    
     2   13    1 1    
     3   31    1 1    
     4    3    2 1    
     5    4    2 1    
     6   52    3 1    
     7   53    3 1    
     8   54    3 1    
     9    5    4 1    
    10   32    4 2    
    11    6    5 ar   
    12   12    5 ar   
    13    8    6 ar   
    14   33    6 1    
    15   33    7 1    
    16   55    7 1    
    17   56    7 1    
    18   57    7 1    
    19    9    8 ar   
    20   38    8 1    
    21   11    9 ar   
    22   34    9 1    
    23   34   10 1    
    24   58   10 1    
    25   59   10 1    
    26   60   10 1    
    27   12   11 ar   
    28   35   11 1    
    29   31   12 1    
    30   14   13 1    
    31   39   13 1    
    32   40   13 1    
    33   15   14 1    
    34   41   14 1    
    35   42   14 1    
    36   16   15 1    
    37   26   15 1    
    38   43   15 1    
    39   17   16 1    
    40   36   16 1    
    41   44   16 1    
    42   18   17 1    
    43   28   17 1    
    44   45   17 1    
    45   19   18 1    
    46   37   18 1    
    47   46   18 1    
    48   20   19 2    
    49   47   19 1    
    50   21   20 1    
    51   48   20 1    
    52   22   21 2    
    53   49   21 1    
    54   23   22 1    
    55   50   22 1    
    56   24   23 2    
    57   30   23 1    
    58   25   24 1    
    59   51   24 1    
    60   61   25 1    
    61   62   25 1    
    62   63   25 1    
    63   64   26 1    
    64   65   26 1    
    65   66   26 1    
    66   36   27 1    
    67   67   27 1    
    68   68   27 1    
    69   69   27 1    
    70   70   28 1    
    71   71   28 1    
    72   72   28 1    
    73   37   29 1    
    74   73   29 1    
    75   74   29 1    
    76   75   29 1    
    77   76   30 1    
    78   77   30 1    
    79   78   30 1    
    80   79   35 1    
@<TRIPOS>SUBSTRUCTURE
     1 SMA383      1 GROUP   
@<TRIPOS>SET

