#    Name: 2wue_KEK_1_INTS_M
#    Modification time : Tue Mar 25 04:41:49 2014

@<TRIPOS>MOLECULE
2wue_KEK_1_INTS_M
   56     0     6     0     0
SMALL
NO_CHARGES


@<TRIPOS>ATOM
      1 CA          9.0985  -41.5935    7.2820 C.3       2 GLC5        0.0000 
      2 CA         10.8520  -40.7440    6.9840 C.3       6 GLL5        0.0000 
      3 CA          7.3450  -42.4430    7.5800 C.3       4 GLP5        0.0000 
      4 CA         10.9885  -41.3340    4.1440 C.3       2 GLC5        0.0000 
      5 CA         12.7300  -41.0070    4.8310 C.3       6 GLL5        0.0000 
      6 CA          9.2470  -41.6610    3.4570 C.3       4 GLP5        0.0000 
      7 CA         16.8050  -39.6970    4.6985 C.3       2 GLC5        0.0000 
      8 CA         15.3340  -41.2280    5.2510 C.3       6 GLL5        0.0000 
      9 CA         18.2760  -38.1660    4.1460 C.3       4 GLP5        0.0000 
     10 CA         13.3210  -40.1235   10.8205 C.3       2 GLC5        0.0000 
     11 CA         13.3730  -40.8680    8.8240 C.3       6 GLL5        0.0000 
     12 CA         13.2690  -39.3790   12.8170 C.3       4 GLP5        0.0000 
     13 CA         12.2560  -39.0605    8.2540 C.3       2 GLC5        0.0000 
     14 CA         11.1390  -37.2530    7.6840 C.3       4 GLP5        0.0000 
     15 CA         11.2925  -39.7025   12.4300 C.3       2 GLC5        0.0000 
     16 CA          9.3160  -40.0260   12.0430 C.3       6 GLL5        0.0000 
     17 CA         10.1170  -38.2485   12.1045 C.3       2 GLC5        0.0000 
     18 CA         10.9180  -36.4710   12.1660 C.3       4 GLP5        0.0000 
     19 CA          7.3145  -39.3520   11.6100 C.3       2 GLC5        0.0000 
     20 CA          5.3130  -38.6780   11.1770 C.3       4 GLP5        0.0000 
     21 N          10.0120  -37.7010   13.3985 N.am      1 SEC2        0.0000 
     22 N           8.5400  -37.6970   14.1180 N.am      5 SEL2        0.0000 
     23 N          11.4840  -37.7050   12.6790 N.am      3 SEP2        0.0000 
     24 N          10.6335  -38.3715   14.0045 N.am      1 SEC2        0.0000 
     25 N           9.7830  -39.0380   15.3300 N.am      5 SEL2        0.0000 
     26 N           9.6650  -39.3920   16.8265 N.am      1 SEC2        0.0000 
     27 N           9.5470  -39.7460   18.3230 N.am      3 SEP2        0.0000 
     28 CA         10.4785  -38.0350   10.8445 C.3       2 GLC5        0.0000 
     29 CA         10.0390  -39.5990    9.5230 C.3       6 GLL5        0.0000 
     30 CA         10.5890  -38.4260    8.6035 C.3       2 GLC5        0.0000 
     31 CA          8.9385  -37.9805    9.7015 C.3       2 GLC5        0.0000 
     32 CA          7.8380  -36.3620    9.8800 C.3       4 GLP5        0.0000 
     33 N          12.1435  -41.1625   12.3985 N.am      1 SEC2        0.0000 
     34 N          11.7820  -41.9140   11.3060 N.am      5 SEL2        0.0000 
     35 N          12.5050  -40.4110   13.4910 N.am      3 SEP2        0.0000 
     36 N          12.3085  -43.1730   11.6985 N.am      1 SEC2        0.0000 
     37 N          12.8350  -44.4320   12.0910 N.am      3 SEP2        0.0000 
     38 CA         10.4593  -41.2490    5.0587 C.3       2 GLC5        0.0000 
     39 CA         11.4052  -39.0450    7.1723 C.3       2 GLC5        0.0000 
     40 CA         16.2483  -40.3537    6.8630 C.3       2 GLC5        0.0000 
     41 CA         15.0870  -41.1330    6.7690 C.3       6 GLL5        0.0000 
     42 CA         17.2860  -39.5270    7.7160 C.3       4 GLP5        0.0000 
     43 CA         15.4163  -42.1352    8.5027 C.3       2 GLC5        0.0000 
     44 CA         16.4540  -43.2200    9.9600 C.3       4 GLP5        0.0000 
     45 CA         14.8582  -39.5560    8.1230 C.3       2 GLC5        0.0000 
     46 CA         13.6700  -40.9680    7.3220 C.3       6 GLL5        0.0000 
     47 CA         16.1950  -38.1940    8.1730 C.3       4 GLP5        0.0000 
     48 CA         13.7785  -42.1407   10.3475 C.3       2 GLC5        0.0000 
     49 CA         14.7410  -42.8910   11.7870 C.3       4 GLP5        0.0000 
     50 CA          9.8565  -42.3485   11.9615 C.3       2 GLC5        0.0000 
     51 CA         10.2150  -44.1400   12.5680 C.3       4 GLP5        0.0000 
     52 CA          7.8100  -41.5010   11.5035 C.3       2 GLC5        0.0000 
     53 CA         10.0320  -41.0520   10.0010 C.3       6 GLL5        0.0000 
     54 CA          6.1220  -42.4450   11.6520 C.3       4 GLP5        0.0000 
     55 CA          8.6022  -41.3933    8.8375 C.3       2 GLC5        0.0000 
     56 CA          9.3280  -41.1240   11.3330 C.3       6 GLL5        0.0000 
@<TRIPOS>BOND
@<TRIPOS>SUBSTRUCTURE
     1 SEC2       21 GROUP        1 X    SEC  0     ROOT SEC X 2
     2 GLC5        1 GROUP        1 X    GLC  0     **** GLC X 6
     3 SEP2       23 GROUP        1 Y    SEP  0     ROOT SEP Y 9
     4 GLP5        3 GROUP        1 Y    GLP  0     **** GLP Y 13
     5 SEL2       22 GROUP        1 Z    SEL  0     ROOT SEL Z 16
     6 GLL5        2 GROUP        1 Z    GLL  0     **** GLL Z 20
@<TRIPOS>SET

