#    Name: 2wue_KEK_1_ligand
#    Modification time : Tue Mar 25 04:41:49 2014

@<TRIPOS>MOLECULE
2wue_KEK_1_ligand
   34    34     1     0     0
SMALL
NO_CHARGES


@<TRIPOS>ATOM
      1 CL         10.8520  -40.7440    6.9840 Cl        1 KEK1289     0.0000 
      2 C02        12.4910  -40.9300    6.3370 C.ar      1 KEK1289     0.0000 
      3 C03        12.7300  -41.0070    4.8310 C.ar      1 KEK1289     0.0000 
      4 C04        14.1470  -41.1610    4.2750 C.ar      1 KEK1289     0.0000 
      5 C05        15.3340  -41.2280    5.2510 C.ar      1 KEK1289     0.0000 
      6 C06        15.0870  -41.1330    6.7690 C.ar      1 KEK1289     0.0000 
      7 C07        13.6700  -40.9680    7.3220 C.ar      1 KEK1289     0.0000 
      8 C08        13.3730  -40.8680    8.8240 C.3       1 KEK1289     0.0000 
      9 C09        12.2590  -41.9130    8.9920 C.3       1 KEK1289     0.0000 
     10 C10        11.4280  -41.6380   10.2330 C.2       1 KEK1289     0.0000 
     11 C11        10.0320  -41.0520   10.0010 C.3       1 KEK1289     0.0000 
     12 C12         9.3280  -41.1240   11.3330 C.2       1 KEK1289     0.0000 
     13 C13         9.3160  -40.0260   12.0430 C.2       1 KEK1289     0.0000 
     14 C14         8.9360  -40.1490   13.4940 C.2       1 KEK1289     0.0000 
     15 C15         8.9720  -38.9910   14.4800 C.2       1 KEK1289     0.0000 
     16 O16         8.5400  -37.6970   14.1180 O.co2     1 KEK1289     0.0000 
     17 O17         9.7830  -39.0380   15.3300 O.co2     1 KEK1289     0.0000 
     18 O18         8.9470  -41.2310   13.9180 O.2       1 KEK1289     0.0000 
     19 C19        10.0390  -39.5990    9.5230 C.3       1 KEK1289     0.0000 
     20 O20        11.7820  -41.9140   11.3060 O.2       1 KEK1289     0.0000 
     21 H          11.9650  -40.9571    4.2099 H         1 KEK1289     0.0000 
     22 H          14.2996  -41.2163    3.3140 H         1 KEK1289     0.0000 
     23 H          16.2447  -41.3307    4.9097 H         1 KEK1289     0.0000 
     24 H          15.8536  -41.1795    7.3870 H         1 KEK1289     0.0000 
     25 H          13.0012  -39.9121    9.0519 H         1 KEK1289     0.0000 
     26 H          14.2189  -41.1581    9.3756 H         1 KEK1289     0.0000 
     27 H          12.7121  -42.9023    9.0674 H         1 KEK1289     0.0000 
     28 H          11.6176  -41.8895    8.1101 H         1 KEK1289     0.0000 
     29 H           9.5041  -41.6662    9.3043 H         1 KEK1289     0.0000 
     30 H           8.9232  -42.0076   11.5724 H         1 KEK1289     0.0000 
     31 H           9.5356  -39.0968   11.7218 H         1 KEK1289     0.0000 
     32 H          10.4858  -38.9935   10.1816 H         1 KEK1289     0.0000 
     33 H          10.5238  -39.4961    8.6544 H         1 KEK1289     0.0000 
     34 H           9.1125  -39.2490    9.3848 H         1 KEK1289     0.0000 
@<TRIPOS>BOND
     1    2    1 1    
     2    3    2 ar   
     3    7    2 ar   
     4    4    3 ar   
     5   21    3 1    
     6    5    4 ar   
     7   22    4 1    
     8    6    5 ar   
     9   23    5 1    
    10    7    6 ar   
    11   24    6 1    
    12    8    7 1    
    13    9    8 1    
    14   25    8 1    
    15   26    8 1    
    16   10    9 1    
    17   27    9 1    
    18   28    9 1    
    19   11   10 1    
    20   20   10 2    
    21   12   11 1    
    22   19   11 1    
    23   29   11 1    
    24   13   12 2    
    25   30   12 1    
    26   14   13 1    
    27   31   13 1    
    28   15   14 1    
    29   18   14 2    
    30   16   15 ar   
    31   17   15 ar   
    32   32   19 1    
    33   33   19 1    
    34   34   19 1    
@<TRIPOS>SUBSTRUCTURE
     1 KEK1289     1 GROUP   
@<TRIPOS>SET

