#    Name: 2a5u_QYT_1_INTS_M
#    Modification time : Mon Mar 24 18:33:22 2014

@<TRIPOS>MOLECULE
2a5u_QYT_1_INTS_M
   36     0     6     0     0
SMALL
NO_CHARGES


@<TRIPOS>ATOM
      1 CA         41.8110   14.1120   29.2420 C.3       2 GLC5        0.0000 
      2 CA         42.7360   13.2970   30.6610 C.3       6 GLL5        0.0000 
      3 CA         40.8860   14.9270   27.8230 C.3       4 GLP5        0.0000 
      4 CA         47.2690   11.7785   27.4280 C.3       2 GLC5        0.0000 
      5 CA         47.1300   12.8870   28.7660 C.3       6 GLL5        0.0000 
      6 CA         47.4080   10.6700   26.0900 C.3       4 GLP5        0.0000 
      7 CA         43.9340   13.8790   33.1305 C.3       2 GLC5        0.0000 
      8 CA         42.2430   15.0400   32.4810 C.3       6 GLL5        0.0000 
      9 CA         45.6250   12.7180   33.7800 C.3       4 GLP5        0.0000 
     10 CA         39.7985   13.8770   34.3985 C.3       2 GLC5        0.0000 
     11 CA         40.9350   14.7990   32.7170 C.3       6 GLL5        0.0000 
     12 CA         38.6620   12.9550   36.0800 C.3       4 GLP5        0.0000 
     13 CA         40.3445   14.4175   29.7570 C.3       2 GLC5        0.0000 
     14 CA         39.8030   13.9080   31.6910 C.3       6 GLL5        0.0000 
     15 CA         38.3715   14.4105   30.7060 C.3       2 GLC5        0.0000 
     16 CA         36.9400   14.9130   29.7210 C.3       4 GLP5        0.0000 
     17 N          37.4955   13.2575   33.7920 N.am      1 SEC2        0.0000 
     18 N          37.3430   13.7130   32.5670 N.am      5 SEL2        0.0000 
     19 N          37.6480   12.8020   35.0170 N.am      3 SEP2        0.0000 
     20 CA         43.2285   13.8030   28.3193 C.3       2 GLC5        0.0000 
     21 CA         43.6770   12.6420   29.7220 C.3       6 GLL5        0.0000 
     22 CA         42.1380   14.7460   26.9450 C.3       4 GLP5        0.0000 
     23 CA         43.3526   15.5862   30.0733 C.3       2 GLC5        0.0000 
     24 CA         45.4170   14.2090   30.5130 C.3       6 GLL5        0.0000 
     25 CA         42.0700   16.7780   29.1800 C.3       4 GLP5        0.0000 
     26 CA         43.7494   11.4039   30.8856 C.3       2 GLC5        0.0000 
     27 CA         43.4150    9.7840   31.8430 C.3       4 GLP5        0.0000 
     28 CA         47.9548   11.6587   29.9600 C.3       2 GLC5        0.0000 
     29 CA         48.5510    9.8600   30.7280 C.3       4 GLP5        0.0000 
     30 CA         47.3683   15.3293   28.4545 C.3       2 GLC5        0.0000 
     31 CA         47.3780   17.2010   27.7170 C.3       4 GLP5        0.0000 
     32 CA         45.2507   15.6164   29.3317 C.3       2 GLC5        0.0000 
     33 CA         44.5620   14.8140   31.3680 C.3       6 GLL5        0.0000 
     34 CA         45.6260   17.0040   27.9350 C.3       4 GLP5        0.0000 
     35 CA         41.8295   15.8487   30.8895 C.3       2 GLC5        0.0000 
     36 CA         45.0476   13.3493   32.2166 C.3       2 GLC5        0.0000 
@<TRIPOS>BOND
@<TRIPOS>SUBSTRUCTURE
     1 SEC2       17 GROUP        1 X    SEC  0     ROOT SEC X 2
     2 GLC5        1 GROUP        1 X    GLC  0     **** GLC X 6
     3 SEP2       19 GROUP        1 Y    SEP  0     ROOT SEP Y 9
     4 GLP5        3 GROUP        1 Y    GLP  0     **** GLP Y 13
     5 SEL2       18 GROUP        1 Z    SEL  0     ROOT SEL Z 16
     6 GLL5        2 GROUP        1 Z    GLL  0     **** GLL Z 20
@<TRIPOS>SET

