#    Name: 2a5u_QYT_1_ligand
#    Modification time : Mon Mar 24 18:33:22 2014

@<TRIPOS>MOLECULE
2a5u_QYT_1_ligand
   25    27     1     0     0
SMALL
NO_CHARGES


@<TRIPOS>ATOM
      1 C1         43.6770   12.6420   29.7220 C.ar      1 QYT101      0.0000 
      2 C2         42.7360   13.2970   30.6610 C.ar      1 QYT101      0.0000 
      3 C3         43.1450   14.3460   31.4720 C.ar      1 QYT101      0.0000 
      4 C7         40.2380   15.2630   33.9000 C.2       1 QYT101      0.0000 
      5 C11        38.4880   14.1470   32.7760 C.2       1 QYT101      0.0000 
      6 C13        45.4170   14.2090   30.5130 C.ar      1 QYT101      0.0000 
      7 C14        44.9610   13.0780   29.6650 C.ar      1 QYT101      0.0000 
      8 C16        47.1300   12.8870   28.7660 C.ar      1 QYT101      0.0000 
      9 N18        46.7620   14.6190   30.4190 N.ar      1 QYT101      0.0000 
     10 C4         44.5620   14.8140   31.3680 C.ar      1 QYT101      0.0000 
     11 C5         42.2430   15.0400   32.4810 C.2       1 QYT101      0.0000 
     12 C6         40.9350   14.7990   32.7170 C.2       1 QYT101      0.0000 
     13 S8         39.8030   13.9080   31.6910 S.3       1 QYT101      0.0000 
     14 N9         38.8610   14.8910   33.9230 N.am      1 QYT101      0.0000 
     15 O10        40.7720   15.9160   34.8020 O.2       1 QYT101      0.0000 
     16 O12        37.3430   13.7130   32.5670 O.2       1 QYT101      0.0000 
     17 N15        45.8980   12.4730   28.8120 N.ar      1 QYT101      0.0000 
     18 C17        47.5870   14.0280   29.6180 C.ar      1 QYT101      0.0000 
     19 H          43.3126   11.8852   29.1553 H         1 QYT101      0.0000 
     20 H          41.7777   12.9403   30.6815 H         1 QYT101      0.0000 
     21 H          47.8660   12.4799   28.1626 H         1 QYT101      0.0000 
     22 H          44.8221   15.5958   31.9702 H         1 QYT101      0.0000 
     23 H          42.7616   15.7948   33.0360 H         1 QYT101      0.0000 
     24 H          38.2582   15.1214   34.6380 H         1 QYT101      0.0000 
     25 H          48.5837   14.2778   29.5008 H         1 QYT101      0.0000 
@<TRIPOS>BOND
     1    2    1 ar   
     2    7    1 ar   
     3   19    1 1    
     4    3    2 ar   
     5   20    2 1    
     6   10    3 ar   
     7   11    3 1    
     8   12    4 1    
     9   14    4 am   
    10   15    4 2    
    11   13    5 1    
    12   14    5 am   
    13   16    5 2    
    14    7    6 ar   
    15    9    6 ar   
    16   10    6 ar   
    17   17    7 ar   
    18   17    8 ar   
    19   18    8 ar   
    20   21    8 1    
    21   18    9 ar   
    22   22   10 1    
    23   12   11 2    
    24   23   11 1    
    25   13   12 1    
    26   24   14 1    
    27   25   18 1    
@<TRIPOS>SUBSTRUCTURE
     1 QYT101      1 GROUP   
@<TRIPOS>SET

