#    Name: 3az3_DS6_1_INTS_M
#    Modification time : Mon Mar 24 18:29:42 2014

@<TRIPOS>MOLECULE
3az3_DS6_1_INTS_M
  134     0    12     0     0
SMALL
NO_CHARGES


@<TRIPOS>ATOM
      1 NZ         13.3090   13.7410   37.8155 N.4       3 LYC4        0.0000 
      2 NZ         13.3870   12.7610   36.3920 N.4      11 LYL4        0.0000 
      3 NZ         13.5850   13.6380   39.9170 N.4       7 LYP4        0.0000 
      4 N          13.3090   13.7410   37.8155 N.am      2 SEC2        0.0000 
      5 N          13.3870   12.7610   36.3920 N.am     10 SEL2        0.0000 
      6 N          13.2310   14.7210   39.2390 N.am      6 SEP2        0.0000 
      7 N          13.5580   12.6185   37.8410 N.am      2 SEC2        0.0000 
      8 N          13.7290   12.4760   39.2900 N.am      6 SEP2        0.0000 
      9 CA          6.9065   27.6985   32.8250 C.3       4 GLC5        0.0000 
     10 CA          7.4370   25.8900   33.0850 C.3      12 GLL5        0.0000 
     11 CA          6.3760   29.5070   32.5650 C.3       8 GLP5        0.0000 
     12 CA          2.6120   25.2165   31.5030 C.3       4 GLC5        0.0000 
     13 CA          2.4450   25.0800   33.4760 C.3      12 GLL5        0.0000 
     14 CA          2.7790   25.3530   29.5300 C.3       8 GLP5        0.0000 
     15 CA          1.3850   25.8200   34.8785 C.3       4 GLC5        0.0000 
     16 CA          0.3250   26.5600   36.2810 C.3       8 GLP5        0.0000 
     17 CA          1.9010   26.7495   32.5745 C.3       4 GLC5        0.0000 
     18 CA          1.3570   28.4190   31.6730 C.3       8 GLP5        0.0000 
     19 CA          1.1185   24.4090   32.3335 C.3       4 GLC5        0.0000 
     20 CA         -0.2080   23.7380   31.1910 C.3       8 GLP5        0.0000 
     21 CA          1.4240   23.3680   34.2175 C.3       4 GLC5        0.0000 
     22 CA          0.4030   21.6560   34.9590 C.3       8 GLP5        0.0000 
     23 CA          9.0850   29.0045   35.6090 C.3       4 GLC5        0.0000 
     24 CA          9.4460   27.2500   35.0150 C.3      12 GLL5        0.0000 
     25 CA          8.7240   30.7590   36.2030 C.3       8 GLP5        0.0000 
     26 CA         11.5800   27.7885   35.3060 C.3       4 GLC5        0.0000 
     27 CA         13.7140   28.3270   35.5970 C.3       8 GLP5        0.0000 
     28 CA          7.7920   27.5200   36.2685 C.3       4 GLC5        0.0000 
     29 CA          6.1380   27.7900   37.5220 C.3       8 GLP5        0.0000 
     30 CA         15.0905   24.2120   33.6310 C.3       4 GLC5        0.0000 
     31 CA         12.9350   23.8460   33.4810 C.3      12 GLL5        0.0000 
     32 CA         17.2460   24.5780   33.7810 C.3       8 GLP5        0.0000 
     33 CA         15.2955   25.0375   34.5000 C.3       4 GLC5        0.0000 
     34 CA         13.7580   24.2360   34.7620 C.3      12 GLL5        0.0000 
     35 CA         16.8330   25.8390   34.2380 C.3       8 GLP5        0.0000 
     36 CA         13.7360   26.2815   35.1795 C.3       4 GLC5        0.0000 
     37 CA         11.9975   22.4990   36.9325 C.3       4 GLC5        0.0000 
     38 CA         13.2040   23.8230   36.1360 C.3      12 GLL5        0.0000 
     39 CA         10.7910   21.1750   37.7290 C.3       8 GLP5        0.0000 
     40 CA         12.9815   24.4800   38.0185 C.3       4 GLC5        0.0000 
     41 CA         12.7590   25.1370   39.9010 C.3       8 GLP5        0.0000 
     42 CA          4.8630   22.1695   35.5475 C.3       4 GLC5        0.0000 
     43 CA          3.7680   23.9480   35.3380 C.3      12 GLL5        0.0000 
     44 CA          5.9580   20.3910   35.7570 C.3       8 GLP5        0.0000 
     45 CA          2.0465   25.2540   35.8095 C.3       4 GLC5        0.0000 
     46 CA          2.0855   22.8020   35.1485 C.3       4 GLC5        0.0000 
     47 CA          3.4965   23.0515   36.8880 C.3       4 GLC5        0.0000 
     48 CA          3.2250   22.1550   38.4380 C.3       8 GLP5        0.0000 
     49 CA         15.6150   13.8995   35.4220 C.3       4 GLC5        0.0000 
     50 CA         13.7800   13.9470   34.4020 C.3      12 GLL5        0.0000 
     51 CA         17.4500   13.8520   36.4420 C.3       8 GLP5        0.0000 
     52 CA         12.4360   12.7345   33.5955 C.3       4 GLC5        0.0000 
     53 CA         11.0920   11.5220   32.7890 C.3       8 GLP5        0.0000 
     54 CA          3.3710   24.2995   31.2660 C.3       4 GLC5        0.0000 
     55 CA          3.9630   23.2460   33.0020 C.3      12 GLL5        0.0000 
     56 CA          3.9745   21.8690   31.7815 C.3       4 GLC5        0.0000 
     57 CA          3.9860   20.4920   30.5610 C.3       8 GLP5        0.0000 
     58 CA          5.2620   21.7240   33.6790 C.3       4 GLC5        0.0000 
     59 CA          6.5610   20.2020   34.3560 C.3       8 GLP5        0.0000 
     60 CA          2.1830   22.4510   33.9805 C.3       4 GLC5        0.0000 
     61 CA         11.6275   23.4725   29.6105 C.3       4 GLC5        0.0000 
     62 CA         13.1480   24.2260   30.8490 C.3      12 GLL5        0.0000 
     63 CA         10.1070   22.7190   28.3720 C.3       8 GLP5        0.0000 
     64 CA         14.1890   23.8215   29.3890 C.3       4 GLC5        0.0000 
     65 CA         15.2300   23.4170   27.9290 C.3       8 GLP5        0.0000 
     66 CA         12.3905   26.9105   34.9110 C.3       4 GLC5        0.0000 
     67 CA         11.0670   25.4940   34.2250 C.3      12 GLL5        0.0000 
     68 CA          9.1695   24.6435   30.5885 C.3       4 GLC5        0.0000 
     69 CA          9.1830   24.2470   32.5430 C.3      12 GLL5        0.0000 
     70 CA          9.1560   25.0400   28.6340 C.3       8 GLP5        0.0000 
     71 CA         10.2805   23.2260   30.5115 C.3       4 GLC5        0.0000 
     72 CA         10.4540   23.7330   32.6510 C.3      12 GLL5        0.0000 
     73 CA         11.0225   18.8500   32.9155 C.3       4 GLC5        0.0000 
     74 CA         11.4190   19.2680   34.8120 C.3      12 GLL5        0.0000 
     75 CA         10.6260   18.4320   31.0190 C.3       8 GLP5        0.0000 
     76 CA          9.5305   20.2580   34.4525 C.3       4 GLC5        0.0000 
     77 CA          7.6420   21.2480   34.0930 C.3       8 GLP5        0.0000 
     78 CA         10.6615   17.8045   35.5310 C.3       4 GLC5        0.0000 
     79 CA          9.9040   16.3410   36.2500 C.3       8 GLP5        0.0000 
     80 CA          7.0405   23.0850   33.9140 C.3       4 GLC5        0.0000 
     81 CA          6.4390   24.9220   33.7350 C.3      12 GLL5        0.0000 
     82 CA          5.6740   27.4785   33.0945 C.3       4 GLC5        0.0000 
     83 CA          4.9720   25.4500   33.6240 C.3      12 GLL5        0.0000 
     84 N           5.0220   26.6875   35.8170 N.am      2 SEC2        0.0000 
     85 N           4.7960   26.5710   34.4750 N.am     10 SEL2        0.0000 
     86 N           5.2480   26.8040   37.1590 N.am      6 SEP2        0.0000 
     87 O           5.1800   27.7560   33.9905 O.2       1 ALC1        0.0000 
     88 O           4.7960   26.5710   34.4750 O.2       9 ALL1        0.0000 
     89 O           5.5640   28.9410   33.5060 O.2       5 ALP1        0.0000 
     90 CA         13.1185   17.3155   32.1175 C.3       4 GLC5        0.0000 
     91 CA         14.8090   17.4740   33.2120 C.3      12 GLL5        0.0000 
     92 CA         11.4280   17.1570   31.0230 C.3       8 GLP5        0.0000 
     93 CA         15.9810   17.5925   31.5545 C.3       4 GLC5        0.0000 
     94 CA         17.1530   17.7110   29.8970 C.3       8 GLP5        0.0000 
     95 CA         16.2270   15.0265   35.2590 C.3       4 GLC5        0.0000 
     96 CA         15.0040   16.2010   34.0760 C.3      12 GLL5        0.0000 
     97 CA         16.5550   15.2405   32.8990 C.3       4 GLC5        0.0000 
     98 CA         18.1060   14.2800   31.7220 C.3       8 GLP5        0.0000 
     99 CA         12.5875   16.2400   32.3990 C.3       4 GLC5        0.0000 
    100 CA         13.7470   15.3230   33.7750 C.3      12 GLL5        0.0000 
    101 NZ         13.2805   14.8475   37.8835 N.4       3 LYC4        0.0000 
    102 NZ         13.3300   14.9740   36.5280 N.4      11 LYL4        0.0000 
    103 N          12.1645   15.7290   36.8380 N.am      2 SEC2        0.0000 
    104 N          13.3300   14.9740   36.5280 N.am     10 SEL2        0.0000 
    105 N          10.9990   16.4840   37.1480 N.am      6 SEP2        0.0000 
    106 N          13.2805   14.8475   37.8835 N.am      2 SEC2        0.0000 
    107 CA         12.7248   19.8013   31.8405 C.3       4 GLC5        0.0000 
    108 CA         13.5690   19.5360   33.5250 C.3      12 GLL5        0.0000 
    109 CA         11.4220   19.6290   30.4950 C.3       8 GLP5        0.0000 
    110 CA         14.9492   20.4603   34.7420 C.3       4 GLC5        0.0000 
    111 CA         15.8710   20.9470   36.2980 C.3       8 GLP5        0.0000 
    112 CA         16.2025   21.6270   31.9320 C.3       4 GLC5        0.0000 
    113 CA         14.4860   20.4110   32.8470 C.3      12 GLL5        0.0000 
    114 CA         18.0290   22.1640   31.0430 C.3       8 GLP5        0.0000 
    115 CA         12.5610   20.8350   31.8005 C.3       4 GLC5        0.0000 
    116 CA         14.2660   21.7690   32.7950 C.3      12 GLL5        0.0000 
    117 CA         14.7855   21.4940   34.7020 C.3       4 GLC5        0.0000 
    118 CA         11.8697   20.1738   32.2975 C.3       4 GLC5        0.0000 
    119 CA         12.2210   21.4020   34.0650 C.3      12 GLL5        0.0000 
    120 CA         14.0942   20.8328   35.1990 C.3       4 GLC5        0.0000 
    121 CA         11.5675   26.3507   32.3810 C.3       4 GLC5        0.0000 
    122 CA         11.8720   27.7760   30.9140 C.3       8 GLP5        0.0000 
    123 CA         15.2488   24.8652   31.5123 C.3       4 GLC5        0.0000 
    124 CA         13.5430   24.6190   32.2780 C.3      12 GLL5        0.0000 
    125 CA         17.1520   25.3080   31.4610 C.3       8 GLP5        0.0000 
    126 CA         12.6088   26.0992   31.2388 C.3       4 GLC5        0.0000 
    127 CA         14.6760   22.4883   35.8735 C.3       4 GLC5        0.0000 
    128 CA          9.6634   27.6729   32.8717 C.3       4 GLC5        0.0000 
    129 CA          8.8060   25.3770   33.2850 C.3      12 GLL5        0.0000 
    130 CA         10.1220   29.3370   31.8120 C.3       8 GLP5        0.0000 
    131 CA          8.6831   22.7602   33.4378 C.3       4 GLC5        0.0000 
    132 CA         11.3296   20.5841   36.0925 C.3       4 GLC5        0.0000 
    133 CA         14.1529   15.5786   31.8128 C.3       4 GLC5        0.0000 
    134 CA         13.9790   15.0770   29.9160 C.3       8 GLP5        0.0000 
@<TRIPOS>BOND
@<TRIPOS>SUBSTRUCTURE
     1 ALC1       87 GROUP        1 X    ALC  0     ROOT ALC X 1
     2 SEC2        4 GROUP        1 X    SEC  0     **** SEC X 2
     3 LYC4        1 GROUP        1 X    LYC  0     **** LYC X 4
     4 GLC5        9 GROUP        1 X    GLC  0     **** GLC X 6
     5 ALP1       89 GROUP        1 Y    ALP  0     ROOT ALP Y 8
     6 SEP2        6 GROUP        1 Y    SEP  0     **** SEP Y 9
     7 LYP4        3 GROUP        1 Y    LYP  0     **** LYP Y 11
     8 GLP5       11 GROUP        1 Y    GLP  0     **** GLP Y 13
     9 ALL1       88 GROUP        1 Z    ALL  0     ROOT ALL Z 15
    10 SEL2        5 GROUP        1 Z    SEL  0     **** SEL Z 16
    11 LYL4        2 GROUP        1 Z    LYL  0     **** LYL Z 18
    12 GLL5       10 GROUP        1 Z    GLL  0     **** GLL Z 20
@<TRIPOS>SET

