#    Name: 3az3_DS6_1_ligand
#    Modification time : Mon Mar 24 18:29:42 2014

@<TRIPOS>MOLECULE
3az3_DS6_1_ligand
   81    82     1     0     0
SMALL
NO_CHARGES


@<TRIPOS>ATOM
      1 C1         13.5690   19.5360   33.5250 C.ar      1 DS61        0.0000 
      2 O1         15.2310   16.4590   35.4690 O.3       1 DS61        0.0000 
      3 C2         14.4860   20.4110   32.8470 C.ar      1 DS61        0.0000 
      4 O2         13.3870   12.7610   36.3920 O.co2     1 DS61        0.0000 
      5 C3         14.2660   21.7690   32.7950 C.ar      1 DS61        0.0000 
      6 C4         13.1340   22.3130   33.4170 C.ar      1 DS61        0.0000 
      7 C5         12.2210   21.4020   34.0650 C.ar      1 DS61        0.0000 
      8 C6         12.4140   20.0350   34.1350 C.ar      1 DS61        0.0000 
      9 C7          7.4370   25.8900   33.0850 C.3       1 DS61        0.0000 
     10 C8          2.4450   25.0800   33.4760 C.3       1 DS61        0.0000 
     11 C9          9.4460   27.2500   35.0150 C.3       1 DS61        0.0000 
     12 C10        12.9350   23.8460   33.4810 C.3       1 DS61        0.0000 
     13 C11        11.4590   24.3570   33.4710 C.ar      1 DS61        0.0000 
     14 C12        13.5430   24.6190   32.2780 C.3       1 DS61        0.0000 
     15 C13        13.7580   24.2360   34.7620 C.3       1 DS61        0.0000 
     16 C14        13.2040   23.8230   36.1360 C.3       1 DS61        0.0000 
     17 C15         3.7680   23.9480   35.3380 C.3       1 DS61        0.0000 
     18 C16        13.4680   13.8990   35.8920 C.2       1 DS61        0.0000 
     19 C17        13.7800   13.9470   34.4020 C.3       1 DS61        0.0000 
     20 C18         3.9630   23.2460   33.0020 C.3       1 DS61        0.0000 
     21 C20        13.1480   24.2260   30.8490 C.3       1 DS61        0.0000 
     22 C26        11.0670   25.4940   34.2250 C.ar      1 DS61        0.0000 
     23 C27         9.7610   26.0310   34.1410 C.ar      1 DS61        0.0000 
     24 C28         8.8060   25.3770   33.2850 C.ar      1 DS61        0.0000 
     25 C29         9.1830   24.2470   32.5430 C.ar      1 DS61        0.0000 
     26 C30        10.4540   23.7330   32.6510 C.ar      1 DS61        0.0000 
     27 C34        11.4190   19.2680   34.8120 C.3       1 DS61        0.0000 
     28 C43         6.4390   24.9220   33.7350 C.3       1 DS61        0.0000 
     29 C44         4.9720   25.4500   33.6240 C.3       1 DS61        0.0000 
     30 O47         4.7960   26.5710   34.4750 O.3       1 DS61        0.0000 
     31 C48         3.7900   24.4710   33.8840 C.3       1 DS61        0.0000 
     32 O62        13.6260   18.1630   33.6550 O.3       1 DS61        0.0000 
     33 C63        14.8090   17.4740   33.2120 C.3       1 DS61        0.0000 
     34 C64        15.0040   16.2010   34.0760 C.3       1 DS61        0.0000 
     35 C67        13.7470   15.3230   33.7750 C.3       1 DS61        0.0000 
     36 O71        13.3300   14.9740   36.5280 O.co2     1 DS61        0.0000 
     37 H          15.3140   19.9892   32.4007 H         1 DS61        0.0000 
     38 H          14.9213   22.3896   32.3058 H         1 DS61        0.0000 
     39 H          11.3665   21.8271   34.5019 H         1 DS61        0.0000 
     40 H           7.2034   25.9645   32.0264 H         1 DS61        0.0000 
     41 H           7.3192   26.8664   33.5473 H         1 DS61        0.0000 
     42 H          14.6628   24.5621   32.3661 H         1 DS61        0.0000 
     43 H          13.3147   25.7107   32.4229 H         1 DS61        0.0000 
     44 H          13.8980   25.3433   34.7478 H         1 DS61        0.0000 
     45 H          14.7839   23.8121   34.6447 H         1 DS61        0.0000 
     46 H          13.0614   13.2887   33.8682 H         1 DS61        0.0000 
     47 H          14.7823   13.4973   34.2352 H         1 DS61        0.0000 
     48 H          11.7559   25.9401   34.8517 H         1 DS61        0.0000 
     49 H           8.4919   23.8072   31.9148 H         1 DS61        0.0000 
     50 H          10.7226   22.8732   32.1383 H         1 DS61        0.0000 
     51 H           6.6823   24.8000   34.7876 H         1 DS61        0.0000 
     52 H           6.4951   23.9548   33.2415 H         1 DS61        0.0000 
     53 H           4.8460   25.8101   32.5656 H         1 DS61        0.0000 
     54 H          15.7032   18.0857   33.3251 H         1 DS61        0.0000 
     55 H          14.7299   17.1549   32.1735 H         1 DS61        0.0000 
     56 H          15.8504   15.6602   33.6156 H         1 DS61        0.0000 
     57 H          12.8591   15.8729   34.1285 H         1 DS61        0.0000 
     58 H          13.6536   15.2319   32.6801 H         1 DS61        0.0000 
     59 H           2.1941   25.8516   34.0606 H         1 DS61        0.0000 
     60 H           2.4606   25.4181   32.5350 H         1 DS61        0.0000 
     61 H           1.7021   24.4133   33.5357 H         1 DS61        0.0000 
     62 H           9.5680   27.0513   35.9874 H         1 DS61        0.0000 
     63 H          10.0385   28.0258   34.7978 H         1 DS61        0.0000 
     64 H           8.5026   27.5591   34.8951 H         1 DS61        0.0000 
     65 H          13.1049   22.8310   36.2135 H         1 DS61        0.0000 
     66 H          13.8024   24.1169   36.8813 H         1 DS61        0.0000 
     67 H          12.3034   24.2219   36.3085 H         1 DS61        0.0000 
     68 H           4.6466   23.5509   35.6032 H         1 DS61        0.0000 
     69 H           3.5666   24.6772   35.9920 H         1 DS61        0.0000 
     70 H           3.0749   23.2388   35.4672 H         1 DS61        0.0000 
     71 H           4.8238   22.7726   33.1886 H         1 DS61        0.0000 
     72 H           3.2277   22.5824   33.1397 H         1 DS61        0.0000 
     73 H           3.9643   23.4847   32.0309 H         1 DS61        0.0000 
     74 H          13.6024   24.7992   30.1671 H         1 DS61        0.0000 
     75 H          13.3911   23.2779   30.6439 H         1 DS61        0.0000 
     76 H          12.1635   24.3154   30.6979 H         1 DS61        0.0000 
     77 H          11.7999   18.7712   35.5918 H         1 DS61        0.0000 
     78 H          10.6813   19.8443   35.1636 H         1 DS61        0.0000 
     79 H          10.9990   18.5897   34.2091 H         1 DS61        0.0000 
     80 H          14.5349   15.9242   35.9479 H         1 DS61        0.0000 
     81 H           5.0376   27.3536   33.9012 H         1 DS61        0.0000 
@<TRIPOS>BOND
     1    3    1 ar   
     2    8    1 ar   
     3   32    1 1    
     4   34    2 1    
     5   80    2 1    
     6    5    3 ar   
     7   37    3 1    
     8   18    4 ar   
     9    6    5 ar   
    10   38    5 1    
    11    7    6 ar   
    12   12    6 1    
    13    8    7 ar   
    14   39    7 1    
    15   27    8 1    
    16   24    9 1    
    17   28    9 1    
    18   40    9 1    
    19   41    9 1    
    20   31   10 1    
    21   59   10 1    
    22   60   10 1    
    23   61   10 1    
    24   23   11 1    
    25   62   11 1    
    26   63   11 1    
    27   64   11 1    
    28   13   12 1    
    29   14   12 1    
    30   15   12 1    
    31   22   13 ar   
    32   26   13 ar   
    33   21   14 1    
    34   42   14 1    
    35   43   14 1    
    36   16   15 1    
    37   44   15 1    
    38   45   15 1    
    39   65   16 1    
    40   66   16 1    
    41   67   16 1    
    42   31   17 1    
    43   68   17 1    
    44   69   17 1    
    45   70   17 1    
    46   19   18 1    
    47   36   18 ar   
    48   35   19 1    
    49   46   19 1    
    50   47   19 1    
    51   31   20 1    
    52   71   20 1    
    53   72   20 1    
    54   73   20 1    
    55   74   21 1    
    56   75   21 1    
    57   76   21 1    
    58   23   22 ar   
    59   48   22 1    
    60   24   23 ar   
    61   25   24 ar   
    62   26   25 ar   
    63   49   25 1    
    64   50   26 1    
    65   77   27 1    
    66   78   27 1    
    67   79   27 1    
    68   29   28 1    
    69   51   28 1    
    70   52   28 1    
    71   30   29 1    
    72   31   29 1    
    73   53   29 1    
    74   81   30 1    
    75   33   32 1    
    76   34   33 1    
    77   54   33 1    
    78   55   33 1    
    79   35   34 1    
    80   56   34 1    
    81   57   35 1    
    82   58   35 1    
@<TRIPOS>SUBSTRUCTURE
     1 DS61        1 GROUP   
@<TRIPOS>SET

