#    Name: 1uyh_PU0_1_INTS_M
#    Modification time : Tue Mar 25 07:19:34 2014

@<TRIPOS>MOLECULE
1uyh_PU0_1_INTS_M
   62     0     6     0     0
SMALL
NO_CHARGES


@<TRIPOS>ATOM
      1 CA          9.6495    9.7165   23.0175 C.3       2 GLC5        0.0000 
      2 CA          7.6600   10.1370   22.8270 C.3       6 GLL5        0.0000 
      3 CA         11.6390    9.2960   23.2080 C.3       4 GLP5        0.0000 
      4 CA          8.6610   11.3150   21.8050 C.3       2 GLC5        0.0000 
      5 CA          9.6620   12.4930   20.7830 C.3       4 GLP5        0.0000 
      6 CA          4.5155   15.9455   27.7080 C.3       2 GLC5        0.0000 
      7 CA          4.7890   16.0680   25.7960 C.3       6 GLL5        0.0000 
      8 CA          4.2420   15.8230   29.6200 C.3       4 GLP5        0.0000 
      9 CA          4.6880   16.3670   23.7790 C.3       2 GLC5        0.0000 
     10 CA          4.5870   16.6660   21.7620 C.3       4 GLP5        0.0000 
     11 CA          3.3595   17.2030   25.0645 C.3       2 GLC5        0.0000 
     12 CA          1.9300   18.3380   24.3330 C.3       4 GLP5        0.0000 
     13 CA          5.3305   17.6470   25.9675 C.3       2 GLC5        0.0000 
     14 CA          5.8720   19.2260   26.1390 C.3       4 GLP5        0.0000 
     15 CA          1.5935    9.9270   22.0180 C.3       2 GLC5        0.0000 
     16 CA          3.4310   10.5670   23.0940 C.3       6 GLL5        0.0000 
     17 CA         -0.2440    9.2870   20.9420 C.3       4 GLP5        0.0000 
     18 CA          0.6420   12.1935   26.1475 C.3       2 GLC5        0.0000 
     19 CA          0.1520   10.6510   24.6980 C.3       6 GLL5        0.0000 
     20 CA          1.1320   13.7360   27.5970 C.3       4 GLP5        0.0000 
     21 CA         -2.3990    9.1995   25.6000 C.3       2 GLC5        0.0000 
     22 CA         -1.2090   10.8330   24.9700 C.3       6 GLL5        0.0000 
     23 CA         -3.5890    7.5660   26.2300 C.3       4 GLP5        0.0000 
     24 CA         -1.6580   12.7295   25.5580 C.3       2 GLC5        0.0000 
     25 CA         -2.1070   14.6260   26.1460 C.3       4 GLP5        0.0000 
     26 O          -3.5260   11.6085   24.1460 O.2       1 ALC1        0.0000 
     27 O          -2.0560   11.4690   24.0840 O.2       5 ALL1        0.0000 
     28 O          -4.9960   11.7480   24.2080 O.2       3 ALP1        0.0000 
     29 CA          1.6675   11.1635   26.8625 C.3       2 GLC5        0.0000 
     30 CA          0.9420    9.9900   25.6220 C.3       6 GLL5        0.0000 
     31 CA          2.3930   12.3370   28.1030 C.3       4 GLP5        0.0000 
     32 CA          2.8780   10.7910   26.9460 C.3       2 GLC5        0.0000 
     33 CA          3.3630    9.2450   25.7890 C.3       6 GLL5        0.0000 
     34 CA          4.4660   10.3270   26.4710 C.3       2 GLC5        0.0000 
     35 CA          5.5690   11.4090   27.1530 C.3       4 GLP5        0.0000 
     36 CA          4.6965    8.4665   27.0155 C.3       2 GLC5        0.0000 
     37 CA          3.3520    7.7240   25.8130 C.3       6 GLL5        0.0000 
     38 CA          6.0410    9.2090   28.2180 C.3       4 GLP5        0.0000 
     39 CA          5.6695    8.3635   26.1950 C.3       2 GLC5        0.0000 
     40 CA          5.2980    7.5180   24.1720 C.3       6 GLL5        0.0000 
     41 CA         -2.0375    8.1385   29.1815 C.3       2 GLC5        0.0000 
     42 CA         -1.4630    9.4060   28.1750 C.3       6 GLL5        0.0000 
     43 CA         -2.6120    6.8710   30.1880 C.3       4 GLP5        0.0000 
     44 CA         -2.2130   10.3315   29.6285 C.3       2 GLC5        0.0000 
     45 CA         -2.9630   11.2570   31.0820 C.3       4 GLP5        0.0000 
     46 CA          5.8613   11.7513   25.4398 C.3       2 GLC5        0.0000 
     47 CA          5.7460   11.5810   23.4960 C.3       6 GLL5        0.0000 
     48 CA          5.4108   12.3567   22.0317 C.3       2 GLC5        0.0000 
     49 CA          6.5610   12.6060   23.9570 C.3       6 GLL5        0.0000 
     50 CA          4.6680   12.6200   20.3370 C.3       4 GLP5        0.0000 
     51 CA          5.4515   12.6063   25.8990 C.3       2 GLC5        0.0000 
     52 CA          6.0280   13.7640   24.5690 C.3       6 GLL5        0.0000 
     53 CA          3.3072   12.8347   26.2892 C.3       2 GLC5        0.0000 
     54 CA          4.6400   13.8430   24.7210 C.3       6 GLL5        0.0000 
     55 CA          4.8187   11.8305   25.5392 C.3       2 GLC5        0.0000 
     56 CA          3.8030   12.8220   24.2300 C.3       6 GLL5        0.0000 
     57 CA          4.2089   12.0147   21.9234 C.3       2 GLC5        0.0000 
     58 CA         -0.3863   10.0145   22.8880 C.3       2 GLC5        0.0000 
     59 CA         -2.3845    8.5817   26.9165 C.3       2 GLC5        0.0000 
     60 CA         -0.8970    9.7890   27.0310 C.3       6 GLL5        0.0000 
     61 CA          0.1915   10.6442   28.5600 C.3       2 GLC5        0.0000 
     62 CA          1.5630   11.6910   29.5170 C.3       4 GLP5        0.0000 
@<TRIPOS>BOND
@<TRIPOS>SUBSTRUCTURE
     1 ALC1       26 GROUP        1 X    ALC  0     ROOT ALC X 1
     2 GLC5        1 GROUP        1 X    GLC  0     **** GLC X 6
     3 ALP1       28 GROUP        1 Y    ALP  0     ROOT ALP Y 8
     4 GLP5        3 GROUP        1 Y    GLP  0     **** GLP Y 13
     5 ALL1       27 GROUP        1 Z    ALL  0     ROOT ALL Z 15
     6 GLL5        2 GROUP        1 Z    GLL  0     **** GLL Z 20
@<TRIPOS>SET

