#    Name: 1uyh_PU0_1_ligand
#    Modification time : Tue Mar 25 07:19:34 2014

@<TRIPOS>MOLECULE
1uyh_PU0_1_ligand
   48    50     1     0     0
SMALL
NO_CHARGES


@<TRIPOS>ATOM
      1 C19         7.6600   10.1370   22.8270 C.3       1 PU01224     0.0000 
      2 C5          6.5610   12.6060   23.9570 C.ar      1 PU01224     0.0000 
      3 O20         6.2680   10.4730   22.8830 O.3       1 PU01224     0.0000 
      4 C6          5.7460   11.5810   23.4960 C.ar      1 PU01224     0.0000 
      5 C4          6.0280   13.7640   24.5690 C.ar      1 PU01224     0.0000 
      6 C3          4.6400   13.8430   24.7210 C.ar      1 PU01224     0.0000 
      7 O2          4.0570   14.9380   25.2980 O.3       1 PU01224     0.0000 
      8 C8          4.7890   16.0680   25.7960 C.3       1 PU01224     0.0000 
      9 C2          3.8030   12.8220   24.2300 C.ar      1 PU01224     0.0000 
     10 C1          4.3340   11.6820   23.6210 C.ar      1 PU01224     0.0000 
     11 C9          3.4310   10.5670   23.0940 C.3       1 PU01224     0.0000 
     12 C10         2.1840   10.4650   23.9250 C.2       1 PU01224     0.0000 
     13 N1          0.9310   10.9810   23.6270 N.2       1 PU01224     0.0000 
     14 C11         0.1520   10.6510   24.6980 C.ar      1 PU01224     0.0000 
     15 C13        -1.2090   10.8330   24.9700 C.ar      1 PU01224     0.0000 
     16 N5         -2.0560   11.4690   24.0840 N.pl3     1 PU01224     0.0000 
     17 C12         0.9420    9.9900   25.6220 C.ar      1 PU01224     0.0000 
     18 N4          0.4270    9.5620   26.7940 N.ar      1 PU01224     0.0000 
     19 C14        -0.8970    9.7890   27.0310 C.ar      1 PU01224     0.0000 
     20 N3         -1.6890   10.3960   26.1580 N.ar      1 PU01224     0.0000 
     21 N2          2.1790    9.8520   25.1220 N.pl3     1 PU01224     0.0000 
     22 C15         3.3630    9.2450   25.7890 C.3       1 PU01224     0.0000 
     23 C16         3.3520    7.7240   25.8130 C.3       1 PU01224     0.0000 
     24 C17         3.8830    7.0990   24.5370 C.3       1 PU01224     0.0000 
     25 C18         5.2980    7.5180   24.1720 C.3       1 PU01224     0.0000 
     26 F1         -1.4630    9.4060   28.1750 F         1 PU01224     0.0000 
     27 H           7.5908   12.5307   23.8548 H         1 PU01224     0.0000 
     28 H           6.6351   14.5048   24.8832 H         1 PU01224     0.0000 
     29 H           2.7798   12.9223   24.3241 H         1 PU01224     0.0000 
     30 H           3.9780    9.6249   23.1276 H         1 PU01224     0.0000 
     31 H           3.1705   10.7843   22.0582 H         1 PU01224     0.0000 
     32 H          -1.6458   11.7727   23.2241 H         1 PU01224     0.0000 
     33 H          -3.0059   11.5706   24.3793 H         1 PU01224     0.0000 
     34 H           3.4323    9.6109   26.8328 H         1 PU01224     0.0000 
     35 H           4.2900    9.5803   25.2825 H         1 PU01224     0.0000 
     36 H           2.3209    7.3761   25.9837 H         1 PU01224     0.0000 
     37 H           3.9567    7.3750   26.6650 H         1 PU01224     0.0000 
     38 H           3.2063    7.3580   23.7005 H         1 PU01224     0.0000 
     39 H           3.8504    5.9972   24.6351 H         1 PU01224     0.0000 
     40 H           8.1950   10.8459   22.3674 H         1 PU01224     0.0000 
     41 H           8.0509   10.0204   23.7400 H         1 PU01224     0.0000 
     42 H           7.8163    9.2834   22.3300 H         1 PU01224     0.0000 
     43 H           5.4294   15.8067   26.5183 H         1 PU01224     0.0000 
     44 H           5.3238   16.5106   25.0762 H         1 PU01224     0.0000 
     45 H           4.1820   16.7637   26.1801 H         1 PU01224     0.0000 
     46 H           5.9535    7.2747   24.8870 H         1 PU01224     0.0000 
     47 H           5.6089    7.0806   23.3282 H         1 PU01224     0.0000 
     48 H           5.3687    8.5058   24.0334 H         1 PU01224     0.0000 
@<TRIPOS>BOND
     1    3    1 1    
     2   40    1 1    
     3   41    1 1    
     4   42    1 1    
     5    4    2 ar   
     6    5    2 ar   
     7   27    2 1    
     8    4    3 1    
     9   10    4 ar   
    10    6    5 ar   
    11   28    5 1    
    12    7    6 1    
    13    9    6 ar   
    14    8    7 1    
    15   43    8 1    
    16   44    8 1    
    17   45    8 1    
    18   10    9 ar   
    19   29    9 1    
    20   11   10 1    
    21   12   11 1    
    22   30   11 1    
    23   31   11 1    
    24   13   12 2    
    25   21   12 1    
    26   14   13 1    
    27   15   14 ar   
    28   17   14 ar   
    29   16   15 1    
    30   20   15 ar   
    31   32   16 1    
    32   33   16 1    
    33   18   17 ar   
    34   21   17 1    
    35   19   18 ar   
    36   20   19 ar   
    37   26   19 1    
    38   22   21 1    
    39   23   22 1    
    40   34   22 1    
    41   35   22 1    
    42   24   23 1    
    43   36   23 1    
    44   37   23 1    
    45   25   24 1    
    46   38   24 1    
    47   39   24 1    
    48   46   25 1    
    49   47   25 1    
    50   48   25 1    
@<TRIPOS>SUBSTRUCTURE
     1 PU01224     1 GROUP   
@<TRIPOS>SET

