#    Name: 3pre_3RE_1_INTS_M
#    Modification time : Tue Mar 25 08:20:22 2014

@<TRIPOS>MOLECULE
3pre_3RE_1_INTS_M
   64     0     9     0     0
SMALL
NO_CHARGES


@<TRIPOS>ATOM
      1 N          48.5905   11.6175   28.1620 N.am      2 SEC2        0.0000 
      2 N          47.5390   12.6090   28.3460 N.am      8 SEL2        0.0000 
      3 N          49.6420   10.6260   27.9780 N.am      5 SEP2        0.0000 
      4 CA         49.5260   12.6650   29.9310 C.3       3 GLC5        0.0000 
      5 CA         48.1500   13.6290   28.9580 C.3       9 GLL5        0.0000 
      6 CA         50.9020   11.7010   30.9040 C.3       6 GLP5        0.0000 
      7 CA         49.2370   12.1835   27.8300 C.3       3 GLC5        0.0000 
      8 CA         50.3240   10.7380   26.7020 C.3       6 GLP5        0.0000 
      9 CA         47.8455   14.8010   27.9580 C.3       3 GLC5        0.0000 
     10 CA         47.5410   15.9730   26.9580 C.3       6 GLP5        0.0000 
     11 CA         47.8040   11.1635   29.4425 C.3       3 GLC5        0.0000 
     12 CA         46.2460   12.4700   28.6420 C.3       9 GLL5        0.0000 
     13 CA         49.3620    9.8570   30.2430 C.3       6 GLP5        0.0000 
     14 CA         43.0340   15.4300   29.5680 C.3       3 GLC5        0.0000 
     15 CA         43.4820   13.8810   30.6220 C.3       9 GLL5        0.0000 
     16 CA         42.5860   16.9790   28.5140 C.3       6 GLP5        0.0000 
     17 O          50.4645   13.2925   27.9585 O.2       1 ALC1        0.0000 
     18 O          49.5010   13.7910   28.6550 O.2       7 ALL1        0.0000 
     19 O          51.4280   12.7940   27.2620 O.2       4 ALP1        0.0000 
     20 CA         44.3465   10.7810   27.0010 C.3       3 GLC5        0.0000 
     21 CA         45.5380   11.3600   27.9910 C.3       9 GLL5        0.0000 
     22 CA         43.1550   10.2020   26.0110 C.3       6 GLP5        0.0000 
     23 CA         46.9555   10.7420   26.6520 C.3       3 GLC5        0.0000 
     24 CA         48.3730   10.1240   25.3130 C.3       6 GLP5        0.0000 
     25 CA         45.5895   12.6345   26.2385 C.3       3 GLC5        0.0000 
     26 CA         45.6410   13.9090   24.4860 C.3       6 GLP5        0.0000 
     27 CA         44.2605   12.9880   27.2640 C.3       3 GLC5        0.0000 
     28 CA         42.9830   14.6160   26.5370 C.3       6 GLP5        0.0000 
     29 CA         44.1435   17.2615   29.8380 C.3       3 GLC5        0.0000 
     30 CA         45.7010   17.5440   31.1620 C.3       9 GLL5        0.0000 
     31 CA         42.6050   11.1765   30.8625 C.3       3 GLC5        0.0000 
     32 CA         41.2890   12.6330   30.4110 C.3       9 GLL5        0.0000 
     33 CA         43.9210    9.7200   31.3140 C.3       6 GLP5        0.0000 
     34 CA         41.4950   13.8195   28.8290 C.3       3 GLC5        0.0000 
     35 CA         41.7010   15.0060   27.2470 C.3       6 GLP5        0.0000 
     36 CA         41.1035   11.0525   32.0390 C.3       3 GLC5        0.0000 
     37 CA         40.0700   12.6890   31.0470 C.3       9 GLL5        0.0000 
     38 CA         42.1370    9.4160   33.0310 C.3       6 GLP5        0.0000 
     39 O          38.8560   14.3005   32.0070 O.2       1 ALC1        0.0000 
     40 O          40.1880   13.6990   31.9510 O.2       7 ALL1        0.0000 
     41 O          37.5240   14.9020   32.0630 O.2       4 ALP1        0.0000 
     42 CA         47.7365   19.1380   35.7535 C.3       3 GLC5        0.0000 
     43 CA         46.4240   20.2900   34.7340 C.3       9 GLL5        0.0000 
     44 CA         49.0490   17.9860   36.7730 C.3       6 GLP5        0.0000 
     45 CA         46.3095   13.2722   31.7323 C.3       3 GLC5        0.0000 
     46 CA         46.2870   14.3070   30.0580 C.3       9 GLL5        0.0000 
     47 CA         46.6950   12.7420   33.6910 C.3       6 GLP5        0.0000 
     48 CA         46.8130   14.5546   28.0829 C.3       3 GLC5        0.0000 
     49 CA         43.8717   11.6037   30.7593 C.3       3 GLC5        0.0000 
     50 CA         44.1630   13.0940   29.7870 C.3       9 GLL5        0.0000 
     51 CA         44.0081   13.8025   27.9816 C.3       3 GLC5        0.0000 
     52 CA         44.8209   10.9210   29.9211 C.3       3 GLC5        0.0000 
     53 CA         45.5610   13.2980   29.4890 C.3       9 GLL5        0.0000 
     54 CA         46.5605   14.4465   32.9765 C.3       3 GLC5        0.0000 
     55 CA         46.3640   16.2180   31.5130 C.3       9 GLL5        0.0000 
     56 CA         46.2032   17.0450   29.3862 C.3       3 GLC5        0.0000 
     57 CA         46.3740   17.2090   27.4350 C.3       6 GLP5        0.0000 
     58 CA         48.6090   15.7663   33.8970 C.3       3 GLC5        0.0000 
     59 CA         46.4880   16.0840   33.0110 C.3       9 GLL5        0.0000 
     60 CA         50.3900   14.8480   34.4760 C.3       6 GLP5        0.0000 
     61 CA         47.9412   17.9603   35.0992 C.3       3 GLC5        0.0000 
     62 CA         47.1680   17.2850   33.6250 C.3       9 GLL5        0.0000 
     63 CA         39.3708   13.6395   30.0535 C.3       3 GLC5        0.0000 
     64 CA         38.0620   14.6180   29.3780 C.3       6 GLP5        0.0000 
@<TRIPOS>BOND
@<TRIPOS>SUBSTRUCTURE
     1 ALC1       17 GROUP        1 X    ALC  0     ROOT ALC X 1
     2 SEC2        1 GROUP        1 X    SEC  0     **** SEC X 2
     3 GLC5        4 GROUP        1 X    GLC  0     **** GLC X 6
     4 ALP1       19 GROUP        1 Y    ALP  0     ROOT ALP Y 8
     5 SEP2        3 GROUP        1 Y    SEP  0     **** SEP Y 9
     6 GLP5        6 GROUP        1 Y    GLP  0     **** GLP Y 13
     7 ALL1       18 GROUP        1 Z    ALL  0     ROOT ALL Z 15
     8 SEL2        2 GROUP        1 Z    SEL  0     **** SEL Z 16
     9 GLL5        5 GROUP        1 Z    GLL  0     **** GLL Z 20
@<TRIPOS>SET

