#    Name: 3pre_3RE_1_ligand
#    Modification time : Tue Mar 25 08:20:22 2014

@<TRIPOS>MOLECULE
3pre_3RE_1_ligand
   48    51     1     0     0
SMALL
NO_CHARGES


@<TRIPOS>ATOM
      1 N1         47.5390   12.6090   28.3460 N.ar      1 3RE101      0.0000 
      2 C2         48.1500   13.6290   28.9580 C.ar      1 3RE101      0.0000 
      3 N3         47.5840   14.4950   29.8110 N.ar      1 3RE101      0.0000 
      4 C4         46.2870   14.3070   30.0580 C.ar      1 3RE101      0.0000 
      5 C5         45.5610   13.2980   29.4890 C.ar      1 3RE101      0.0000 
      6 C6         46.2460   12.4700   28.6420 C.ar      1 3RE101      0.0000 
      7 N7         45.5990   15.1410   30.9310 N.am      1 3RE101      0.0000 
      8 C8         44.2490   14.9880   31.2400 C.2       1 3RE101      0.0000 
      9 C9         43.4820   13.8810   30.6220 C.2       1 3RE101      0.0000 
     10 C10        44.1630   13.0940   29.7870 C.2       1 3RE101      0.0000 
     11 N11        49.5010   13.7910   28.6550 N.pl3     1 3RE101      0.0000 
     12 C12        45.5380   11.3600   27.9910 C.3       1 3RE101      0.0000 
     13 O13        43.6750   15.7400   32.0090 O.2       1 3RE101      0.0000 
     14 C14        46.3640   16.2180   31.5130 C.3       1 3RE101      0.0000 
     15 C15        46.4880   16.0840   33.0110 C.3       1 3RE101      0.0000 
     16 C16        47.1680   17.2850   33.6250 C.3       1 3RE101      0.0000 
     17 C17        46.4990   18.5840   33.2260 C.3       1 3RE101      0.0000 
     18 C18        46.5200   18.6890   31.7170 C.3       1 3RE101      0.0000 
     19 C19        45.7010   17.5440   31.1620 C.3       1 3RE101      0.0000 
     20 O20        47.2590   19.6590   33.7680 O.3       1 3RE101      0.0000 
     21 C21        42.1110   13.6420   30.9790 C.2       1 3RE101      0.0000 
     22 C22        41.2890   12.6330   30.4110 C.2       1 3RE101      0.0000 
     23 C23        40.0700   12.6890   31.0470 C.2       1 3RE101      0.0000 
     24 N24        40.1880   13.6990   31.9510 N.pl3     1 3RE101      0.0000 
     25 N25        41.4050   14.2750   31.9340 N.2       1 3RE101      0.0000 
     26 C26        46.4240   20.2900   34.7340 C.3       1 3RE101      0.0000 
     27 H          43.7059   12.2825   29.3048 H         1 3RE101      0.0000 
     28 H          49.9035   13.0993   28.0554 H         1 3RE101      0.0000 
     29 H          49.9514   14.5850   29.0633 H         1 3RE101      0.0000 
     30 H          47.3681   16.2390   31.0861 H         1 3RE101      0.0000 
     31 H          47.0635   15.1814   33.2484 H         1 3RE101      0.0000 
     32 H          45.4894   15.9700   33.4493 H         1 3RE101      0.0000 
     33 H          48.2186   17.3088   33.3086 H         1 3RE101      0.0000 
     34 H          47.1515   17.1922   34.7184 H         1 3RE101      0.0000 
     35 H          45.4985   18.5825   33.5671 H         1 3RE101      0.0000 
     36 H          47.5365   18.6141   31.3616 H         1 3RE101      0.0000 
     37 H          46.0844   19.6284   31.4119 H         1 3RE101      0.0000 
     38 H          44.7022   17.5688   31.5888 H         1 3RE101      0.0000 
     39 H          45.6316   17.6346   30.0815 H         1 3RE101      0.0000 
     40 H          41.5535   12.0461   29.7257 H         1 3RE101      0.0000 
     41 H          39.3248   12.1443   30.8853 H         1 3RE101      0.0000 
     42 H          39.4511   13.9761   32.5553 H         1 3RE101      0.0000 
     43 H          45.5602   11.4389   26.9944 H         1 3RE101      0.0000 
     44 H          45.9409   10.4749   28.2240 H         1 3RE101      0.0000 
     45 H          44.5757   11.3241   28.2608 H         1 3RE101      0.0000 
     46 H          46.8805   21.0659   35.1693 H         1 3RE101      0.0000 
     47 H          45.5804   20.6380   34.3251 H         1 3RE101      0.0000 
     48 H          46.1579   19.6597   35.4633 H         1 3RE101      0.0000 
@<TRIPOS>BOND
     1    2    1 ar   
     2    6    1 ar   
     3    3    2 ar   
     4   11    2 1    
     5    4    3 ar   
     6    5    4 ar   
     7    7    4 1    
     8    6    5 ar   
     9   10    5 1    
    10   12    6 1    
    11    8    7 am   
    12   14    7 1    
    13    9    8 1    
    14   13    8 2    
    15   10    9 2    
    16   21    9 1    
    17   27   10 1    
    18   28   11 1    
    19   29   11 1    
    20   43   12 1    
    21   44   12 1    
    22   45   12 1    
    23   15   14 1    
    24   19   14 1    
    25   30   14 1    
    26   16   15 1    
    27   31   15 1    
    28   32   15 1    
    29   17   16 1    
    30   33   16 1    
    31   34   16 1    
    32   18   17 1    
    33   20   17 1    
    34   35   17 1    
    35   19   18 1    
    36   36   18 1    
    37   37   18 1    
    38   38   19 1    
    39   39   19 1    
    40   26   20 1    
    41   22   21 1    
    42   25   21 2    
    43   23   22 2    
    44   40   22 1    
    45   24   23 1    
    46   41   23 1    
    47   25   24 1    
    48   42   24 1    
    49   46   26 1    
    50   47   26 1    
    51   48   26 1    
@<TRIPOS>SUBSTRUCTURE
     1 3RE101      1 GROUP   
@<TRIPOS>SET

