#    Name: 2qfo_A51_2_INTS_M
#    Modification time : Mon Mar 24 21:54:57 2014

@<TRIPOS>MOLECULE
2qfo_A51_2_INTS_M
   27     0     6     0     0
SMALL
NO_CHARGES


@<TRIPOS>ATOM
      1 CA         -4.8475   35.1785   45.4815 C.3       2 GLC5        0.0000 
      2 CA         -4.4260   34.4860   47.4860 C.3       6 GLL5        0.0000 
      3 CA         -5.2690   35.8710   43.4770 C.3       4 GLP5        0.0000 
      4 CA         -3.0745   33.2055   46.2715 C.3       2 GLC5        0.0000 
      5 CA         -1.7230   31.9250   45.0570 C.3       4 GLP5        0.0000 
      6 CA         -5.5245   33.2500   46.6080 C.3       2 GLC5        0.0000 
      7 CA         -6.6230   32.0140   45.7300 C.3       4 GLP5        0.0000 
      8 CA         -2.0060   33.7825   46.2395 C.3       2 GLC5        0.0000 
      9 CA         -2.2890   35.6400   47.4220 C.3       6 GLL5        0.0000 
     10 N          -0.4380   34.7895   44.9205 N.am      1 SEC2        0.0000 
     11 N          -1.9830   35.1850   45.1140 N.am      5 SEL2        0.0000 
     12 N           1.1070   34.3940   44.7270 N.am      3 SEP2        0.0000 
     13 N          -1.9380   34.2535   44.0720 N.am      1 SEC2        0.0000 
     14 N          -1.8930   33.3220   43.0300 N.am      3 SEP2        0.0000 
     15 CA          2.4255   36.2210   46.8495 C.3       2 GLC5        0.0000 
     16 CA          1.5620   37.1570   48.4300 C.3       6 GLL5        0.0000 
     17 CA          3.2890   35.2850   45.2690 C.3       4 GLP5        0.0000 
     18 CA          3.5070   37.0565   46.9350 C.3       2 GLC5        0.0000 
     19 CA          2.8660   37.5720   48.8050 C.3       6 GLL5        0.0000 
     20 CA          4.1480   36.5410   45.0650 C.3       4 GLP5        0.0000 
     21 CA          4.9140   37.1575   49.5050 C.3       2 GLC5        0.0000 
     22 CA          6.9620   36.7430   50.2050 C.3       4 GLP5        0.0000 
     23 CA          5.0710   38.1640   50.1835 C.3       2 GLC5        0.0000 
     24 CA          3.1030   38.0630   50.1110 C.3       6 GLL5        0.0000 
     25 CA          7.0390   38.2650   50.2560 C.3       4 GLP5        0.0000 
     26 CA          3.8307   39.1352   48.3045 C.3       2 GLC5        0.0000 
     27 CA          4.6770   40.4530   47.1510 C.3       4 GLP5        0.0000 
@<TRIPOS>BOND
@<TRIPOS>SUBSTRUCTURE
     1 SEC2       10 GROUP        1 X    SEC  0     ROOT SEC X 2
     2 GLC5        1 GROUP        1 X    GLC  0     **** GLC X 6
     3 SEP2       12 GROUP        1 Y    SEP  0     ROOT SEP Y 9
     4 GLP5        3 GROUP        1 Y    GLP  0     **** GLP Y 13
     5 SEL2       11 GROUP        1 Z    SEL  0     ROOT SEL Z 16
     6 GLL5        2 GROUP        1 Z    GLL  0     **** GLL Z 20
@<TRIPOS>SET

