#    Name: 2qfo_A51_2_ligand
#    Modification time : Mon Mar 24 21:54:57 2014

@<TRIPOS>MOLECULE
2qfo_A51_2_ligand
   25    26     1     0     0
SMALL
NO_CHARGES


@<TRIPOS>ATOM
      1 C1         -4.4260   34.4860   47.4860 C.3       1 A51999      0.0000 
      2 C2         -3.4360   35.3080   48.2710 C.3       1 A51999      0.0000 
      3 C3         -2.2890   35.6400   47.4220 C.2       1 A51999      0.0000 
      4 C4         -2.6410   35.0880   46.0960 C.2       1 A51999      0.0000 
      5 O5         -3.8340   34.4470   46.1670 O.3       1 A51999      0.0000 
      6 O6         -1.9830   35.1850   45.1140 O.2       1 A51999      0.0000 
      7 C7         -1.1340   36.2820   47.6730 C.2       1 A51999      0.0000 
      8 N8         -0.7850   36.8280   49.0030 N.pl3     1 A51999      0.0000 
      9 C9          0.4840   37.2290   49.3640 C.ar      1 A51999      0.0000 
     10 C10         1.5620   37.1570   48.4300 C.ar      1 A51999      0.0000 
     11 C11         2.8660   37.5720   48.8050 C.ar      1 A51999      0.0000 
     12 C12         3.1030   38.0630   50.1110 C.ar      1 A51999      0.0000 
     13 C13         2.0390   38.1370   51.0440 C.ar      1 A51999      0.0000 
     14 C14         0.7350   37.7210   50.6730 C.ar      1 A51999      0.0000 
     15 H          -5.3699   34.9865   47.4798 H         1 A51999      0.0000 
     16 H          -4.4918   33.5109   47.9176 H         1 A51999      0.0000 
     17 H          -3.1142   34.7347   49.1443 H         1 A51999      0.0000 
     18 H          -3.9307   36.2177   48.6211 H         1 A51999      0.0000 
     19 H          -0.4133   36.4303   46.9308 H         1 A51999      0.0000 
     20 H          -1.5768   36.8981   49.6824 H         1 A51999      0.0000 
     21 H           1.3893   36.8044   47.4884 H         1 A51999      0.0000 
     22 H           3.6303   37.5159   48.1332 H         1 A51999      0.0000 
     23 H           4.0391   38.3637   50.3814 H         1 A51999      0.0000 
     24 H           2.2111   38.4906   51.9858 H         1 A51999      0.0000 
     25 H          -0.0281   37.7749   51.3492 H         1 A51999      0.0000 
@<TRIPOS>BOND
     1    2    1 1    
     2    5    1 1    
     3   15    1 1    
     4   16    1 1    
     5    3    2 1    
     6   17    2 1    
     7   18    2 1    
     8    4    3 1    
     9    7    3 2    
    10    5    4 1    
    11    6    4 2    
    12    8    7 1    
    13   19    7 1    
    14    9    8 1    
    15   20    8 1    
    16   10    9 ar   
    17   14    9 ar   
    18   11   10 ar   
    19   21   10 1    
    20   12   11 ar   
    21   22   11 1    
    22   13   12 ar   
    23   23   12 1    
    24   14   13 ar   
    25   24   13 1    
    26   25   14 1    
@<TRIPOS>SUBSTRUCTURE
     1 A51999      1 GROUP   
@<TRIPOS>SET

