#    Name: 3w5p_4OA_1_INTS_M
#    Modification time : Tue Mar 25 02:19:25 2014

@<TRIPOS>MOLECULE
3w5p_4OA_1_INTS_M
   91     0     6     0     0
SMALL
NO_CHARGES


@<TRIPOS>ATOM
      1 CA          9.4155    4.0735   28.5785 C.3       2 GLC5        0.0000 
      2 CA         10.3670    2.1170   28.6940 C.3       6 GLL5        0.0000 
      3 CA          8.4640    6.0300   28.4630 C.3       4 GLP5        0.0000 
      4 CA         10.2345    5.1215   27.7850 C.3       2 GLC5        0.0000 
      5 CA         12.0050    4.2130   27.1070 C.3       6 GLL5        0.0000 
      6 CA         12.6705    4.7710   28.8265 C.3       2 GLC5        0.0000 
      7 CA         13.3360    5.3290   30.5460 C.3       4 GLP5        0.0000 
      8 CA         10.4220    6.0860   26.0095 C.3       2 GLC5        0.0000 
      9 CA         12.2530    5.0760   25.8160 C.3       6 GLL5        0.0000 
     10 CA          8.5910    7.0960   26.2030 C.3       4 GLP5        0.0000 
     11 CA         11.3060    5.3595   23.7970 C.3       2 GLC5        0.0000 
     12 CA         10.3590    5.6430   21.7780 C.3       4 GLP5        0.0000 
     13 CA         12.6630    6.3105   27.6400 C.3       2 GLC5        0.0000 
     14 CA         13.0730    7.5450   29.4640 C.3       4 GLP5        0.0000 
     15 CA         16.4375    3.1450   26.4410 C.3       2 GLC5        0.0000 
     16 CA         15.5030    3.3600   24.4900 C.3       6 GLL5        0.0000 
     17 CA         17.3720    2.9300   28.3920 C.3       4 GLP5        0.0000 
     18 CA         12.1850    5.4570   22.7525 C.3       2 GLC5        0.0000 
     19 CA         14.0110    5.2710   23.7270 C.3       6 GLL5        0.0000 
     20 CA         16.2210    6.1665   27.2440 C.3       2 GLC5        0.0000 
     21 CA         14.7560    5.6080   26.3130 C.3       6 GLL5        0.0000 
     22 CA         17.6860    6.7250   28.1750 C.3       4 GLP5        0.0000 
     23 CA         13.9145    6.5765   27.8885 C.3       2 GLC5        0.0000 
     24 CA         16.0640    4.2690   27.3525 C.3       2 GLC5        0.0000 
     25 CA         11.8115    0.8830   31.0245 C.3       2 GLC5        0.0000 
     26 CA         12.5610    2.2610   29.4620 C.3       6 GLL5        0.0000 
     27 CA         11.0620   -0.4950   32.5870 C.3       4 GLP5        0.0000 
     28 CA         13.5280    2.5330   30.8395 C.3       2 GLC5        0.0000 
     29 CA         14.4950    2.8050   32.2170 C.3       4 GLP5        0.0000 
     30 CA          8.2290    3.2880   27.1385 C.3       2 GLC5        0.0000 
     31 CA          9.2490    1.5320   27.7500 C.3       6 GLL5        0.0000 
     32 CA          7.2090    5.0440   26.5270 C.3       4 GLP5        0.0000 
     33 CA         15.7040    8.1120   24.2240 C.3       2 GLC5        0.0000 
     34 CA         14.4240    6.8180   23.4180 C.3       6 GLL5        0.0000 
     35 CA         16.9840    9.4060   25.0300 C.3       4 GLP5        0.0000 
     36 CA         11.7760    6.7225   22.7920 C.3       2 GLC5        0.0000 
     37 CA         13.1930    7.8020   23.8060 C.3       6 GLL5        0.0000 
     38 CA         14.6660    9.2145   24.3040 C.3       2 GLC5        0.0000 
     39 CA         16.1390   10.6270   24.8020 C.3       4 GLP5        0.0000 
     40 CA         12.5485    9.5045   24.4055 C.3       2 GLC5        0.0000 
     41 CA         11.9040   11.2070   25.0050 C.3       4 GLP5        0.0000 
     42 CA         16.3515   10.0315   20.9100 C.3       2 GLC5        0.0000 
     43 CA         15.1770    8.2570   21.3290 C.3       6 GLL5        0.0000 
     44 CA         17.5260   11.8060   20.4910 C.3       4 GLP5        0.0000 
     45 CA         14.4170    9.9870   21.2040 C.3       2 GLC5        0.0000 
     46 CA         13.6570   11.7170   21.0790 C.3       4 GLP5        0.0000 
     47 CA         10.3345    0.7315   25.0725 C.3       2 GLC5        0.0000 
     48 CA         10.9810   -0.2920   26.7940 C.3       6 GLL5        0.0000 
     49 CA          9.6880    1.7550   23.3510 C.3       4 GLP5        0.0000 
     50 CA         12.2515   -1.1935   25.3495 C.3       2 GLC5        0.0000 
     51 CA         13.5220   -2.0950   23.9050 C.3       4 GLP5        0.0000 
     52 N          16.8435    9.4175   18.3830 N.am      1 SEC2        0.0000 
     53 N          16.3250    9.0430   19.4430 N.am      5 SEL2        0.0000 
     54 N          17.3620    9.7920   17.3230 N.am      3 SEP2        0.0000 
     55 N          16.7395    9.9020   20.4085 N.am      1 SEC2        0.0000 
     56 N          17.1540   10.7610   21.3740 N.am      3 SEP2        0.0000 
     57 CA         13.1095   -1.8715   27.4755 C.3       2 GLC5        0.0000 
     58 CA         13.7110   -0.0410   27.3970 C.3       6 GLL5        0.0000 
     59 CA         12.5080   -3.7020   27.5540 C.3       4 GLP5        0.0000 
     60 CA         15.5875    2.6850   27.4005 C.3       2 GLC5        0.0000 
     61 CA         13.8030    2.4400   26.4090 C.3       6 GLL5        0.0000 
     62 CA          8.4120    2.4207   29.4270 C.3       2 GLC5        0.0000 
     63 CA          7.0160    3.0170   30.6320 C.3       4 GLP5        0.0000 
     64 CA         10.4330    0.2692   29.5108 C.3       2 GLC5        0.0000 
     65 CA          9.7360   -1.4010   30.5450 C.3       4 GLP5        0.0000 
     66 CA         12.7815    3.6702   29.7032 C.3       2 GLC5        0.0000 
     67 CA         11.8930    1.7620   28.2590 C.3       6 GLL5        0.0000 
     68 CA         17.0358    2.7140   23.2205 C.3       2 GLC5        0.0000 
     69 CA         15.2040    4.2540   23.3360 C.3       6 GLL5        0.0000 
     70 CA         18.7180    1.6210   22.5280 C.3       4 GLP5        0.0000 
     71 CA         16.6137    4.8565   22.8450 C.3       2 GLC5        0.0000 
     72 CA         17.8740    5.9060   21.7770 C.3       4 GLP5        0.0000 
     73 CA         14.6939    2.7215   22.5218 C.3       2 GLC5        0.0000 
     74 CA         14.4060    1.6460   20.9800 C.3       4 GLP5        0.0000 
     75 CA         16.0457    5.9752   22.6748 C.3       2 GLC5        0.0000 
     76 CA          9.5150    1.2610   25.4440 C.3       2 GLC5        0.0000 
     77 CA          9.5390   -0.3170   29.0410 C.3       2 GLC5        0.0000 
     78 CA          9.4350    0.0020   27.3240 C.3       6 GLL5        0.0000 
     79 CA         16.4123    6.7443   21.7028 C.3       2 GLC5        0.0000 
     80 CA         14.7240    6.9080   21.9280 C.3       6 GLL5        0.0000 
     81 CA         16.3783    8.1907   22.8758 C.3       2 GLC5        0.0000 
     82 CA         17.8060    8.7990   24.1230 C.3       4 GLP5        0.0000 
     83 CA         10.6517   -0.7290   28.9430 C.3       2 GLC5        0.0000 
     84 CA         12.1540    0.1780   27.8880 C.3       6 GLL5        0.0000 
     85 CA         12.0377   -1.8795   27.4475 C.3       2 GLC5        0.0000 
     86 CA         13.6438   -0.8123   29.2117 C.3       2 GLC5        0.0000 
     87 CA         14.3550   -1.6930   30.7810 C.3       4 GLP5        0.0000 
     88 CA         13.7025   -0.8355   25.3293 C.3       2 GLC5        0.0000 
     89 CA         15.5580   -0.4360   26.7377 C.3       2 GLC5        0.0000 
     90 CA         14.0550    0.8890   26.1100 C.3       6 GLL5        0.0000 
     91 CA         17.2330   -1.2960   26.7220 C.3       4 GLP5        0.0000 
@<TRIPOS>BOND
@<TRIPOS>SUBSTRUCTURE
     1 SEC2       52 GROUP        1 X    SEC  0     ROOT SEC X 2
     2 GLC5        1 GROUP        1 X    GLC  0     **** GLC X 6
     3 SEP2       54 GROUP        1 Y    SEP  0     ROOT SEP Y 9
     4 GLP5        3 GROUP        1 Y    GLP  0     **** GLP Y 13
     5 SEL2       53 GROUP        1 Z    SEL  0     ROOT SEL Z 16
     6 GLL5        2 GROUP        1 Z    GLL  0     **** GLL Z 20
@<TRIPOS>SET

