#    Name: 3w5p_4OA_1_ligand
#    Modification time : Tue Mar 25 02:19:25 2014

@<TRIPOS>MOLECULE
3w5p_4OA_1_ligand
   66    69     1     0     0
SMALL
NO_CHARGES


@<TRIPOS>ATOM
      1 C1         10.3670    2.1170   28.6940 C.3       1 4OA500      0.0000 
      2 C10        11.8930    1.7620   28.2590 C.3       1 4OA500      0.0000 
      3 C11        12.0050    4.2130   27.1070 C.3       1 4OA500      0.0000 
      4 C12        12.2530    5.0760   25.8160 C.3       1 4OA500      0.0000 
      5 C13        13.7100    4.8820   25.2310 C.3       1 4OA500      0.0000 
      6 C14        14.0160    3.3200   25.0920 C.3       1 4OA500      0.0000 
      7 C15        15.5030    3.3600   24.4900 C.3       1 4OA500      0.0000 
      8 C16        15.2040    4.2540   23.3360 C.3       1 4OA500      0.0000 
      9 C17        14.0110    5.2710   23.7270 C.3       1 4OA500      0.0000 
     10 C18        14.7560    5.6080   26.3130 C.3       1 4OA500      0.0000 
     11 C19        12.5610    2.2610   29.4620 C.3       1 4OA500      0.0000 
     12 O1B         8.7400   -0.4460   26.1710 O.3       1 4OA500      0.0000 
     13 C2          9.2490    1.5320   27.7500 C.3       1 4OA500      0.0000 
     14 C20        14.4240    6.8180   23.4180 C.3       1 4OA500      0.0000 
     15 C21        13.1930    7.8020   23.8060 C.3       1 4OA500      0.0000 
     16 C22        14.7240    6.9080   21.9280 C.3       1 4OA500      0.0000 
     17 C23        15.1770    8.2570   21.3290 C.3       1 4OA500      0.0000 
     18 C24        15.5170    8.1940   19.8590 C.2       1 4OA500      0.0000 
     19 C3          9.4350    0.0020   27.3240 C.3       1 4OA500      0.0000 
     20 C4         10.9810   -0.2920   26.7940 C.3       1 4OA500      0.0000 
     21 O4         16.3250    9.0430   19.4430 O.co2     1 4OA500      0.0000 
     22 O4A        15.0250    7.2840   19.1100 O.co2     1 4OA500      0.0000 
     23 C5         12.1540    0.1780   27.8880 C.3       1 4OA500      0.0000 
     24 C6         13.7110   -0.0410   27.3970 C.3       1 4OA500      0.0000 
     25 C7         14.0550    0.8890   26.1100 C.3       1 4OA500      0.0000 
     26 C8         13.8030    2.4400   26.4090 C.3       1 4OA500      0.0000 
     27 C9         12.2570    2.6800   26.9390 C.3       1 4OA500      0.0000 
     28 H          10.2820    3.2056   28.7213 H         1 4OA500      0.0000 
     29 H          10.2204    1.7338   29.7063 H         1 4OA500      0.0000 
     30 H          10.9657    4.3659   27.4302 H         1 4OA500      0.0000 
     31 H          12.6575    4.5918   27.9062 H         1 4OA500      0.0000 
     32 H          12.1169    6.1239   26.0621 H         1 4OA500      0.0000 
     33 H          11.5349    4.7862   25.0561 H         1 4OA500      0.0000 
     34 H          13.3817    2.9638   24.2876 H         1 4OA500      0.0000 
     35 H          15.7404    2.4020   24.1889 H         1 4OA500      0.0000 
     36 H          16.1077    3.8172   25.1901 H         1 4OA500      0.0000 
     37 H          14.8646    3.6952   22.4763 H         1 4OA500      0.0000 
     38 H          16.0559    4.8635   23.0727 H         1 4OA500      0.0000 
     39 H          13.1757    4.9894   23.1264 H         1 4OA500      0.0000 
     40 H           9.2101    2.1341   26.8336 H         1 4OA500      0.0000 
     41 H           8.2782    1.6258   28.2524 H         1 4OA500      0.0000 
     42 H          15.2545    7.0555   23.9974 H         1 4OA500      0.0000 
     43 H          13.8151    6.5673   21.3580 H         1 4OA500      0.0000 
     44 H          15.5056    6.1393   21.6725 H         1 4OA500      0.0000 
     45 H          16.0545    8.6096   21.8966 H         1 4OA500      0.0000 
     46 H          14.3729    8.9943   21.4911 H         1 4OA500      0.0000 
     47 H           9.3217   -0.6416   28.1531 H         1 4OA500      0.0000 
     48 H          11.1356    0.2620   25.8918 H         1 4OA500      0.0000 
     49 H          11.0852   -1.3452   26.6363 H         1 4OA500      0.0000 
     50 H          11.9931   -0.3761   28.7888 H         1 4OA500      0.0000 
     51 H          13.8274   -1.0651   27.1221 H         1 4OA500      0.0000 
     52 H          14.3516    0.2372   28.2034 H         1 4OA500      0.0000 
     53 H          13.4198    0.5814   25.2985 H         1 4OA500      0.0000 
     54 H          15.0916    0.7442   25.8630 H         1 4OA500      0.0000 
     55 H          14.4527    2.7743   27.1624 H         1 4OA500      0.0000 
     56 H          11.6183    2.3169   26.1182 H         1 4OA500      0.0000 
     57 H          15.7082    5.5315   26.0173 H         1 4OA500      0.0000 
     58 H          14.5603    6.5826   26.4218 H         1 4OA500      0.0000 
     59 H          14.6970    5.1940   27.2214 H         1 4OA500      0.0000 
     60 H          13.5541    2.2936   29.3489 H         1 4OA500      0.0000 
     61 H          12.2621    3.1861   29.6961 H         1 4OA500      0.0000 
     62 H          12.3753    1.6831   30.2567 H         1 4OA500      0.0000 
     63 H          12.9536    7.7332   24.7745 H         1 4OA500      0.0000 
     64 H          13.4129    8.7607   23.6258 H         1 4OA500      0.0000 
     65 H          12.3674    7.5875   23.2841 H         1 4OA500      0.0000 
     66 H           8.7321   -1.4432   26.2449 H         1 4OA500      0.0000 
@<TRIPOS>BOND
     1    2    1 1    
     2   13    1 1    
     3   28    1 1    
     4   29    1 1    
     5   11    2 1    
     6   23    2 1    
     7   27    2 1    
     8    4    3 1    
     9   27    3 1    
    10   30    3 1    
    11   31    3 1    
    12    5    4 1    
    13   32    4 1    
    14   33    4 1    
    15    6    5 1    
    16    9    5 1    
    17   10    5 1    
    18    7    6 1    
    19   26    6 1    
    20   34    6 1    
    21    8    7 1    
    22   35    7 1    
    23   36    7 1    
    24    9    8 1    
    25   37    8 1    
    26   38    8 1    
    27   14    9 1    
    28   39    9 1    
    29   57   10 1    
    30   58   10 1    
    31   59   10 1    
    32   60   11 1    
    33   61   11 1    
    34   62   11 1    
    35   19   12 1    
    36   66   12 1    
    37   19   13 1    
    38   40   13 1    
    39   41   13 1    
    40   15   14 1    
    41   16   14 1    
    42   42   14 1    
    43   63   15 1    
    44   64   15 1    
    45   65   15 1    
    46   17   16 1    
    47   43   16 1    
    48   44   16 1    
    49   18   17 1    
    50   45   17 1    
    51   46   17 1    
    52   21   18 ar   
    53   22   18 ar   
    54   20   19 1    
    55   47   19 1    
    56   23   20 1    
    57   48   20 1    
    58   49   20 1    
    59   24   23 1    
    60   50   23 1    
    61   25   24 1    
    62   51   24 1    
    63   52   24 1    
    64   26   25 1    
    65   53   25 1    
    66   54   25 1    
    67   27   26 1    
    68   55   26 1    
    69   56   27 1    
@<TRIPOS>SUBSTRUCTURE
     1 4OA500      1 GROUP   
@<TRIPOS>SET

