#    Name: 1xp8_AGS_1_INTS_M
#    Modification time : Tue Mar 25 10:28:28 2014

@<TRIPOS>MOLECULE
1xp8_AGS_1_INTS_M
   59     0    12     0     0
SMALL
NO_CHARGES


@<TRIPOS>ATOM
      1 CA         17.6990   15.6480    5.4200 C.3       4 GLC5        0.0000 
      2 CA         19.1390   14.2120    6.2290 C.3      12 GLL5        0.0000 
      3 CA         16.2590   17.0840    4.6110 C.3       8 GLP5        0.0000 
      4 NZ         16.9985   15.6205    9.4745 N.4       3 LYC4        0.0000 
      5 NZ         17.5050   13.9760    8.4790 N.4      11 LYL4        0.0000 
      6 NZ         16.4920   17.2650   10.4700 N.4       7 LYP4        0.0000 
      7 N          20.9000   16.0390    9.2290 N.am      2 SEC2        0.0000 
      8 N          19.7330   15.1560    8.7960 N.am     10 SEL2        0.0000 
      9 N          22.0670   16.9220    9.6620 N.am      6 SEP2        0.0000 
     10 NZ         17.0940   18.0020    9.2700 N.4       3 LYC4        0.0000 
     11 NZ         17.6960   18.7390    8.0700 N.4      11 LYL4        0.0000 
     12 N          17.5260   19.8565    7.4140 N.am      2 SEC2        0.0000 
     13 N          17.6960   18.7390    8.0700 N.am     10 SEL2        0.0000 
     14 N          17.3560   20.9740    6.7580 N.am      6 SEP2        0.0000 
     15 N          18.1730   19.9270    8.6025 N.am      2 SEC2        0.0000 
     16 N          18.6500   21.1150    9.1350 N.am      6 SEP2        0.0000 
     17 N          17.0940   18.0020    9.2700 N.am      2 SEC2        0.0000 
     18 N          16.4920   17.2650   10.4700 N.am      6 SEP2        0.0000 
     19 N          20.5220   18.5970    9.0700 N.am      2 SEC2        0.0000 
     20 N          19.9070   17.5310    8.3710 N.am     10 SEL2        0.0000 
     21 N          21.1370   19.6630    9.7690 N.am      6 SEP2        0.0000 
     22 N          20.9870   17.2265    9.0165 N.am      2 SEC2        0.0000 
     23 N          16.9195   16.3030    6.7065 N.am      2 SEC2        0.0000 
     24 N          17.8510   16.2860    7.5850 N.am     10 SEL2        0.0000 
     25 N          15.9880   16.3200    5.8280 N.am      6 SEP2        0.0000 
     26 N          21.4870   20.6545    5.6685 N.am      2 SEC2        0.0000 
     27 N          20.5270   19.7010    6.2910 N.am     10 SEL2        0.0000 
     28 N          22.4470   21.6080    5.0460 N.am      6 SEP2        0.0000 
     29 N          21.6570   20.3585    7.1095 N.am      2 SEC2        0.0000 
     30 N          22.7870   21.0160    7.9280 N.am      6 SEP2        0.0000 
     31 CA         17.7585   18.2820    4.0525 C.3       4 GLC5        0.0000 
     32 CA         19.2580   19.4800    3.4940 C.3      12 GLL5        0.0000 
     33 CA         18.8485   20.7100    5.1820 C.3       4 GLC5        0.0000 
     34 CA         18.4390   21.9400    6.8700 C.3       8 GLP5        0.0000 
     35 CA         17.5385   20.3790    1.7815 C.3       4 GLC5        0.0000 
     36 CA         19.6850   19.8210    2.0650 C.3      12 GLL5        0.0000 
     37 CA         15.3920   20.9370    1.4980 C.3       8 GLP5        0.0000 
     38 N          17.0090   19.0855    0.6950 N.am      2 SEC2        0.0000 
     39 N          18.2510   18.4940    0.5990 N.am     10 SEL2        0.0000 
     40 N          15.7670   19.6770    0.7910 N.am      6 SEP2        0.0000 
     41 CA         23.3730   20.2370    1.6745 C.3       4 GLC5        0.0000 
     42 CA         21.6510   19.7080    0.8010 C.3      12 GLL5        0.0000 
     43 CA         25.0950   20.7660    2.5480 C.3       8 GLP5        0.0000 
     44 O          27.2305   15.1535    1.1520 O.2       1 ALC1        0.0000 
     45 O          25.9580   15.5880    1.4330 O.2       9 ALL1        0.0000 
     46 O          28.5030   14.7190    0.8710 O.2       5 ALP1        0.0000 
     47 CA         25.5825   19.4920   -1.6980 C.3       4 GLC5        0.0000 
     48 CA         25.1680   17.8410   -1.1700 C.3      12 GLL5        0.0000 
     49 CA         25.9970   21.1430   -2.2260 C.3       8 GLP5        0.0000 
     50 N          24.3245   19.7990   -1.4625 N.am      2 SEC2        0.0000 
     51 N          24.1000   18.4630   -0.7000 N.am     10 SEL2        0.0000 
     52 N          24.5490   21.1350   -2.2250 N.am      6 SEP2        0.0000 
     53 CA         19.3618   21.5553    3.0743 C.3       4 GLC5        0.0000 
     54 CA         19.2520   23.4600    3.3690 C.3       8 GLP5        0.0000 
     55 CA         21.3960   18.9720   -1.4310 C.3       4 GLC5        0.0000 
     56 CA         21.7290   18.4990   -3.2500 C.3       8 GLP5        0.0000 
     57 CA         26.6050   17.4605    1.5513 C.3       4 GLC5        0.0000 
     58 CA         24.2110   17.1740    1.2710 C.3      12 GLL5        0.0000 
     59 CA         28.4380   18.0640    2.0940 C.3       8 GLP5        0.0000 
@<TRIPOS>BOND
@<TRIPOS>SUBSTRUCTURE
     1 ALC1       44 GROUP        1 X    ALC  0     ROOT ALC X 1
     2 SEC2        7 GROUP        1 X    SEC  0     **** SEC X 2
     3 LYC4        4 GROUP        1 X    LYC  0     **** LYC X 4
     4 GLC5        1 GROUP        1 X    GLC  0     **** GLC X 6
     5 ALP1       46 GROUP        1 Y    ALP  0     ROOT ALP Y 8
     6 SEP2        9 GROUP        1 Y    SEP  0     **** SEP Y 9
     7 LYP4        6 GROUP        1 Y    LYP  0     **** LYP Y 11
     8 GLP5        3 GROUP        1 Y    GLP  0     **** GLP Y 13
     9 ALL1       45 GROUP        1 Z    ALL  0     ROOT ALL Z 15
    10 SEL2        8 GROUP        1 Z    SEL  0     **** SEL Z 16
    11 LYL4        5 GROUP        1 Z    LYL  0     **** LYL Z 18
    12 GLL5        2 GROUP        1 Z    GLL  0     **** GLL Z 20
@<TRIPOS>SET

