#    Name: 1xp8_AGS_1_ligand
#    Modification time : Tue Mar 25 10:28:28 2014

@<TRIPOS>MOLECULE
1xp8_AGS_1_ligand
   43    45     1     0     0
SMALL
NO_CHARGES


@<TRIPOS>ATOM
      1 PG         18.5510   14.8800    7.9480 P.3       1 AGS400      0.0000 
      2 S1G        19.1390   14.2120    6.2290 S.3       1 AGS400      0.0000 
      3 O2G        17.5050   13.9760    8.4790 O.co2     1 AGS400      0.0000 
      4 O3G        19.7330   15.1560    8.7960 O.co2     1 AGS400      0.0000 
      5 PB         18.6400   17.6900    7.6230 P.3       1 AGS400      0.0000 
      6 O1B        17.6960   18.7390    8.0700 O.co2     1 AGS400      0.0000 
      7 O2B        19.9070   17.5310    8.3710 O.co2     1 AGS400      0.0000 
      8 O3B        17.8510   16.2860    7.5850 O.3       1 AGS400      0.0000 
      9 PA         20.4720   18.4010    5.5870 P.3       1 AGS400      0.0000 
     10 O1A        21.2130   17.1820    5.9840 O.co2     1 AGS400      0.0000 
     11 O2A        20.5270   19.7010    6.2910 O.co2     1 AGS400      0.0000 
     12 O3A        18.9990   17.9560    6.0730 O.3       1 AGS400      0.0000 
     13 O5'        20.0510   18.4170    4.0310 O.3       1 AGS400      0.0000 
     14 C5'        19.2580   19.4800    3.4940 C.3       1 AGS400      0.0000 
     15 C4'        19.6850   19.8210    2.0650 C.3       1 AGS400      0.0000 
     16 O4'        21.0540   20.2600    1.9910 O.3       1 AGS400      0.0000 
     17 C3'        19.5850   18.6460    1.0930 C.3       1 AGS400      0.0000 
     18 O3'        18.2510   18.4940    0.5990 O.3       1 AGS400      0.0000 
     19 C2'        20.4750   19.1820   -0.0250 C.3       1 AGS400      0.0000 
     20 O2'        19.8500   20.2620   -0.7240 O.3       1 AGS400      0.0000 
     21 C1'        21.6510   19.7080    0.8010 C.3       1 AGS400      0.0000 
     22 N9         22.5630   18.6120    1.2080 N.pl3     1 AGS400      0.0000 
     23 C8         22.5260   17.9430    2.3590 C.2       1 AGS400      0.0000 
     24 N7         23.5270   17.0670    2.4050 N.2       1 AGS400      0.0000 
     25 C5         24.2110   17.1740    1.2710 C.ar      1 AGS400      0.0000 
     26 C6         25.3330   16.5400    0.7460 C.ar      1 AGS400      0.0000 
     27 N6         25.9580   15.5880    1.4330 N.pl3     1 AGS400      0.0000 
     28 N1         25.7770   16.9000   -0.4680 N.ar      1 AGS400      0.0000 
     29 C2         25.1680   17.8410   -1.1700 C.ar      1 AGS400      0.0000 
     30 N3         24.1000   18.4630   -0.7000 N.ar      1 AGS400      0.0000 
     31 C4         23.5980   18.1580    0.5060 C.ar      1 AGS400      0.0000 
     32 H          19.3490   20.3976    4.0968 H         1 AGS400      0.0000 
     33 H          18.1892   19.2146    3.4679 H         1 AGS400      0.0000 
     34 H          19.0326   20.6089    1.6812 H         1 AGS400      0.0000 
     35 H          20.0213   17.8146    1.5057 H         1 AGS400      0.0000 
     36 H          20.8047   18.3928   -0.6103 H         1 AGS400      0.0000 
     37 H          22.1565   20.4498    0.2495 H         1 AGS400      0.0000 
     38 H          21.8596   18.0764    3.0675 H         1 AGS400      0.0000 
     39 H          25.5649   15.3576    2.3231 H         1 AGS400      0.0000 
     40 H          26.7647   15.1885    0.9974 H         1 AGS400      0.0000 
     41 H          25.5426   18.1009   -2.1258 H         1 AGS400      0.0000 
     42 H          18.2544   18.9395   -0.2962 H         1 AGS400      0.0000 
     43 H          20.3568   20.3424   -1.5823 H         1 AGS400      0.0000 
@<TRIPOS>BOND
     1    2    1 1    
     2    3    1 ar   
     3    4    1 ar   
     4    8    1 1    
     5    6    5 ar   
     6    7    5 ar   
     7    8    5 1    
     8   12    5 1    
     9   10    9 ar   
    10   11    9 ar   
    11   12    9 1    
    12   13    9 1    
    13   14   13 1    
    14   15   14 1    
    15   32   14 1    
    16   33   14 1    
    17   16   15 1    
    18   17   15 1    
    19   34   15 1    
    20   21   16 1    
    21   18   17 1    
    22   19   17 1    
    23   35   17 1    
    24   42   18 1    
    25   20   19 1    
    26   21   19 1    
    27   36   19 1    
    28   43   20 1    
    29   22   21 1    
    30   37   21 1    
    31   23   22 1    
    32   31   22 1    
    33   24   23 2    
    34   38   23 1    
    35   25   24 1    
    36   26   25 ar   
    37   31   25 ar   
    38   27   26 1    
    39   28   26 ar   
    40   39   27 1    
    41   40   27 1    
    42   29   28 ar   
    43   30   29 ar   
    44   41   29 1    
    45   31   30 ar   
@<TRIPOS>SUBSTRUCTURE
     1 AGS400      1 GROUP   
@<TRIPOS>SET

