#    Name: 3q30_D61_1_INTS_M
#    Modification time : Tue Mar 25 08:50:41 2014

@<TRIPOS>MOLECULE
3q30_D61_1_INTS_M
  105     0    12     0     0
SMALL
NO_CHARGES


@<TRIPOS>ATOM
      1 CA         24.6660    1.8650   53.9730 C.3       4 GLC5        0.0000 
      2 CA         22.7870    1.7000   53.3040 C.3      12 GLL5        0.0000 
      3 CA         26.5450    2.0300   54.6420 C.3       8 GLP5        0.0000 
      4 CA         23.1030    3.5270   53.1950 C.3       4 GLC5        0.0000 
      5 CA         23.4190    5.3540   53.0860 C.3       8 GLP5        0.0000 
      6 CA         22.3895    3.3290   54.9255 C.3       4 GLC5        0.0000 
      7 CA         21.5630    1.8240   54.0040 C.3      12 GLL5        0.0000 
      8 CA         23.2160    4.8340   55.8470 C.3       8 GLP5        0.0000 
      9 CA         20.8190    1.0170   56.3530 C.3       4 GLC5        0.0000 
     10 CA         20.7270    0.7160   54.2340 C.3      12 GLL5        0.0000 
     11 CA         20.9110    1.3180   58.4720 C.3       8 GLP5        0.0000 
     12 CA         25.0940   -0.1750   52.9015 C.3       4 GLC5        0.0000 
     13 CA         23.1870    0.4520   52.8380 C.3      12 GLL5        0.0000 
     14 CA         27.0010   -0.8020   52.9650 C.3       8 GLP5        0.0000 
     15 CA         24.8830   -1.3780   52.7625 C.3       4 GLC5        0.0000 
     16 CA         22.7650   -1.9540   52.5600 C.3      12 GLL5        0.0000 
     17 CA         20.9200   -3.5925   51.2530 C.3       4 GLC5        0.0000 
     18 CA         21.9730   -3.0810   52.7660 C.3      12 GLL5        0.0000 
     19 CA         19.8670   -4.1040   49.7400 C.3       8 GLP5        0.0000 
     20 CA         19.4545   -3.5945   51.9630 C.3       4 GLC5        0.0000 
     21 CA         19.9540   -4.2650   53.6540 C.3      12 GLL5        0.0000 
     22 CA         18.9550   -2.9240   50.2720 C.3       8 GLP5        0.0000 
     23 CA         21.5855   -5.6370   57.1065 C.3       4 GLC5        0.0000 
     24 CA         19.5530   -6.3830   56.7800 C.3      12 GLL5        0.0000 
     25 CA         23.6180   -4.8910   57.4330 C.3       8 GLP5        0.0000 
     26 O          19.7135   -9.3895   55.8540 O.2       1 ALC1        0.0000 
     27 O          18.5210   -8.5930   56.3040 O.2       9 ALL1        0.0000 
     28 O          20.9060  -10.1860   55.4040 O.2       5 ALP1        0.0000 
     29 N          15.0330   -8.6090   54.9515 N.am      2 SEC2        0.0000 
     30 N          16.4500   -8.2650   55.4320 N.am     10 SEL2        0.0000 
     31 N          13.6160   -8.9530   54.4710 N.am      6 SEP2        0.0000 
     32 N          15.3420   -7.5700   55.3420 N.am      2 SEC2        0.0000 
     33 N          14.2340   -6.8750   55.2520 N.am      6 SEP2        0.0000 
     34 N          15.1865   -9.5475   54.0095 N.am      2 SEC2        0.0000 
     35 N          16.7570  -10.1420   53.5480 N.am     10 SEL2        0.0000 
     36 CA         16.7465   -9.4255   49.1570 C.3       4 GLC5        0.0000 
     37 CA         16.5350   -9.6010   51.1280 C.3      12 GLL5        0.0000 
     38 CA         16.9580   -9.2500   47.1860 C.3       8 GLP5        0.0000 
     39 CA         16.1575  -10.9870   49.8520 C.3       4 GLC5        0.0000 
     40 CA         15.7800  -12.3730   48.5760 C.3       8 GLP5        0.0000 
     41 CA         17.5270   -6.2305   50.6295 C.3       4 GLC5        0.0000 
     42 CA         16.0270   -7.1200   51.6340 C.3      12 GLL5        0.0000 
     43 CA         19.0270   -5.3410   49.6250 C.3       8 GLP5        0.0000 
     44 CA         14.5710   -4.7655   49.8710 C.3       4 GLC5        0.0000 
     45 CA         15.2340   -3.6850   51.4340 C.3      12 GLL5        0.0000 
     46 CA         13.9080   -5.8460   48.3080 C.3       8 GLP5        0.0000 
     47 CA         13.7910   -0.3785   51.3575 C.3       4 GLC5        0.0000 
     48 CA         15.7530   -0.0670   51.0880 C.3      12 GLL5        0.0000 
     49 CA         11.8290   -0.6900   51.6270 C.3       8 GLP5        0.0000 
     50 CA         14.6985    1.3905   53.3435 C.3       4 GLC5        0.0000 
     51 CA         16.2810    0.2300   52.3430 C.3      12 GLL5        0.0000 
     52 CA         13.1160    2.5510   54.3440 C.3       8 GLP5        0.0000 
     53 CA         18.1470   -0.0330   52.0380 C.3       4 GLC5        0.0000 
     54 CA         16.4800   -0.7520   53.3020 C.3      12 GLL5        0.0000 
     55 CA         19.8140    0.6860   50.7740 C.3       8 GLP5        0.0000 
     56 Zn         14.7470  -11.8455   55.5775 Zn        3 ZIC7        0.0000 
     57 Zn         15.4560  -10.9410   55.8730 Zn       11 ZIL7        0.0000 
     58 Zn         14.0380  -12.7500   55.2820 Zn        7 ZIP7        0.0000 
     59 N          14.5360   -9.9470   55.1720 N.am      2 SEC2        0.0000 
     60 N          15.4560  -10.9410   55.8730 N.am     10 SEL2        0.0000 
     61 Zn         13.4290  -12.1320   55.9135 Zn        3 ZIC7        0.0000 
     62 Zn         12.8200  -11.5140   56.5450 Zn       11 ZIL7        0.0000 
     63 Zn         15.7070  -13.8920   53.5770 Zn        3 ZIC7        0.0000 
     64 Zn         15.9280  -13.2960   54.4770 Zn       11 ZIL7        0.0000 
     65 Zn         15.4860  -14.4880   52.6770 Zn        7 ZIP7        0.0000 
     66 Zn         14.9830  -13.0230   54.8795 Zn        3 ZIC7        0.0000 
     67 N          19.6180  -12.7480   54.8800 N.am      2 SEC2        0.0000 
     68 N          18.1400  -13.0950   54.5880 N.am     10 SEL2        0.0000 
     69 N          21.0960  -12.4010   55.1720 N.am      6 SEP2        0.0000 
     70 CA         20.9945    1.2240   52.2140 C.3       4 GLC5        0.0000 
     71 CA         22.2318   -1.6135   55.0832 C.3       4 GLC5        0.0000 
     72 CA         21.1160   -0.5660   53.7660 C.3      12 GLL5        0.0000 
     73 CA         22.7270   -2.5990   56.7560 C.3       8 GLP5        0.0000 
     74 CA         23.1270   -0.8020   51.0237 C.3       4 GLC5        0.0000 
     75 CA         22.3570   -0.6900   53.0550 C.3      12 GLL5        0.0000 
     76 CA         23.4820   -1.4850   49.1010 C.3       8 GLP5        0.0000 
     77 CA         22.9255   -2.0012   50.8820 C.3       4 GLC5        0.0000 
     78 CA         21.2912   -0.1752   51.7636 C.3       4 GLC5        0.0000 
     79 CA         23.7460   -3.6393   52.8015 C.3       4 GLC5        0.0000 
     80 CA         25.1230   -4.7610   52.9400 C.3       8 GLP5        0.0000 
     81 CA         22.5480   -2.5583   54.7095 C.3       4 GLC5        0.0000 
     82 CA         19.7420   -2.6368   51.9880 C.3       4 GLC5        0.0000 
     83 CA         20.7510   -2.9760   53.4490 C.3      12 GLL5        0.0000 
     84 CA         21.6280   -2.4743   55.2300 C.3       4 GLC5        0.0000 
     85 CA         20.2141   -0.0690   52.3768 C.3       4 GLC5        0.0000 
     86 CA         20.3070   -1.7230   53.9590 C.3      12 GLL5        0.0000 
     87 CA         21.4970   -3.6282   55.4997 C.3       4 GLC5        0.0000 
     88 CA         18.5380  -10.9050   51.0935 C.3       4 GLC5        0.0000 
     89 CA         17.4190  -10.1090   52.2720 C.3      12 GLL5        0.0000 
     90 CA         20.0990  -11.9550   50.4870 C.3       8 GLP5        0.0000 
     91 CA         14.4647  -10.0920   51.3345 C.3       4 GLC5        0.0000 
     92 CA         12.9390  -11.1090   51.3570 C.3       8 GLP5        0.0000 
     93 CA         14.6296   -6.4111   50.0575 C.3       4 GLC5        0.0000 
     94 CA         14.9660   -6.1180   52.0490 C.3      12 GLL5        0.0000 
     95 CA         17.1405   -3.5558   51.0940 C.3       4 GLC5        0.0000 
     96 CA         15.4180   -4.6900   52.3980 C.3      12 GLL5        0.0000 
     97 CA         13.7447   -1.8842   50.7885 C.3       4 GLC5        0.0000 
     98 CA         15.4010   -1.3770   50.7800 C.3      12 GLL5        0.0000 
     99 CA         12.0840   -1.5630   50.3960 C.3       8 GLP5        0.0000 
    100 CA         17.2660   -1.8230   50.6030 C.3       4 GLC5        0.0000 
    101 CA         15.4145    1.9838   51.3453 C.3       4 GLC5        0.0000 
    102 CA         14.8120    3.8860   50.9750 C.3       8 GLP5        0.0000 
    103 CA         17.0700    1.0953   50.6257 C.3       4 GLC5        0.0000 
    104 CA         18.1230    2.1090   49.5360 C.3       8 GLP5        0.0000 
    105 CA         17.5631   -2.2067   51.5555 C.3       4 GLC5        0.0000 
@<TRIPOS>BOND
@<TRIPOS>SUBSTRUCTURE
     1 ALC1       26 GROUP        1 X    ALC  0     ROOT ALC X 1
     2 SEC2       29 GROUP        1 X    SEC  0     **** SEC X 2
     3 ZIC7       56 GROUP        1 X    ZIC  0     **** ZIC X 5
     4 GLC5        1 GROUP        1 X    GLC  0     **** GLC X 6
     5 ALP1       28 GROUP        1 Y    ALP  0     ROOT ALP Y 8
     6 SEP2       31 GROUP        1 Y    SEP  0     **** SEP Y 9
     7 ZIP7       58 GROUP        1 Y    ZIP  0     **** ZIP Y 12
     8 GLP5        3 GROUP        1 Y    GLP  0     **** GLP Y 13
     9 ALL1       27 GROUP        1 Z    ALL  0     ROOT ALL Z 15
    10 SEL2       30 GROUP        1 Z    SEL  0     **** SEL Z 16
    11 ZIL7       57 GROUP        1 Z    ZIL  0     **** ZIL Z 19
    12 GLL5        2 GROUP        1 Z    GLL  0     **** GLL Z 20
@<TRIPOS>SET

