#    Name: 3q30_D61_1_ligand
#    Modification time : Tue Mar 25 08:50:41 2014

@<TRIPOS>MOLECULE
3q30_D61_1_ligand
   83    86     1     0     0
SMALL
NO_CHARGES


@<TRIPOS>ATOM
      1 C1         22.7870    1.7000   53.3040 C.ar      1 D61700      0.0000 
      2 C2         21.5630    1.8240   54.0040 C.ar      1 D61700      0.0000 
      3 C3         20.7270    0.7160   54.2340 C.ar      1 D61700      0.0000 
      4 C4         21.1160   -0.5660   53.7660 C.ar      1 D61700      0.0000 
      5 C5         22.3570   -0.6900   53.0550 C.ar      1 D61700      0.0000 
      6 C6         23.1870    0.4520   52.8380 C.ar      1 D61700      0.0000 
      7 C7         22.7650   -1.9540   52.5600 C.ar      1 D61700      0.0000 
      8 C8         21.9730   -3.0810   52.7660 C.ar      1 D61700      0.0000 
      9 C9         20.7510   -2.9760   53.4490 C.ar      1 D61700      0.0000 
     10 C10        20.3070   -1.7230   53.9590 C.ar      1 D61700      0.0000 
     11 C11        19.9540   -4.2650   53.6540 C.3       1 D61700      0.0000 
     12 C12        20.5800   -5.0500   54.8330 C.3       1 D61700      0.0000 
     13 C13        19.6660   -6.2260   55.2390 C.3       1 D61700      0.0000 
     14 C14        19.5530   -6.3830   56.7800 C.3       1 D61700      0.0000 
     15 C15        18.4650   -7.4020   57.1930 C.3       1 D61700      0.0000 
     16 N16        18.5210   -8.5930   56.3040 N.am      1 D61700      0.0000 
     17 C17        17.4760   -8.9400   55.5320 C.2       1 D61700      0.0000 
     18 O18        16.4500   -8.2650   55.4320 O.2       1 D61700      0.0000 
     19 C19        17.5320  -10.2650   54.7760 C.3       1 D61700      0.0000 
     20 O20        16.7570  -10.1420   53.5480 O.3       1 D61700      0.0000 
     21 C21        17.4190  -10.1090   52.2720 C.3       1 D61700      0.0000 
     22 C22        16.5350   -9.6010   51.1280 C.3       1 D61700      0.0000 
     23 C23        15.4460   -8.5490   51.4960 C.3       1 D61700      0.0000 
     24 C24        16.0270   -7.1200   51.6340 C.3       1 D61700      0.0000 
     25 C25        14.9660   -6.1180   52.0490 C.3       1 D61700      0.0000 
     26 C26        15.4180   -4.6900   52.3980 C.ar      1 D61700      0.0000 
     27 C27        15.9600   -4.3870   53.6560 C.ar      1 D61700      0.0000 
     28 C28        16.3370   -3.0810   53.9720 C.ar      1 D61700      0.0000 
     29 C29        16.1390   -2.0710   53.0220 C.ar      1 D61700      0.0000 
     30 C30        15.5860   -2.3830   51.7300 C.ar      1 D61700      0.0000 
     31 C31        15.2340   -3.6850   51.4340 C.ar      1 D61700      0.0000 
     32 C32        15.4010   -1.3770   50.7800 C.ar      1 D61700      0.0000 
     33 C33        15.7530   -0.0670   51.0880 C.ar      1 D61700      0.0000 
     34 C34        16.2810    0.2300   52.3430 C.ar      1 D61700      0.0000 
     35 C35        16.4800   -0.7520   53.3020 C.ar      1 D61700      0.0000 
     36 C36        16.8470  -11.3620   55.6270 C.3       1 D61700      0.0000 
     37 O37        15.4560  -10.9410   55.8730 O.3       1 D61700      0.0000 
     38 C38        14.9650  -10.6330   57.2280 C.3       1 D61700      0.0000 
     39 C39        13.4430  -10.7890   57.3870 C.2       1 D61700      0.0000 
     40 O40        12.8880  -10.1720   58.3430 O.co2     1 D61700      0.0000 
     41 O41        12.8200  -11.5140   56.5450 O.co2     1 D61700      0.0000 
     42 C42        16.9700  -12.6910   54.8510 C.2       1 D61700      0.0000 
     43 O43        15.9280  -13.2960   54.4770 O.co2     1 D61700      0.0000 
     44 O44        18.1400  -13.0950   54.5880 O.co2     1 D61700      0.0000 
     45 H          23.3643    2.5273   53.1479 H         1 D61700      0.0000 
     46 H          21.2792    2.7543   54.3538 H         1 D61700      0.0000 
     47 H          19.8464    0.8277   54.7331 H         1 D61700      0.0000 
     48 H          24.0709    0.3349   52.3390 H         1 D61700      0.0000 
     49 H          23.6515   -2.0279   52.0479 H         1 D61700      0.0000 
     50 H          22.2811   -3.9985   52.4173 H         1 D61700      0.0000 
     51 H          19.4267   -1.6544   54.4531 H         1 D61700      0.0000 
     52 H          20.0045   -4.8697   52.7644 H         1 D61700      0.0000 
     53 H          18.9319   -4.0267   53.8952 H         1 D61700      0.0000 
     54 H          20.7005   -4.3834   55.6774 H         1 D61700      0.0000 
     55 H          21.5444   -5.4360   54.5285 H         1 D61700      0.0000 
     56 H          20.0661   -7.1507   54.8205 H         1 D61700      0.0000 
     57 H          18.6684   -6.0615   54.8290 H         1 D61700      0.0000 
     58 H          19.3147   -5.4115   57.2159 H         1 D61700      0.0000 
     59 H          20.5166   -6.7128   57.1714 H         1 D61700      0.0000 
     60 H          17.4957   -6.9138   57.1190 H         1 D61700      0.0000 
     61 H          18.6412   -7.6875   58.2277 H         1 D61700      0.0000 
     62 H          19.4056   -9.1232   56.3237 H         1 D61700      0.0000 
     63 H          18.5247  -10.5415   54.5921 H         1 D61700      0.0000 
     64 H          17.7851  -11.1189   51.9849 H         1 D61700      0.0000 
     65 H          18.3219   -9.4610   52.3062 H         1 D61700      0.0000 
     66 H          16.0270  -10.4676   50.6523 H         1 D61700      0.0000 
     67 H          17.1829   -9.1615   50.3391 H         1 D61700      0.0000 
     68 H          14.9846   -8.8389   52.4401 H         1 D61700      0.0000 
     69 H          14.6821   -8.5497   50.7183 H         1 D61700      0.0000 
     70 H          16.4563   -6.8264   50.6740 H         1 D61700      0.0000 
     71 H          16.8257   -7.1412   52.3782 H         1 D61700      0.0000 
     72 H          14.4063   -6.5286   52.9291 H         1 D61700      0.0000 
     73 H          14.1973   -6.0487   51.2361 H         1 D61700      0.0000 
     74 H          16.0795   -5.1378   54.3507 H         1 D61700      0.0000 
     75 H          16.7491   -2.8637   54.8770 H         1 D61700      0.0000 
     76 H          14.8400   -3.9276   50.5195 H         1 D61700      0.0000 
     77 H          15.0079   -1.6046   49.8614 H         1 D61700      0.0000 
     78 H          15.6249    0.6783   50.3949 H         1 D61700      0.0000 
     79 H          16.5317    1.2156   52.5637 H         1 D61700      0.0000 
     80 H          16.8781   -0.5076   54.2172 H         1 D61700      0.0000 
     81 H          17.3984  -11.4423   56.5426 H         1 D61700      0.0000 
     82 H          15.2300   -9.5954   57.5070 H         1 D61700      0.0000 
     83 H          15.4524  -11.2905   57.9729 H         1 D61700      0.0000 
@<TRIPOS>BOND
     1    2    1 ar   
     2    6    1 ar   
     3   45    1 1    
     4    3    2 ar   
     5   46    2 1    
     6    4    3 ar   
     7   47    3 1    
     8    5    4 ar   
     9   10    4 ar   
    10    6    5 ar   
    11    7    5 ar   
    12   48    6 1    
    13    8    7 ar   
    14   49    7 1    
    15    9    8 ar   
    16   50    8 1    
    17   10    9 ar   
    18   11    9 1    
    19   51   10 1    
    20   12   11 1    
    21   52   11 1    
    22   53   11 1    
    23   13   12 1    
    24   54   12 1    
    25   55   12 1    
    26   14   13 1    
    27   56   13 1    
    28   57   13 1    
    29   15   14 1    
    30   58   14 1    
    31   59   14 1    
    32   16   15 1    
    33   60   15 1    
    34   61   15 1    
    35   17   16 am   
    36   62   16 1    
    37   18   17 2    
    38   19   17 1    
    39   20   19 1    
    40   36   19 1    
    41   63   19 1    
    42   21   20 1    
    43   22   21 1    
    44   64   21 1    
    45   65   21 1    
    46   23   22 1    
    47   66   22 1    
    48   67   22 1    
    49   24   23 1    
    50   68   23 1    
    51   69   23 1    
    52   25   24 1    
    53   70   24 1    
    54   71   24 1    
    55   26   25 1    
    56   72   25 1    
    57   73   25 1    
    58   27   26 ar   
    59   31   26 ar   
    60   28   27 ar   
    61   74   27 1    
    62   29   28 ar   
    63   75   28 1    
    64   30   29 ar   
    65   35   29 ar   
    66   31   30 ar   
    67   32   30 ar   
    68   76   31 1    
    69   33   32 ar   
    70   77   32 1    
    71   34   33 ar   
    72   78   33 1    
    73   35   34 ar   
    74   79   34 1    
    75   80   35 1    
    76   37   36 1    
    77   42   36 1    
    78   81   36 1    
    79   38   37 1    
    80   39   38 1    
    81   82   38 1    
    82   83   38 1    
    83   40   39 ar   
    84   41   39 ar   
    85   43   42 ar   
    86   44   42 ar   
@<TRIPOS>SUBSTRUCTURE
     1 D61700      1 GROUP   
@<TRIPOS>SET

