#    Name: 4jln_18V_2_INTS_M
#    Modification time : Tue Mar 25 06:02:11 2014

@<TRIPOS>MOLECULE
4jln_18V_2_INTS_M
   77     0     9     0     0
SMALL
NO_CHARGES


@<TRIPOS>ATOM
      1 CA        -35.7455   -6.3630  -27.1965 C.3       3 GLC5        0.0000 
      2 CA        -36.3030   -7.9390  -26.1410 C.3       9 GLL5        0.0000 
      3 CA        -35.1880   -4.7870  -28.2520 C.3       6 GLP5        0.0000 
      4 CA        -34.8910   -9.2095  -26.6605 C.3       3 GLC5        0.0000 
      5 CA        -33.4790  -10.4800  -27.1800 C.3       6 GLP5        0.0000 
      6 CA        -36.8925   -7.5640  -22.9280 C.3       3 GLC5        0.0000 
      7 CA        -36.2460   -7.5710  -24.8390 C.3       9 GLL5        0.0000 
      8 CA        -37.5390   -7.5570  -21.0170 C.3       6 GLP5        0.0000 
      9 CA        -35.4765   -5.7440  -23.8985 C.3       3 GLC5        0.0000 
     10 CA        -34.7070   -3.9170  -22.9580 C.3       6 GLP5        0.0000 
     11 CA        -35.7695   -8.0670  -22.3330 C.3       3 GLC5        0.0000 
     12 CA        -35.4190   -8.6250  -24.1130 C.3       9 GLL5        0.0000 
     13 CA        -36.1200   -7.5090  -20.5530 C.3       6 GLP5        0.0000 
     14 CA        -34.4490   -9.5525  -25.6465 C.3       3 GLC5        0.0000 
     15 CA        -35.9220   -9.1365  -21.9210 C.3       3 GLC5        0.0000 
     16 CA        -35.7240  -10.7640  -23.2890 C.3       9 GLL5        0.0000 
     17 CA        -33.2740   -9.7170  -21.7715 C.3       3 GLC5        0.0000 
     18 CA        -34.3800  -11.1150  -23.1200 C.3       9 GLL5        0.0000 
     19 CA        -32.1680   -8.3190  -20.4230 C.3       6 GLP5        0.0000 
     20 CA        -37.1335   -9.4515  -21.7705 C.3       3 GLC5        0.0000 
     21 CA        -36.7280  -11.3460  -22.5240 C.3       9 GLL5        0.0000 
     22 CA        -38.6765   -9.6455  -20.8455 C.3       3 GLC5        0.0000 
     23 CA        -39.0520  -11.4000  -21.9180 C.3       9 GLL5        0.0000 
     24 CA        -38.3010   -7.8910  -19.7730 C.3       6 GLP5        0.0000 
     25 CA        -32.1865  -11.6910  -19.5685 C.3       3 GLC5        0.0000 
     26 CA        -32.1210  -13.4210  -20.8510 C.3       9 GLL5        0.0000 
     27 CA        -32.2520   -9.9610  -18.2860 C.3       6 GLP5        0.0000 
     28 CA        -28.3300  -12.7805  -19.5660 C.3       3 GLC5        0.0000 
     29 CA        -29.3770  -14.0770  -20.7660 C.3       9 GLL5        0.0000 
     30 CA        -27.2830  -11.4840  -18.3660 C.3       6 GLP5        0.0000 
     31 CA        -31.4430  -16.1725  -20.1890 C.3       3 GLC5        0.0000 
     32 CA        -29.5190  -15.5920  -20.9760 C.3       9 GLL5        0.0000 
     33 CA        -33.3670  -16.7530  -19.4020 C.3       6 GLP5        0.0000 
     34 CA        -29.5110  -15.8100  -24.2545 C.3       3 GLC5        0.0000 
     35 CA        -29.4650  -15.9540  -22.4700 C.3       9 GLL5        0.0000 
     36 CA        -29.5570  -15.6660  -26.0390 C.3       6 GLP5        0.0000 
     37 CA        -31.4190  -16.6020  -23.2000 C.3       3 GLC5        0.0000 
     38 CA        -33.3730  -17.2500  -23.9300 C.3       6 GLP5        0.0000 
     39 CA        -29.4250  -13.9470  -24.6435 C.3       3 GLC5        0.0000 
     40 CA        -29.2930  -12.2280  -23.2480 C.3       9 GLL5        0.0000 
     41 CA        -28.0470  -10.4880  -20.9780 C.3       3 GLC5        0.0000 
     42 CA        -28.5270  -10.6210  -22.8330 C.3       9 GLL5        0.0000 
     43 CA        -27.5670  -10.3550  -19.1230 C.3       6 GLP5        0.0000 
     44 CA        -29.2505   -8.5720  -22.8325 C.3       3 GLC5        0.0000 
     45 CA        -29.9740   -6.5230  -22.8320 C.3       6 GLP5        0.0000 
     46 CA        -26.4065   -9.9390  -23.7585 C.3       3 GLC5        0.0000 
     47 CA        -26.8720  -11.0690  -22.4590 C.3       9 GLL5        0.0000 
     48 CA        -25.9410   -8.8090  -25.0580 C.3       6 GLP5        0.0000 
     49 N         -26.6980   -8.8570  -21.7155 N.am      2 SEC2        0.0000 
     50 N         -25.9880  -10.0830  -22.2110 N.am      8 SEL2        0.0000 
     51 N         -27.4080   -7.6310  -21.2200 N.am      5 SEP2        0.0000 
     52 CA        -25.3230   -9.5870  -23.4965 C.3       3 GLC5        0.0000 
     53 CA        -24.7050  -10.3650  -21.9350 C.3       9 GLL5        0.0000 
     54 O         -24.5850   -8.1305  -21.6700 O.2       1 ALC1        0.0000 
     55 O         -23.8380   -9.3810  -21.7270 O.2       7 ALL1        0.0000 
     56 O         -25.3320   -6.8800  -21.6130 O.2       4 ALP1        0.0000 
     57 O         -22.4745   -9.4850  -21.8680 O.2       1 ALC1        0.0000 
     58 O         -21.1110   -9.5890  -22.0090 O.2       4 ALP1        0.0000 
     59 O         -23.2525  -14.2815  -22.2555 O.2       1 ALC1        0.0000 
     60 O         -24.8530  -13.9750  -22.1220 O.2       7 ALL1        0.0000 
     61 O         -21.6520  -14.5880  -22.3890 O.2       4 ALP1        0.0000 
     62 O         -23.8980  -15.0995  -21.8915 O.2       1 ALC1        0.0000 
     63 O         -22.9430  -16.2240  -21.6610 O.2       4 ALP1        0.0000 
     64 CA        -34.0143   -7.5305  -24.1865 C.3       3 GLC5        0.0000 
     65 CA        -32.1960   -6.9630  -23.8970 C.3       6 GLP5        0.0000 
     66 CA        -36.0205  -12.6555  -19.6412 C.3       3 GLC5        0.0000 
     67 CA        -35.0470  -12.6570  -21.3890 C.3       9 GLL5        0.0000 
     68 CA        -36.3240  -12.8320  -17.8070 C.3       6 GLP5        0.0000 
     69 CA        -27.7080  -14.9328  -19.7060 C.3       3 GLC5        0.0000 
     70 CA        -25.9680  -15.0310  -18.5410 C.3       6 GLP5        0.0000 
     71 CA        -29.5420  -14.8927  -18.8675 C.3       3 GLC5        0.0000 
     72 CA        -29.6360  -14.9510  -16.8640 C.3       6 GLP5        0.0000 
     73 CA        -27.7965  -11.2157  -24.5328 C.3       3 GLC5        0.0000 
     74 CA        -26.6830  -11.0070  -26.0250 C.3       6 GLP5        0.0000 
     75 CA        -24.4960  -12.7222  -20.0980 C.3       3 GLC5        0.0000 
     76 CA        -25.2180  -12.6900  -22.1600 C.3       9 GLL5        0.0000 
     77 CA        -24.2410  -13.2540  -18.1640 C.3       6 GLP5        0.0000 
@<TRIPOS>BOND
@<TRIPOS>SUBSTRUCTURE
     1 ALC1       54 GROUP        1 X    ALC  0     ROOT ALC X 1
     2 SEC2       49 GROUP        1 X    SEC  0     **** SEC X 2
     3 GLC5        1 GROUP        1 X    GLC  0     **** GLC X 6
     4 ALP1       56 GROUP        1 Y    ALP  0     ROOT ALP Y 8
     5 SEP2       51 GROUP        1 Y    SEP  0     **** SEP Y 9
     6 GLP5        3 GROUP        1 Y    GLP  0     **** GLP Y 13
     7 ALL1       55 GROUP        1 Z    ALL  0     ROOT ALL Z 15
     8 SEL2       50 GROUP        1 Z    SEL  0     **** SEL Z 16
     9 GLL5        2 GROUP        1 Z    GLL  0     **** GLL Z 20
@<TRIPOS>SET

