#    Name: 4jln_18V_2_ligand
#    Modification time : Tue Mar 25 06:02:11 2014

@<TRIPOS>MOLECULE
4jln_18V_2_ligand
   54    56     1     0     0
SMALL
NO_CHARGES


@<TRIPOS>ATOM
      1 FAE       -36.3030   -7.9390  -26.1410 F         1 18V301      0.0000 
      2 CAK       -36.2460   -7.5710  -24.8390 C.3       1 18V301      0.0000 
      3 CAL       -35.4190   -8.6250  -24.1130 C.3       1 18V301      0.0000 
      4 OAS       -36.1430   -9.8540  -24.1970 O.3       1 18V301      0.0000 
      5 CBA       -35.7240  -10.7640  -23.2890 C.ar      1 18V301      0.0000 
      6 CAI       -34.3800  -11.1150  -23.1200 C.ar      1 18V301      0.0000 
      7 CAZ       -36.7280  -11.3460  -22.5240 C.ar      1 18V301      0.0000 
      8 OAR       -38.0050  -10.9100  -22.7900 O.3       1 18V301      0.0000 
      9 CAB       -39.0520  -11.4000  -21.9180 C.3       1 18V301      0.0000 
     10 CAG       -36.3870  -12.3010  -21.5620 C.ar      1 18V301      0.0000 
     11 CAF       -35.0470  -12.6570  -21.3890 C.ar      1 18V301      0.0000 
     12 CAX       -34.0330  -12.0570  -22.1500 C.ar      1 18V301      0.0000 
     13 CBD       -32.7450  -12.4160  -21.9960 C.2       1 18V301      0.0000 
     14 NAQ       -31.7590  -12.0340  -22.7960 N.2       1 18V301      0.0000 
     15 SAU       -32.1210  -13.4210  -20.8510 S.3       1 18V301      0.0000 
     16 CBC       -30.5840  -13.3420  -21.3840 C.2       1 18V301      0.0000 
     17 CAM       -29.3770  -14.0770  -20.7660 C.3       1 18V301      0.0000 
     18 CAJ       -29.5190  -15.5920  -20.9760 C.3       1 18V301      0.0000 
     19 CAA       -29.4650  -15.9540  -22.4700 C.3       1 18V301      0.0000 
     20 CBB       -30.5580  -12.5420  -22.4520 C.2       1 18V301      0.0000 
     21 CAN       -29.2930  -12.2280  -23.2480 C.3       1 18V301      0.0000 
     22 SAT       -28.5270  -10.6210  -22.8330 S.3       1 18V301      0.0000 
     23 C2        -26.8720  -11.0690  -22.4590 C.ar      1 18V301      0.0000 
     24 N3        -26.4950  -12.3590  -22.4230 N.ar      1 18V301      0.0000 
     25 N1        -25.9880  -10.0830  -22.2110 N.ar      1 18V301      0.0000 
     26 C6        -24.7050  -10.3650  -21.9350 C.ar      1 18V301      0.0000 
     27 NAC       -23.8380   -9.3810  -21.7270 N.pl3     1 18V301      0.0000 
     28 C5        -24.2840  -11.6910  -21.9040 C.ar      1 18V301      0.0000 
     29 C4        -25.2180  -12.6900  -22.1600 C.ar      1 18V301      0.0000 
     30 NAD       -24.8530  -13.9750  -22.1220 N.pl3     1 18V301      0.0000 
     31 H         -37.2236   -7.5375  -24.3452 H         1 18V301      0.0000 
     32 H         -35.7512   -6.6076  -24.6725 H         1 18V301      0.0000 
     33 H         -35.2859   -8.3011  -23.0858 H         1 18V301      0.0000 
     34 H         -34.4514   -8.6893  -24.6000 H         1 18V301      0.0000 
     35 H         -33.6592  -10.6842  -23.7029 H         1 18V301      0.0000 
     36 H         -37.1137  -12.7362  -20.9886 H         1 18V301      0.0000 
     37 H         -34.7963  -13.3744  -20.6890 H         1 18V301      0.0000 
     38 H         -29.3370  -13.8636  -19.7050 H         1 18V301      0.0000 
     39 H         -28.4687  -13.7317  -21.2440 H         1 18V301      0.0000 
     40 H         -30.4702  -15.9228  -20.5634 H         1 18V301      0.0000 
     41 H         -28.7106  -16.1026  -20.4563 H         1 18V301      0.0000 
     42 H         -29.4638  -12.1262  -24.3082 H         1 18V301      0.0000 
     43 H         -28.4832  -12.9157  -23.0612 H         1 18V301      0.0000 
     44 H         -24.1962   -8.4519  -21.8200 H         1 18V301      0.0000 
     45 H         -22.9052   -9.6579  -21.4962 H         1 18V301      0.0000 
     46 H         -23.3152  -11.9246  -21.6988 H         1 18V301      0.0000 
     47 H         -23.8828  -14.1521  -21.9566 H         1 18V301      0.0000 
     48 H         -25.5828  -14.6441  -22.2623 H         1 18V301      0.0000 
     49 H         -39.1188  -12.3975  -21.9420 H         1 18V301      0.0000 
     50 H         -38.8942  -11.1396  -20.9655 H         1 18V301      0.0000 
     51 H         -39.9487  -11.0399  -22.1756 H         1 18V301      0.0000 
     52 H         -28.6013  -15.6740  -22.8890 H         1 18V301      0.0000 
     53 H         -29.5564  -16.9389  -22.6170 H         1 18V301      0.0000 
     54 H         -30.1982  -15.5113  -22.9861 H         1 18V301      0.0000 
@<TRIPOS>BOND
     1    2    1 1    
     2    3    2 1    
     3   31    2 1    
     4   32    2 1    
     5    4    3 1    
     6   33    3 1    
     7   34    3 1    
     8    5    4 1    
     9    6    5 ar   
    10    7    5 ar   
    11   12    6 ar   
    12   35    6 1    
    13    8    7 1    
    14   10    7 ar   
    15    9    8 1    
    16   49    9 1    
    17   50    9 1    
    18   51    9 1    
    19   11   10 ar   
    20   36   10 1    
    21   12   11 ar   
    22   37   11 1    
    23   13   12 1    
    24   14   13 2    
    25   15   13 1    
    26   20   14 1    
    27   16   15 1    
    28   17   16 1    
    29   20   16 2    
    30   18   17 1    
    31   38   17 1    
    32   39   17 1    
    33   19   18 1    
    34   40   18 1    
    35   41   18 1    
    36   52   19 1    
    37   53   19 1    
    38   54   19 1    
    39   21   20 1    
    40   22   21 1    
    41   42   21 1    
    42   43   21 1    
    43   23   22 1    
    44   24   23 ar   
    45   25   23 ar   
    46   29   24 ar   
    47   26   25 ar   
    48   27   26 1    
    49   28   26 ar   
    50   44   27 1    
    51   45   27 1    
    52   29   28 ar   
    53   46   28 1    
    54   30   29 1    
    55   47   30 1    
    56   48   30 1    
@<TRIPOS>SUBSTRUCTURE
     1 18V301      1 GROUP   
@<TRIPOS>SET

