#    Name: 3ddq_RRC_1_INTS_M
#    Modification time : Mon Mar 24 23:08:56 2014

@<TRIPOS>MOLECULE
3ddq_RRC_1_INTS_M
   67     0     9     0     0
SMALL
NO_CHARGES


@<TRIPOS>ATOM
      1 CA         -1.9265  -19.6805   23.1400 C.3       3 GLC5        0.0000 
      2 CA         -3.3260  -19.9390   21.4160 C.3       9 GLL5        0.0000 
      3 CA         -0.5270  -19.4220   24.8640 C.3       6 GLP5        0.0000 
      4 CA         -1.7620  -18.4670   21.6815 C.3       3 GLC5        0.0000 
      5 CA         -0.1980  -16.9950   21.9470 C.3       6 GLP5        0.0000 
      6 CA         -2.5140  -18.7250   19.9500 C.3       3 GLC5        0.0000 
      7 CA         -1.7020  -17.5110   18.4840 C.3       6 GLP5        0.0000 
      8 CA         -5.5250  -23.2905   17.2885 C.3       3 GLC5        0.0000 
      9 CA         -5.5300  -21.9430   18.8990 C.3       9 GLL5        0.0000 
     10 CA         -5.5200  -24.6380   15.6780 C.3       6 GLP5        0.0000 
     11 CA         -6.2810  -23.8275   19.7285 C.3       3 GLC5        0.0000 
     12 CA         -7.0320  -25.7120   20.5580 C.3       6 GLP5        0.0000 
     13 CA         -7.4385  -22.2730   18.2110 C.3       3 GLC5        0.0000 
     14 CA         -9.3470  -22.6030   17.5230 C.3       6 GLP5        0.0000 
     15 CA         -5.9000  -20.6805   17.2485 C.3       3 GLC5        0.0000 
     16 CA         -6.2700  -19.4180   15.5980 C.3       6 GLP5        0.0000 
     17 CA         -5.0520  -21.8885   24.0895 C.3       3 GLC5        0.0000 
     18 CA         -5.8350  -22.1780   22.4950 C.3       9 GLL5        0.0000 
     19 CA         -4.2690  -21.5990   25.6840 C.3       6 GLP5        0.0000 
     20 CA         -7.3760  -23.1195   21.6110 C.3       3 GLC5        0.0000 
     21 CA         -8.9170  -24.0610   20.7270 C.3       6 GLP5        0.0000 
     22 CA         -7.1950  -19.9565   24.0315 C.3       3 GLC5        0.0000 
     23 CA         -8.0670  -21.6980   22.9540 C.3       9 GLL5        0.0000 
     24 CA         -6.3230  -18.2150   25.1090 C.3       6 GLP5        0.0000 
     25 CA        -10.8850  -18.6355   22.0085 C.3       3 GLC5        0.0000 
     26 CA         -9.2320  -19.9300   22.0060 C.3       9 GLL5        0.0000 
     27 CA        -12.5380  -17.3410   22.0110 C.3       6 GLP5        0.0000 
     28 CA        -11.6395  -20.9060   20.5650 C.3       3 GLC5        0.0000 
     29 CA        -10.0710  -20.1590   20.7370 C.3       9 GLL5        0.0000 
     30 CA        -13.2080  -21.6530   20.3930 C.3       6 GLP5        0.0000 
     31 CA        -11.5475  -18.9030   20.7360 C.3       3 GLC5        0.0000 
     32 CA        -13.0240  -17.6470   20.7350 C.3       6 GLP5        0.0000 
     33 CA         -9.7090  -21.3810   19.1300 C.3       3 GLC5        0.0000 
     34 CA         -7.6750  -18.3540   23.8185 C.3       3 GLC5        0.0000 
     35 CA         -9.0270  -18.4930   22.5280 C.3       9 GLL5        0.0000 
     36 CA        -10.3215  -17.3950   22.3380 C.3       3 GLC5        0.0000 
     37 CA        -11.6160  -16.2970   22.1480 C.3       6 GLP5        0.0000 
     38 CA         -7.4525  -21.9655   25.6875 C.3       3 GLC5        0.0000 
     39 CA         -8.1820  -22.7840   23.7920 C.3       9 GLL5        0.0000 
     40 CA         -6.7230  -21.1470   27.5830 C.3       6 GLP5        0.0000 
     41 N         -10.4950  -23.7875   24.9300 N.am      2 SEC2        0.0000 
     42 N          -9.4520  -22.7900   24.2570 N.am      8 SEL2        0.0000 
     43 N         -11.5380  -24.7850   25.6030 N.am      5 SEP2        0.0000 
     44 CA         -5.6620  -22.5895   24.8240 C.3       3 GLC5        0.0000 
     45 CA         -7.0550  -23.5800   23.9640 C.3       9 GLL5        0.0000 
     46 O          -8.1070  -25.2960   25.4675 O.2       1 ALC1        0.0000 
     47 O          -7.1030  -24.6550   24.7800 O.2       7 ALL1        0.0000 
     48 O          -9.1110  -25.9370   26.1550 O.2       4 ALP1        0.0000 
     49 CA         -6.1085  -27.4585   24.7660 C.3       3 GLC5        0.0000 
     50 CA         -5.9250  -25.5080   24.9450 C.3       9 GLL5        0.0000 
     51 CA         -6.2920  -29.4090   24.5870 C.3       6 GLP5        0.0000 
     52 CA         -7.4830  -26.9500   27.2720 C.3       3 GLC5        0.0000 
     53 CA         -5.9660  -25.3170   27.4430 C.3       9 GLL5        0.0000 
     54 CA         -9.0000  -28.5830   27.1010 C.3       6 GLP5        0.0000 
     55 CA         -4.5442  -18.7520   22.1827 C.3       3 GLC5        0.0000 
     56 CA         -4.5430  -20.7570   20.9630 C.3       9 GLL5        0.0000 
     57 CA         -5.1540  -17.1560   23.1760 C.3       6 GLP5        0.0000 
     58 CA         -9.0548  -20.8310   24.7085 C.3       3 GLC5        0.0000 
     59 CA         -9.9850  -19.4210   26.0440 C.3       6 GLP5        0.0000 
     60 CA         -9.5572  -19.3163   24.1555 C.3       3 GLC5        0.0000 
     61 CA         -9.2843  -22.0527   21.0493 C.3       3 GLC5        0.0000 
     62 CA         -8.2534  -23.4857   22.1977 C.3       3 GLC5        0.0000 
     63 CA         -4.9240  -23.5095   25.6440 C.3       3 GLC5        0.0000 
     64 CA         -5.0190  -23.2411   28.1756 C.3       3 GLC5        0.0000 
     65 CA         -5.2580  -21.3480   27.9830 C.3       6 GLP5        0.0000 
     66 CA         -3.8925  -23.3622   26.2873 C.3       3 GLC5        0.0000 
     67 CA         -3.1900  -25.0480   27.5000 C.3       9 GLL5        0.0000 
@<TRIPOS>BOND
@<TRIPOS>SUBSTRUCTURE
     1 ALC1       46 GROUP        1 X    ALC  0     ROOT ALC X 1
     2 SEC2       41 GROUP        1 X    SEC  0     **** SEC X 2
     3 GLC5        1 GROUP        1 X    GLC  0     **** GLC X 6
     4 ALP1       48 GROUP        1 Y    ALP  0     ROOT ALP Y 8
     5 SEP2       43 GROUP        1 Y    SEP  0     **** SEP Y 9
     6 GLP5        3 GROUP        1 Y    GLP  0     **** GLP Y 13
     7 ALL1       47 GROUP        1 Z    ALL  0     ROOT ALL Z 15
     8 SEL2       42 GROUP        1 Z    SEL  0     **** SEL Z 16
     9 GLL5        2 GROUP        1 Z    GLL  0     **** GLL Z 20
@<TRIPOS>SET

