#    Name: 3ddq_RRC_1_ligand
#    Modification time : Mon Mar 24 23:08:56 2014

@<TRIPOS>MOLECULE
3ddq_RRC_1_ligand
   52    54     1     0     0
SMALL
NO_CHARGES


@<TRIPOS>ATOM
      1 OAP        -2.2210  -20.8000   21.7380 O.3       1 RRC299      0.0000 
      2 CAQ        -3.3260  -19.9390   21.4160 C.3       1 RRC299      0.0000 
      3 CAR        -4.5430  -20.7570   20.9630 C.3       1 RRC299      0.0000 
      4 CAK        -4.2860  -21.3910   19.5830 C.3       1 RRC299      0.0000 
      5 CAI        -5.5300  -21.9430   18.8990 C.3       1 RRC299      0.0000 
      6 NAS        -4.6710  -21.8880   21.8670 N.pl3     1 RRC299      0.0000 
      7 CAT        -5.8350  -22.1780   22.4950 C.ar      1 RRC299      0.0000 
      8 NAU        -6.9130  -21.3900   22.3110 N.ar      1 RRC299      0.0000 
      9 CAV        -8.0670  -21.6980   22.9540 C.ar      1 RRC299      0.0000 
     10 NAW        -9.2130  -21.0680   22.9290 N.pl3     1 RRC299      0.0000 
     11 CAZ        -9.2320  -19.9300   22.0060 C.3       1 RRC299      0.0000 
     12 CAY       -10.0710  -20.1590   20.7370 C.3       1 RRC299      0.0000 
     13 CBA        -9.0270  -18.4930   22.5280 C.3       1 RRC299      0.0000 
     14 CAX       -10.1040  -21.7330   23.6950 C.2       1 RRC299      0.0000 
     15 CAN        -8.1820  -22.7840   23.7920 C.ar      1 RRC299      0.0000 
     16 NAO        -9.4520  -22.7900   24.2570 N.2       1 RRC299      0.0000 
     17 NAL        -5.9120  -23.2570   23.3100 N.ar      1 RRC299      0.0000 
     18 CAM        -7.0550  -23.5800   23.9640 C.ar      1 RRC299      0.0000 
     19 NAJ        -7.1030  -24.6550   24.7800 N.pl3     1 RRC299      0.0000 
     20 CAD        -5.9250  -25.5080   24.9450 C.3       1 RRC299      0.0000 
     21 CAE        -5.2330  -25.3320   26.2630 C.ar      1 RRC299      0.0000 
     22 CAG        -5.9660  -25.3170   27.4430 C.ar      1 RRC299      0.0000 
     23 CAH        -5.3080  -25.1620   28.6600 C.ar      1 RRC299      0.0000 
     24 CAF        -3.9230  -25.0290   28.6850 C.ar      1 RRC299      0.0000 
     25 CAC        -3.1900  -25.0480   27.5000 C.ar      1 RRC299      0.0000 
     26 CAB        -3.8420  -25.2030   26.2810 C.ar      1 RRC299      0.0000 
     27 H          -3.0719  -19.2431   20.6042 H         1 RRC299      0.0000 
     28 H          -3.6337  -19.3366   22.2822 H         1 RRC299      0.0000 
     29 H          -5.3988  -20.1752   20.9367 H         1 RRC299      0.0000 
     30 H          -3.5479  -22.2033   19.7029 H         1 RRC299      0.0000 
     31 H          -3.8203  -20.6320   18.9303 H         1 RRC299      0.0000 
     32 H          -3.8188  -22.4663   22.0078 H         1 RRC299      0.0000 
     33 H          -8.0760  -20.0983   21.4651 H         1 RRC299      0.0000 
     34 H         -11.0253  -21.5097   23.8246 H         1 RRC299      0.0000 
     35 H          -7.9429  -24.9166   25.3072 H         1 RRC299      0.0000 
     36 H          -5.1942  -25.3075   24.1319 H         1 RRC299      0.0000 
     37 H          -6.2115  -26.5763   24.8355 H         1 RRC299      0.0000 
     38 H          -6.9862  -25.4194   27.4191 H         1 RRC299      0.0000 
     39 H          -5.8428  -25.1459   29.5358 H         1 RRC299      0.0000 
     40 H          -3.4351  -24.9156   29.5859 H         1 RRC299      0.0000 
     41 H          -2.1675  -24.9474   27.5278 H         1 RRC299      0.0000 
     42 H          -3.3123  -25.2226   25.4076 H         1 RRC299      0.0000 
     43 H          -5.3171  -22.3432   18.0076 H         1 RRC299      0.0000 
     44 H          -5.9673  -22.6581   19.4444 H         1 RRC299      0.0000 
     45 H          -6.2156  -21.2315   18.7446 H         1 RRC299      0.0000 
     46 H         -10.0585  -19.3610   20.1345 H         1 RRC299      0.0000 
     47 H          -9.7333  -20.9344   20.2035 H         1 RRC299      0.0000 
     48 H         -11.0288  -20.3474   20.9540 H         1 RRC299      0.0000 
     49 H          -8.1415  -18.3848   22.9798 H         1 RRC299      0.0000 
     50 H          -9.0629  -17.8206   21.7887 H         1 RRC299      0.0000 
     51 H          -9.7285  -18.2357   23.1926 H         1 RRC299      0.0000 
     52 H          -2.4580  -21.6855   21.3383 H         1 RRC299      0.0000 
@<TRIPOS>BOND
     1    2    1 1    
     2   52    1 1    
     3    3    2 1    
     4   27    2 1    
     5   28    2 1    
     6    4    3 1    
     7    6    3 1    
     8   29    3 1    
     9    5    4 1    
    10   30    4 1    
    11   31    4 1    
    12   43    5 1    
    13   44    5 1    
    14   45    5 1    
    15    7    6 1    
    16   32    6 1    
    17    8    7 ar   
    18   17    7 ar   
    19    9    8 ar   
    20   10    9 1    
    21   15    9 ar   
    22   11   10 1    
    23   14   10 1    
    24   12   11 1    
    25   13   11 1    
    26   33   11 1    
    27   46   12 1    
    28   47   12 1    
    29   48   12 1    
    30   49   13 1    
    31   50   13 1    
    32   51   13 1    
    33   16   14 2    
    34   34   14 1    
    35   16   15 1    
    36   18   15 ar   
    37   18   17 ar   
    38   19   18 1    
    39   20   19 1    
    40   35   19 1    
    41   21   20 1    
    42   36   20 1    
    43   37   20 1    
    44   22   21 ar   
    45   26   21 ar   
    46   23   22 ar   
    47   38   22 1    
    48   24   23 ar   
    49   39   23 1    
    50   25   24 ar   
    51   40   24 1    
    52   26   25 ar   
    53   41   25 1    
    54   42   26 1    
@<TRIPOS>SUBSTRUCTURE
     1 RRC299      1 GROUP   
@<TRIPOS>SET

