#    Name: 3c6u_M22_1_INTS_M
#    Modification time : Mon Mar 24 20:33:28 2014

@<TRIPOS>MOLECULE
3c6u_M22_1_INTS_M
   89     0     9     0     0
SMALL
NO_CHARGES


@<TRIPOS>ATOM
      1 CA         10.0780   10.1235   16.4755 C.3       3 GLC5        0.0000 
      2 CA         10.2220   12.1760   16.3280 C.3       9 GLL5        0.0000 
      3 CA          9.9340    8.0710   16.6230 C.3       6 GLP5        0.0000 
      4 CA          8.2250   14.0995   16.7940 C.3       3 GLC5        0.0000 
      5 CA          8.8610   12.5280   16.1720 C.3       9 GLL5        0.0000 
      6 CA          7.5890   15.6710   17.4160 C.3       6 GLP5        0.0000 
      7 CA          9.2230   10.5665   15.1845 C.3       3 GLC5        0.0000 
      8 CA          9.5850    8.6050   14.1970 C.3       6 GLP5        0.0000 
      9 CA         10.7725   17.6980   20.2440 C.3       3 GLC5        0.0000 
     10 CA         10.3540   15.8300   20.4450 C.3       9 GLL5        0.0000 
     11 CA         11.1910   19.5660   20.0430 C.3       6 GLP5        0.0000 
     12 CA          8.9715   15.7505   18.9305 C.3       3 GLC5        0.0000 
     13 CA         11.8895   16.2140   18.9755 C.3       3 GLC5        0.0000 
     14 CA         13.4250   16.5980   17.5060 C.3       6 GLP5        0.0000 
     15 CA         11.9035   14.5470   20.8110 C.3       3 GLC5        0.0000 
     16 CA         13.4530   13.2640   21.1770 C.3       6 GLP5        0.0000 
     17 CA          9.8830   16.7115   22.0700 C.3       3 GLC5        0.0000 
     18 CA          9.4120   17.5930   23.6950 C.3       6 GLP5        0.0000 
     19 CA          6.6600   14.5705   14.8580 C.3       3 GLC5        0.0000 
     20 CA          5.9190   12.5830   14.6400 C.3       9 GLL5        0.0000 
     21 CA          7.4010   16.5580   15.0760 C.3       6 GLP5        0.0000 
     22 CA          4.5545   13.0265   15.0195 C.3       3 GLC5        0.0000 
     23 CA          3.1900   13.4700   15.3990 C.3       6 GLP5        0.0000 
     24 N           7.1195   11.0010   11.4670 N.am      2 SEC2        0.0000 
     25 N           6.6050   10.9030   12.9660 N.am      8 SEL2        0.0000 
     26 N           7.6340   11.0990    9.9680 N.am      5 SEP2        0.0000 
     27 O           7.0360    8.9595   11.6340 O.2       1 ALC1        0.0000 
     28 O           6.6320    9.5570   12.9860 O.2       7 ALL1        0.0000 
     29 O           7.4400    8.3620   10.2820 O.2       4 ALP1        0.0000 
     30 CA          7.7705    7.7810   16.2655 C.3       3 GLC5        0.0000 
     31 CA          5.6070    7.4910   15.9080 C.3       9 GLL5        0.0000 
     32 CA          5.5800    5.8165   16.9010 C.3       3 GLC5        0.0000 
     33 CA          5.5530    4.1420   17.8940 C.3       6 GLP5        0.0000 
     34 CA          4.7470    6.5850   17.6190 C.3       3 GLC5        0.0000 
     35 CA          5.2490    8.5400   16.7550 C.3       9 GLL5        0.0000 
     36 CA          4.2450    4.6300   18.4830 C.3       6 GLP5        0.0000 
     37 CA          3.2410    8.7010   17.2710 C.3       3 GLC5        0.0000 
     38 CA          1.2330    8.8620   17.7870 C.3       6 GLP5        0.0000 
     39 CA         11.6260    9.9640   15.2850 C.3       3 GLC5        0.0000 
     40 CA         12.6740   11.7940   15.3270 C.3       9 GLL5        0.0000 
     41 CA         10.5780    8.1340   15.2430 C.3       6 GLP5        0.0000 
     42 CA         13.5555   12.3560   14.1230 C.3       3 GLC5        0.0000 
     43 CA         14.4370   12.9180   12.9190 C.3       6 GLP5        0.0000 
     44 CA         13.5260   13.3180   15.7700 C.3       3 GLC5        0.0000 
     45 CA         14.3780   14.8420   16.2130 C.3       6 GLP5        0.0000 
     46 CA         13.2880   11.7485   17.2800 C.3       3 GLC5        0.0000 
     47 CA         13.9020   11.7030   19.2330 C.3       6 GLP5        0.0000 
     48 CA         14.2285   10.4080   15.5005 C.3       3 GLC5        0.0000 
     49 CA         15.7830    9.0220   15.6740 C.3       6 GLP5        0.0000 
     50 CA         13.1440   10.4750   13.9540 C.3       3 GLC5        0.0000 
     51 CA         13.6140    9.1560   12.5810 C.3       6 GLP5        0.0000 
     52 CA         10.4125    8.9935   21.8905 C.3       3 GLC5        0.0000 
     53 CA          9.6540   11.0470   22.2260 C.3       9 GLL5        0.0000 
     54 CA         11.1710    6.9400   21.5550 C.3       6 GLP5        0.0000 
     55 CA         11.5905   11.1105   22.6035 C.3       3 GLC5        0.0000 
     56 CA         13.5270   11.1740   22.9810 C.3       6 GLP5        0.0000 
     57 CA          8.0930    9.9420   22.2940 C.3       3 GLC5        0.0000 
     58 CA          6.5320    8.8370   22.3620 C.3       6 GLP5        0.0000 
     59 CA         12.6240   12.6777   13.7575 C.3       3 GLC5        0.0000 
     60 CA         11.0370   12.2340   15.2130 C.3       9 GLL5        0.0000 
     61 CA          9.9367   11.6150   12.1895 C.3       3 GLC5        0.0000 
     62 CA         10.5850   12.6410   13.9790 C.3       9 GLL5        0.0000 
     63 CA          9.9440   10.4130   10.4740 C.3       6 GLP5        0.0000 
     64 CA          8.1192   14.7600   14.7213 C.3       3 GLC5        0.0000 
     65 CA          9.2740   12.9930   13.8310 C.3       9 GLL5        0.0000 
     66 CA          9.8138   10.6601   14.2052 C.3       3 GLC5        0.0000 
     67 CA          9.0087   14.7812   18.5147 C.3       3 GLC5        0.0000 
     68 CA         10.5620   13.6430   18.9790 C.3       9 GLL5        0.0000 
     69 CA         11.9950   11.6865   19.8510 C.3       3 GLC5        0.0000 
     70 CA          9.9500   11.9270   21.1190 C.3       9 GLL5        0.0000 
     71 CA          8.3211   13.4209   20.4109 C.3       3 GLC5        0.0000 
     72 CA          9.9840   13.3180   21.3340 C.3       9 GLL5        0.0000 
     73 CA          6.4360   13.2370   20.3480 C.3       6 GLP5        0.0000 
     74 CA         12.1620   12.6269   19.3945 C.3       3 GLC5        0.0000 
     75 CA         10.2950   14.1400   20.2480 C.3       9 GLL5        0.0000 
     76 CA          4.3057    8.8475   14.4438 C.3       3 GLC5        0.0000 
     77 CA          6.2010    9.0030   14.1670 C.3       9 GLL5        0.0000 
     78 CA          2.5800    8.1660   14.3140 C.3       6 GLP5        0.0000 
     79 CA          7.8206    8.6098   14.3911 C.3       3 GLC5        0.0000 
     80 CA          5.8620   10.0550   14.9800 C.3       9 GLL5        0.0000 
     81 CA          4.2120    7.8807   14.7833 C.3       3 GLC5        0.0000 
     82 CA          6.0810    7.7000   14.5970 C.3       9 GLL5        0.0000 
     83 CA          5.0155   10.3075   18.3052 C.3       3 GLC5        0.0000 
     84 CA          4.7190   11.4220   20.0890 C.3       6 GLP5        0.0000 
     85 CA          3.9460    8.6795   15.4177 C.3       3 GLC5        0.0000 
     86 CA          5.3750    9.8460   16.2880 C.3       9 GLL5        0.0000 
     87 CA          8.7218   12.2319   23.2506 C.3       3 GLC5        0.0000 
     88 CA          7.6330   12.6290   24.7750 C.3       6 GLP5        0.0000 
     89 CA          8.1535   12.2978   20.8477 C.3       3 GLC5        0.0000 
@<TRIPOS>BOND
@<TRIPOS>SUBSTRUCTURE
     1 ALC1       27 GROUP        1 X    ALC  0     ROOT ALC X 1
     2 SEC2       24 GROUP        1 X    SEC  0     **** SEC X 2
     3 GLC5        1 GROUP        1 X    GLC  0     **** GLC X 6
     4 ALP1       29 GROUP        1 Y    ALP  0     ROOT ALP Y 8
     5 SEP2       26 GROUP        1 Y    SEP  0     **** SEP Y 9
     6 GLP5        3 GROUP        1 Y    GLP  0     **** GLP Y 13
     7 ALL1       28 GROUP        1 Z    ALL  0     ROOT ALL Z 15
     8 SEL2       25 GROUP        1 Z    SEL  0     **** SEL Z 16
     9 GLL5        2 GROUP        1 Z    GLL  0     **** GLL Z 20
@<TRIPOS>SET

