#    Name: 3c6u_M22_1_ligand
#    Modification time : Mon Mar 24 20:33:28 2014

@<TRIPOS>MOLECULE
3c6u_M22_1_ligand
   41    44     1     0     0
SMALL
NO_CHARGES


@<TRIPOS>ATOM
      1 C          10.2220   12.1760   16.3280 C.ar      1 M22561      0.0000 
      2 C1         11.0370   12.2340   15.2130 C.ar      1 M22561      0.0000 
      3 C2         10.5850   12.6410   13.9790 C.ar      1 M22561      0.0000 
      4 C3          9.2740   12.9930   13.8310 C.ar      1 M22561      0.0000 
      5 C4          8.4010   12.9310   14.9020 C.ar      1 M22561      0.0000 
      6 C5          8.8610   12.5280   16.1720 C.ar      1 M22561      0.0000 
      7 C6         10.5620   13.6430   18.9790 C.ar      1 M22561      0.0000 
      8 C7         10.5360   12.2800   18.7490 C.ar      1 M22561      0.0000 
      9 C8         10.2260   11.4130   19.8190 C.ar      1 M22561      0.0000 
     10 C9          9.9500   11.9270   21.1190 C.ar      1 M22561      0.0000 
     11 C10         9.9840   13.3180   21.3340 C.ar      1 M22561      0.0000 
     12 C11        10.2950   14.1400   20.2480 C.ar      1 M22561      0.0000 
     13 O          10.8210   11.7310   17.5110 O.3       1 M22561      0.0000 
     14 CL         10.3540   15.8300   20.4450 Cl        1 M22561      0.0000 
     15 O12         7.0990   13.3410   14.8110 O.3       1 M22561      0.0000 
     16 C13         5.9190   12.5830   14.6400 C.3       1 M22561      0.0000 
     17 C14         6.1320   11.1960   14.1930 C.2       1 M22561      0.0000 
     18 N           6.6050   10.9030   12.9660 N.2       1 M22561      0.0000 
     19 N15         6.6320    9.5570   12.9860 N.pl3     1 M22561      0.0000 
     20 C16         5.8620   10.0550   14.9800 C.ar      1 M22561      0.0000 
     21 C17         6.2010    9.0030   14.1670 C.ar      1 M22561      0.0000 
     22 C18         6.0810    7.7000   14.5970 C.ar      1 M22561      0.0000 
     23 C19         5.6070    7.4910   15.9080 C.ar      1 M22561      0.0000 
     24 C20         5.2490    8.5400   16.7550 C.ar      1 M22561      0.0000 
     25 C21         5.3750    9.8460   16.2880 C.ar      1 M22561      0.0000 
     26 CL2        12.6740   11.7940   15.3270 Cl        1 M22561      0.0000 
     27 C23         9.6540   11.0470   22.2260 C.1       1 M22561      0.0000 
     28 N24         9.4090   10.3340   23.1160 N.1       1 M22561      0.0000 
     29 H          11.2320   12.6782   13.1786 H         1 M22561      0.0000 
     30 H           8.9211   13.3117   12.9077 H         1 M22561      0.0000 
     31 H           8.2277   12.4903   16.9629 H         1 M22561      0.0000 
     32 H          10.7795   14.2933   18.2097 H         1 M22561      0.0000 
     33 H          10.1976   10.4000   19.6648 H         1 M22561      0.0000 
     34 H           9.7890   13.7043   22.2461 H         1 M22561      0.0000 
     35 H           5.2291   13.0861   13.9069 H         1 M22561      0.0000 
     36 H           5.3246   12.5567   15.5952 H         1 M22561      0.0000 
     37 H           6.9365    8.9971   12.2164 H         1 M22561      0.0000 
     38 H           6.3190    6.9155   14.0086 H         1 M22561      0.0000 
     39 H           5.5227    6.5101   16.2530 H         1 M22561      0.0000 
     40 H           4.9034    8.3539   17.6935 H         1 M22561      0.0000 
     41 H           5.1235   10.6387   16.8711 H         1 M22561      0.0000 
@<TRIPOS>BOND
     1    2    1 ar   
     2    6    1 ar   
     3   13    1 1    
     4    3    2 ar   
     5   26    2 1    
     6    4    3 ar   
     7   29    3 1    
     8    5    4 ar   
     9   30    4 1    
    10    6    5 ar   
    11   15    5 1    
    12   31    6 1    
    13    8    7 ar   
    14   12    7 ar   
    15   32    7 1    
    16    9    8 ar   
    17   13    8 1    
    18   10    9 ar   
    19   33    9 1    
    20   11   10 ar   
    21   27   10 1    
    22   12   11 ar   
    23   34   11 1    
    24   14   12 1    
    25   16   15 1    
    26   17   16 1    
    27   35   16 1    
    28   36   16 1    
    29   18   17 2    
    30   20   17 1    
    31   19   18 1    
    32   21   19 1    
    33   37   19 1    
    34   21   20 ar   
    35   25   20 ar   
    36   22   21 ar   
    37   23   22 ar   
    38   38   22 1    
    39   24   23 ar   
    40   39   23 1    
    41   25   24 ar   
    42   40   24 1    
    43   41   25 1    
    44   28   27 3    
@<TRIPOS>SUBSTRUCTURE
     1 M22561      1 GROUP   
@<TRIPOS>SET

