#    Name: 4i6g_FAD_1_INTS_M
#    Modification time : Tue Mar 25 02:30:47 2014

@<TRIPOS>MOLECULE
4i6g_FAD_1_INTS_M
   84     0     9     0     0
SMALL
NO_CHARGES


@<TRIPOS>ATOM
      1 CA         28.5335  -15.4250   17.9200 C.3       3 GLC5        0.0000 
      2 CA         29.7750  -15.5970   16.7320 C.3       9 GLL5        0.0000 
      3 CA         27.2920  -15.2530   19.1080 C.3       6 GLP5        0.0000 
      4 CA         28.0445  -14.7885   16.9285 C.3       3 GLC5        0.0000 
      5 CA         29.0690  -15.6970   15.4120 C.3       9 GLL5        0.0000 
      6 CA         27.0200  -13.8800   18.4450 C.3       6 GLP5        0.0000 
      7 CA         27.5615  -17.2220   15.7635 C.3       3 GLC5        0.0000 
      8 CA         26.0540  -18.7470   16.1150 C.3       6 GLP5        0.0000 
      9 CA         27.2995  -14.1440   16.3215 C.3       3 GLC5        0.0000 
     10 CA         27.5790  -14.4080   14.1980 C.3       9 GLL5        0.0000 
     11 CA         23.6335  -11.2545   14.0725 C.3       3 GLC5        0.0000 
     12 CA         24.7760  -11.4580   12.5990 C.3       9 GLL5        0.0000 
     13 CA         22.4910  -11.0510   15.5460 C.3       6 GLP5        0.0000 
     14 CA         23.5890  -12.8960   12.5055 C.3       3 GLC5        0.0000 
     15 CA         22.4020  -14.3340   12.4120 C.3       6 GLP5        0.0000 
     16 CA         25.0475  -11.3030   10.9085 C.3       3 GLC5        0.0000 
     17 CA         25.3190  -11.1480    9.2180 C.3       6 GLP5        0.0000 
     18 O          29.3255  -13.2000    6.4720 O.2       1 ALC1        0.0000 
     19 O          28.7510  -12.2660    7.2880 O.2       7 ALL1        0.0000 
     20 O          29.9000  -14.1340    5.6560 O.2       4 ALP1        0.0000 
     21 N          28.2715  -12.0855    4.6325 N.am      2 SEC2        0.0000 
     22 N          28.6500  -10.9590    5.5540 N.am      8 SEL2        0.0000 
     23 N          27.8930  -13.2120    3.7110 N.am      5 SEP2        0.0000 
     24 CA         28.4860   -2.0650    7.6540 C.3       3 GLC5        0.0000 
     25 CA         28.0890   -4.0010    7.8890 C.3       9 GLL5        0.0000 
     26 CA         28.8830   -0.1290    7.4190 C.3       6 GLP5        0.0000 
     27 CA         29.6470   -4.3590    6.9825 C.3       3 GLC5        0.0000 
     28 CA         31.2050   -4.7170    6.0760 C.3       6 GLP5        0.0000 
     29 CA         27.3575   -4.1920    6.1565 C.3       3 GLC5        0.0000 
     30 CA         26.6260   -4.3830    4.4240 C.3       6 GLP5        0.0000 
     31 CA         27.0975   -2.6765    8.4655 C.3       3 GLC5        0.0000 
     32 CA         26.1060   -1.3520    9.0420 C.3       6 GLP5        0.0000 
     33 CA         28.2130   -3.5915   12.4420 C.3       3 GLC5        0.0000 
     34 CA         28.0860   -4.4240   10.8090 C.3       9 GLL5        0.0000 
     35 CA         28.3400   -2.7590   14.0750 C.3       6 GLP5        0.0000 
     36 CA         27.0960   -2.8880    9.9255 C.3       3 GLC5        0.0000 
     37 CA         26.8485   -9.5385    9.3755 C.3       3 GLC5        0.0000 
     38 CA         28.3780   -7.9290    9.5330 C.3       9 GLL5        0.0000 
     39 CA         26.8765  -10.3335   10.3280 C.3       3 GLC5        0.0000 
     40 CA         28.4340   -9.5190   11.4380 C.3       9 GLL5        0.0000 
     41 CA         29.8445   -7.9690   13.7620 C.3       3 GLC5        0.0000 
     42 CA         29.6440   -9.4980   12.3210 C.3       9 GLL5        0.0000 
     43 CA         30.0450   -6.4400   15.2030 C.3       6 GLP5        0.0000 
     44 CA         30.8040   -8.2645   11.0255 C.3       3 GLC5        0.0000 
     45 CA         31.9640   -7.0310    9.7300 C.3       6 GLP5        0.0000 
     46 O          29.7460   -7.4665   13.1435 O.2       1 ALC1        0.0000 
     47 O          30.3400   -8.3050   12.1200 O.2       7 ALL1        0.0000 
     48 O          29.1520   -6.6280   14.1670 O.2       4 ALP1        0.0000 
     49 CA         31.4585   -8.8610   14.2090 C.3       3 GLC5        0.0000 
     50 CA         31.4460  -10.8330   13.2820 C.3       9 GLL5        0.0000 
     51 CA         31.4710   -6.8890   15.1360 C.3       6 GLP5        0.0000 
     52 CA         32.2125  -13.5230   12.1745 C.3       3 GLC5        0.0000 
     53 CA         32.3070  -12.0600   13.1960 C.3       9 GLL5        0.0000 
     54 CA         32.1180  -14.9860   11.1530 C.3       6 GLP5        0.0000 
     55 CA         34.4620  -11.6955   12.7900 C.3       3 GLC5        0.0000 
     56 CA         36.6170  -11.3310   12.3840 C.3       6 GLP5        0.0000 
     57 N          33.2180  -15.7055   13.3290 N.am      2 SEC2        0.0000 
     58 N          33.2540  -14.4350   14.3880 N.am      8 SEL2        0.0000 
     59 N          33.1820  -16.9760   12.2700 N.am      5 SEP2        0.0000 
     60 CA         29.5570  -17.4800   16.8720 C.3       3 GLC5        0.0000 
     61 CA         29.6920  -19.3130   17.6720 C.3       6 GLP5        0.0000 
     62 CA         30.7065  -14.9303   12.4810 C.3       3 GLC5        0.0000 
     63 CA         29.8290  -15.0730   14.2950 C.3       9 GLL5        0.0000 
     64 CA         29.1745  -17.0817   13.8711 C.3       3 GLC5        0.0000 
     65 CA         28.7610  -14.6760   13.3230 C.3       9 GLL5        0.0000 
     66 CA         29.2440  -19.1330   13.6540 C.3       6 GLP5        0.0000 
     67 CA         24.3877  -11.2040   14.8438 C.3       3 GLC5        0.0000 
     68 CA         26.5650  -10.9710   14.5780 C.3       9 GLL5        0.0000 
     69 CA         30.1490   -7.0495    8.7828 C.3       3 GLC5        0.0000 
     70 CA         28.3800   -7.7030    8.0840 C.3       9 GLL5        0.0000 
     71 CA         26.9335   -7.9565    6.4808 C.3       3 GLC5        0.0000 
     72 CA         25.5330   -8.8450    5.1260 C.3       6 GLP5        0.0000 
     73 CA         26.5960   -6.5875    8.3283 C.3       3 GLC5        0.0000 
     74 CA         24.8580   -6.1070    8.8210 C.3       6 GLP5        0.0000 
     75 CA         29.9727   -4.5948    9.1222 C.3       3 GLC5        0.0000 
     76 CA         28.1940   -5.3760    8.4380 C.3       9 GLL5        0.0000 
     77 CA         31.8040   -4.5010   10.0810 C.3       6 GLP5        0.0000 
     78 CA         26.4997   -5.3978    8.4923 C.3       3 GLC5        0.0000 
     79 CA         29.9715   -4.7543   10.2133 C.3       3 GLC5        0.0000 
     80 CA         28.1920   -5.5910    9.8820 C.3       9 GLL5        0.0000 
     81 CA         26.4985   -5.5572    9.5832 C.3       3 GLC5        0.0000 
     82 CA         30.1505   -7.2120    9.8438 C.3       3 GLC5        0.0000 
     83 CA         28.2960   -6.8570   10.3820 C.3       9 GLL5        0.0000 
     84 CA         26.5975   -6.7500    9.3893 C.3       3 GLC5        0.0000 
@<TRIPOS>BOND
@<TRIPOS>SUBSTRUCTURE
     1 ALC1       18 GROUP        1 X    ALC  0     ROOT ALC X 1
     2 SEC2       21 GROUP        1 X    SEC  0     **** SEC X 2
     3 GLC5        1 GROUP        1 X    GLC  0     **** GLC X 6
     4 ALP1       20 GROUP        1 Y    ALP  0     ROOT ALP Y 8
     5 SEP2       23 GROUP        1 Y    SEP  0     **** SEP Y 9
     6 GLP5        3 GROUP        1 Y    GLP  0     **** GLP Y 13
     7 ALL1       19 GROUP        1 Z    ALL  0     ROOT ALL Z 15
     8 SEL2       22 GROUP        1 Z    SEL  0     **** SEL Z 16
     9 GLL5        2 GROUP        1 Z    GLL  0     **** GLL Z 20
@<TRIPOS>SET

