#    Name: 4i6g_FAD_1_ligand
#    Modification time : Tue Mar 25 02:30:47 2014

@<TRIPOS>MOLECULE
4i6g_FAD_1_ligand
   84    89     1     0     0
SMALL
NO_CHARGES


@<TRIPOS>ATOM
      1 PA         31.4770  -13.8690   17.4390 P.3       1 FAD900      0.0000 
      2 O1A        31.5080  -12.7570   18.4030 O.co2     1 FAD900      0.0000 
      3 O2A        32.2560  -15.0950   17.6790 O.co2     1 FAD900      0.0000 
      4 O5B        30.0030  -14.2580   17.0790 O.3       1 FAD900      0.0000 
      5 C5B        29.7750  -15.5970   16.7320 C.3       1 FAD900      0.0000 
      6 C4B        29.0690  -15.6970   15.4120 C.3       1 FAD900      0.0000 
      7 O4B        27.8440  -15.0140   15.4480 O.3       1 FAD900      0.0000 
      8 C3B        29.8290  -15.0730   14.2950 C.3       1 FAD900      0.0000 
      9 O3B        30.6110  -16.0960   13.7700 O.3       1 FAD900      0.0000 
     10 C2B        28.7610  -14.6760   13.3230 C.3       1 FAD900      0.0000 
     11 O2B        28.4070  -15.7550   12.4870 O.3       1 FAD900      0.0000 
     12 C1B        27.5790  -14.4080   14.1980 C.3       1 FAD900      0.0000 
     13 N9A        27.3550  -12.9940   14.5070 N.pl3     1 FAD900      0.0000 
     14 C8A        27.9760  -12.2940   15.4440 C.2       1 FAD900      0.0000 
     15 N7A        27.5090  -11.0550   15.4900 N.2       1 FAD900      0.0000 
     16 C5A        26.5650  -10.9710   14.5780 C.ar      1 FAD900      0.0000 
     17 C6A        25.6650   -9.9430   14.1040 C.ar      1 FAD900      0.0000 
     18 N6A        25.6950   -8.7360   14.6560 N.pl3     1 FAD900      0.0000 
     19 N1A        24.8140  -10.2490   13.1340 N.ar      1 FAD900      0.0000 
     20 C2A        24.7760  -11.4580   12.5990 C.ar      1 FAD900      0.0000 
     21 N3A        25.5670  -12.4490   12.9780 N.ar      1 FAD900      0.0000 
     22 C4A        26.4540  -12.2570   13.9420 C.ar      1 FAD900      0.0000 
     23 N1         28.6530  -11.4830    9.4840 N.2       1 FAD900      0.0000 
     24 C2         28.7490  -12.4540    8.5880 C.2       1 FAD900      0.0000 
     25 O2         28.8360  -13.5910    8.9890 O.2       1 FAD900      0.0000 
     26 N3         28.7510  -12.2660    7.2880 N.am      1 FAD900      0.0000 
     27 C4         28.6500  -11.0870    6.7610 C.2       1 FAD900      0.0000 
     28 O4         28.6500  -10.9590    5.5540 O.2       1 FAD900      0.0000 
     29 C4X        28.5500   -9.9480    7.6700 C.2       1 FAD900      0.0000 
     30 N5         28.4600   -8.7100    7.2320 N.2       1 FAD900      0.0000 
     31 C5X        28.3800   -7.7030    8.0840 C.ar      1 FAD900      0.0000 
     32 C6         28.2880   -6.4330    7.5870 C.ar      1 FAD900      0.0000 
     33 C7         28.1940   -5.3760    8.4380 C.ar      1 FAD900      0.0000 
     34 C7M        28.0890   -4.0010    7.8890 C.3       1 FAD900      0.0000 
     35 C8         28.1920   -5.5910    9.8820 C.ar      1 FAD900      0.0000 
     36 C8M        28.0860   -4.4240   10.8090 C.3       1 FAD900      0.0000 
     37 C9         28.2960   -6.8570   10.3820 C.ar      1 FAD900      0.0000 
     38 C9A        28.3780   -7.9290    9.5330 C.ar      1 FAD900      0.0000 
     39 N10        28.4900   -9.2140   10.0230 N.pl3     1 FAD900      0.0000 
     40 C10        28.5580  -10.2320    9.1010 C.2       1 FAD900      0.0000 
     41 C1'        28.4340   -9.5190   11.4380 C.3       1 FAD900      0.0000 
     42 C2'        29.6440   -9.4980   12.3210 C.3       1 FAD900      0.0000 
     43 O2'        30.3400   -8.3050   12.1200 O.3       1 FAD900      0.0000 
     44 C3'        30.5090  -10.7130   12.1130 C.3       1 FAD900      0.0000 
     45 O3'        29.6830  -11.8560   12.1000 O.3       1 FAD900      0.0000 
     46 C4'        31.4460  -10.8330   13.2820 C.3       1 FAD900      0.0000 
     47 O4'        32.2630   -9.6820   13.2620 O.3       1 FAD900      0.0000 
     48 C5'        32.3070  -12.0600   13.1960 C.3       1 FAD900      0.0000 
     49 O5'        33.0670  -12.0230   14.3640 O.3       1 FAD900      0.0000 
     50 P          33.2510  -13.2760   15.2690 P.3       1 FAD900      0.0000 
     51 O1P        33.2540  -14.4350   14.3880 O.co2     1 FAD900      0.0000 
     52 O2P        34.3510  -13.0000   16.2070 O.co2     1 FAD900      0.0000 
     53 O3P        31.8520  -13.2730   16.0120 O.3       1 FAD900      0.0000 
     54 H          29.1566  -16.1184   17.4881 H         1 FAD900      0.0000 
     55 H          30.7201  -16.1689   16.6557 H         1 FAD900      0.0000 
     56 H          28.9092  -16.7426   15.1699 H         1 FAD900      0.0000 
     57 H          30.3451  -14.2471   14.6375 H         1 FAD900      0.0000 
     58 H          29.0271  -13.8045   12.8220 H         1 FAD900      0.0000 
     59 H          26.6989  -14.8380   13.7635 H         1 FAD900      0.0000 
     60 H          28.6911  -12.6476   16.0299 H         1 FAD900      0.0000 
     61 H          25.0255   -8.0779   14.3116 H         1 FAD900      0.0000 
     62 H          26.3844   -8.5940   15.3664 H         1 FAD900      0.0000 
     63 H          24.0657  -11.6458   11.8155 H         1 FAD900      0.0000 
     64 H          28.8395  -13.1214    6.6488 H         1 FAD900      0.0000 
     65 H          28.2901   -6.2786    6.5617 H         1 FAD900      0.0000 
     66 H          28.3132   -7.0101   11.4080 H         1 FAD900      0.0000 
     67 H          27.9335  -10.5506   11.5772 H         1 FAD900      0.0000 
     68 H          27.6430   -8.8394   11.9345 H         1 FAD900      0.0000 
     69 H          29.2696   -9.5413   13.3682 H         1 FAD900      0.0000 
     70 H          31.0681  -10.6021   11.2219 H         1 FAD900      0.0000 
     71 H          30.8614  -10.8698   14.1868 H         1 FAD900      0.0000 
     72 H          32.9100  -11.9908   12.3017 H         1 FAD900      0.0000 
     73 H          31.6619  -12.9255   13.1435 H         1 FAD900      0.0000 
     74 H          28.8846   -3.7616    7.3324 H         1 FAD900      0.0000 
     75 H          27.2820   -3.8936    7.3083 H         1 FAD900      0.0000 
     76 H          28.0216   -3.3157    8.6141 H         1 FAD900      0.0000 
     77 H          28.0967   -4.7089   11.7675 H         1 FAD900      0.0000 
     78 H          28.8426   -3.7818   10.6857 H         1 FAD900      0.0000 
     79 H          27.2397   -3.9111   10.6651 H         1 FAD900      0.0000 
     80 H          31.5532  -15.7730   13.8589 H         1 FAD900      0.0000 
     81 H          29.1627  -16.4048   12.5694 H         1 FAD900      0.0000 
     82 H          29.8160   -7.6130   12.6167 H         1 FAD900      0.0000 
     83 H          29.2097  -11.8231   11.2197 H         1 FAD900      0.0000 
     84 H          31.7400   -9.0024   12.7475 H         1 FAD900      0.0000 
@<TRIPOS>BOND
     1    2    1 ar   
     2    3    1 ar   
     3    4    1 1    
     4   53    1 1    
     5    5    4 1    
     6    6    5 1    
     7   54    5 1    
     8   55    5 1    
     9    7    6 1    
    10    8    6 1    
    11   56    6 1    
    12   12    7 1    
    13    9    8 1    
    14   10    8 1    
    15   57    8 1    
    16   80    9 1    
    17   11   10 1    
    18   12   10 1    
    19   58   10 1    
    20   81   11 1    
    21   13   12 1    
    22   59   12 1    
    23   14   13 1    
    24   22   13 1    
    25   15   14 2    
    26   60   14 1    
    27   16   15 1    
    28   17   16 ar   
    29   22   16 ar   
    30   18   17 1    
    31   19   17 ar   
    32   61   18 1    
    33   62   18 1    
    34   20   19 ar   
    35   21   20 ar   
    36   63   20 1    
    37   22   21 ar   
    38   24   23 1    
    39   40   23 2    
    40   25   24 2    
    41   26   24 am   
    42   27   26 am   
    43   64   26 1    
    44   28   27 2    
    45   29   27 1    
    46   30   29 2    
    47   40   29 1    
    48   31   30 1    
    49   32   31 ar   
    50   38   31 ar   
    51   33   32 ar   
    52   65   32 1    
    53   34   33 1    
    54   35   33 ar   
    55   74   34 1    
    56   75   34 1    
    57   76   34 1    
    58   36   35 1    
    59   37   35 ar   
    60   77   36 1    
    61   78   36 1    
    62   79   36 1    
    63   38   37 ar   
    64   66   37 1    
    65   39   38 1    
    66   40   39 1    
    67   41   39 1    
    68   42   41 1    
    69   67   41 1    
    70   68   41 1    
    71   43   42 1    
    72   44   42 1    
    73   69   42 1    
    74   82   43 1    
    75   45   44 1    
    76   46   44 1    
    77   70   44 1    
    78   83   45 1    
    79   47   46 1    
    80   48   46 1    
    81   71   46 1    
    82   84   47 1    
    83   49   48 1    
    84   72   48 1    
    85   73   48 1    
    86   50   49 1    
    87   51   50 ar   
    88   52   50 ar   
    89   53   50 1    
@<TRIPOS>SUBSTRUCTURE
     1 FAD900      1 GROUP   
@<TRIPOS>SET

