#    Name: 4gzm_GSP_1_INTS_M
#    Modification time : Mon Mar 24 23:59:45 2014

@<TRIPOS>MOLECULE
4gzm_GSP_1_INTS_M
   70     0    15     0     0
SMALL
NO_CHARGES


@<TRIPOS>ATOM
      1 CA         15.7435    9.0195   22.1180 C.3       5 GLC5        0.0000 
      2 CA         14.2270    8.6090   20.9930 C.3      15 GLL5        0.0000 
      3 CA         17.2600    9.4300   23.2430 C.3      10 GLP5        0.0000 
      4 CA         14.7780    7.0285   21.7090 C.3       5 GLC5        0.0000 
      5 CA         15.3290    5.4480   22.4250 C.3      10 GLP5        0.0000 
      6 N          13.0755   11.5455   20.9105 N.am      2 SEC2        0.0000 
      7 N          12.0170   10.4500   20.6360 N.am     12 SEL2        0.0000 
      8 N          14.1340   12.6410   21.1850 N.am      7 SEP2        0.0000 
      9 N          10.7855   11.0170   20.5345 N.am      2 SEC2        0.0000 
     10 N           9.5540   11.5840   20.4330 N.am      7 SEP2        0.0000 
     11 Zn         10.9900    7.9990   22.6215 Zn        4 ZIC7        0.0000 
     12 Zn         11.4420    8.1460   21.7720 Zn       14 ZIL7        0.0000 
     13 Zn         10.5380    7.8520   23.4710 Zn        9 ZIP7        0.0000 
     14 N          12.1955    6.5800   21.9505 N.am      2 SEC2        0.0000 
     15 N          11.4420    8.1460   21.7720 N.am     12 SEL2        0.0000 
     16 N          12.9490    5.0140   22.1290 N.am      7 SEP2        0.0000 
     17 NZ         10.3815   11.7635   21.6555 N.4       3 LYC4        0.0000 
     18 NZ         11.2090   11.9430   22.8780 N.4      13 LYL4        0.0000 
     19 NZ          9.5540   11.5840   20.4330 N.4       8 LYP4        0.0000 
     20 N          12.0250   13.2670   22.8965 N.am      2 SEC2        0.0000 
     21 N          11.2090   11.9430   22.8780 N.am     12 SEL2        0.0000 
     22 N          12.8410   14.5910   22.9150 N.am      7 SEP2        0.0000 
     23 N          11.2885   13.0810   24.0400 N.am      2 SEC2        0.0000 
     24 N          11.3680   14.2190   25.2020 N.am      7 SEP2        0.0000 
     25 N          10.1955   12.2035   24.1675 N.am      2 SEC2        0.0000 
     26 N           9.1820   12.4640   25.4570 N.am      7 SEP2        0.0000 
     27 N          10.3815   11.7635   21.6555 N.am      2 SEC2        0.0000 
     28 Zn         10.6045    8.8770   23.9455 Zn        4 ZIC7        0.0000 
     29 Zn         10.6710    9.9020   24.4200 Zn       14 ZIL7        0.0000 
     30 N           9.7240    9.8175   25.3500 N.am      2 SEC2        0.0000 
     31 N          10.6710    9.9020   24.4200 N.am     12 SEL2        0.0000 
     32 N           8.7770    9.7330   26.2800 N.am      7 SEP2        0.0000 
     33 N          10.5190    8.7440   24.9785 N.am      2 SEC2        0.0000 
     34 N          10.3670    7.5860   25.5370 N.am      7 SEP2        0.0000 
     35 N          10.6260   10.2605   28.0995 N.am      2 SEC2        0.0000 
     36 N          11.5640   10.6770   27.1660 N.am     12 SEL2        0.0000 
     37 N           9.6880    9.8440   29.0330 N.am      7 SEP2        0.0000 
     38 N          11.9390   12.8880   25.1045 N.am      2 SEC2        0.0000 
     39 N          12.5100   11.5570   25.0070 N.am     12 SEL2        0.0000 
     40 N          10.8460   12.0105   25.2320 N.am      2 SEC2        0.0000 
     41 CA         14.8790   12.7140   24.4500 C.3       5 GLC5        0.0000 
     42 CA         15.0220   12.3040   26.4560 C.3      15 GLL5        0.0000 
     43 CA         14.7360   13.1240   22.4440 C.3      10 GLP5        0.0000 
     44 CA         12.9530   13.0620   26.4910 C.3       5 GLC5        0.0000 
     45 CA         10.8840   13.8200   26.5260 C.3      10 GLP5        0.0000 
     46 CA         15.0185   15.9775   28.0300 C.3       5 GLC5        0.0000 
     47 CA         15.5880   14.2950   29.2800 C.3      15 GLL5        0.0000 
     48 CA         14.4490   17.6600   26.7800 C.3      10 GLP5        0.0000 
     49 CA         10.6950   15.1900   31.5790 C.3       5 GLC5        0.0000 
     50 CA         12.6320   15.9370   30.7640 C.3      15 GLL5        0.0000 
     51 CA          8.7580   14.4430   32.3940 C.3      10 GLP5        0.0000 
     52 N           9.7520   16.9780   32.4590 N.am      2 SEC2        0.0000 
     53 N          10.9320   17.1620   31.8710 N.am     12 SEL2        0.0000 
     54 N           8.5720   16.7940   33.0470 N.am      7 SEP2        0.0000 
     55 N          10.6295   16.5355   33.4180 N.am      2 SEC2        0.0000 
     56 N          10.3270   15.9090   34.9650 N.am      7 SEP2        0.0000 
     57 O          12.7770   19.1150   32.8730 O.2       1 ALC1        0.0000 
     58 O          13.0730   17.7110   32.3450 O.2      11 ALL1        0.0000 
     59 O          12.4810   20.5190   33.4010 O.2       6 ALP1        0.0000 
     60 O          14.7280   19.4320   33.8100 O.2       1 ALC1        0.0000 
     61 O          15.2580   18.3150   32.8630 O.2      11 ALL1        0.0000 
     62 O          14.1980   20.5490   34.7570 O.2       6 ALP1        0.0000 
     63 CA         14.2355   11.7052   29.7028 C.3       5 GLC5        0.0000 
     64 CA         16.2820   12.0580   28.6700 C.3      15 GLL5        0.0000 
     65 CA         12.4710   10.9430   30.1630 C.3      10 GLP5        0.0000 
     66 CA         16.4206   10.8381   26.7108 C.3       5 GLC5        0.0000 
     67 CA         16.9320    9.3450   25.6170 C.3      10 GLP5        0.0000 
     68 CA         13.1785   17.3930   29.5550 C.3       5 GLC5        0.0000 
     69 CA         14.0920   15.7850   30.6160 C.3      15 GLL5        0.0000 
     70 CA         12.9950   18.9250   28.4200 C.3      10 GLP5        0.0000 
@<TRIPOS>BOND
@<TRIPOS>SUBSTRUCTURE
     1 ALC1       57 GROUP        1 X    ALC  0     ROOT ALC X 1
     2 SEC2        6 GROUP        1 X    SEC  0     **** SEC X 2
     3 LYC4       17 GROUP        1 X    LYC  0     **** LYC X 4
     4 ZIC7       11 GROUP        1 X    ZIC  0     **** ZIC X 5
     5 GLC5        1 GROUP        1 X    GLC  0     **** GLC X 6
     6 ALP1       59 GROUP        1 Y    ALP  0     ROOT ALP Y 8
     7 SEP2        8 GROUP        1 Y    SEP  0     **** SEP Y 9
     8 LYP4       19 GROUP        1 Y    LYP  0     **** LYP Y 11
     9 ZIP7       13 GROUP        1 Y    ZIP  0     **** ZIP Y 12
    10 GLP5        3 GROUP        1 Y    GLP  0     **** GLP Y 13
    11 ALL1       58 GROUP        1 Z    ALL  0     ROOT ALL Z 15
    12 SEL2        7 GROUP        1 Z    SEL  0     **** SEL Z 16
    13 LYL4       18 GROUP        1 Z    LYL  0     **** LYL Z 18
    14 ZIL7       12 GROUP        1 Z    ZIL  0     **** ZIL Z 19
    15 GLL5        2 GROUP        1 Z    GLL  0     **** GLL Z 20
@<TRIPOS>SET

