#    Name: 4gzm_GSP_1_ligand
#    Modification time : Mon Mar 24 23:59:45 2014

@<TRIPOS>MOLECULE
4gzm_GSP_1_ligand
   45    47     1     0     0
SMALL
NO_CHARGES


@<TRIPOS>ATOM
      1 PG         12.5400    9.3200   21.6550 P.3       1 GSP1000     0.0000 
      2 O3B        12.8070    9.9810   23.0990 O.3       1 GSP1000     0.0000 
      3 S1G        14.2270    8.6090   20.9930 S.2       1 GSP1000     0.0000 
      4 O2G        12.0170   10.4500   20.6360 O.3       1 GSP1000     0.0000 
      5 O3G        11.4420    8.1460   21.7720 O.3       1 GSP1000     0.0000 
      6 PB         11.6720   10.8590   23.8240 P.3       1 GSP1000     0.0000 
      7 O1B        11.2090   11.9430   22.8780 O.co2     1 GSP1000     0.0000 
      8 O2B        10.6710    9.9020   24.4200 O.co2     1 GSP1000     0.0000 
      9 PA         12.8440   10.7690   26.3700 P.3       1 GSP1000     0.0000 
     10 O1A        13.5950    9.5070   26.0170 O.co2     1 GSP1000     0.0000 
     11 O2A        11.5640   10.6770   27.1660 O.co2     1 GSP1000     0.0000 
     12 O3A        12.5100   11.5570   25.0070 O.3       1 GSP1000     0.0000 
     13 O5'        13.8610   11.7800   27.1170 O.3       1 GSP1000     0.0000 
     14 C5'        15.0220   12.3040   26.4560 C.3       1 GSP1000     0.0000 
     15 C4'        16.0510   12.9050   27.4220 C.3       1 GSP1000     0.0000 
     16 O4'        15.6460   14.2140   27.8520 O.3       1 GSP1000     0.0000 
     17 C3'        16.2820   12.0580   28.6700 C.3       1 GSP1000     0.0000 
     18 O3'        17.6840   11.8290   28.8540 O.3       1 GSP1000     0.0000 
     19 C2'        15.7180   12.8770   29.8150 C.3       1 GSP1000     0.0000 
     20 O2'        16.5320   12.8280   30.9910 O.3       1 GSP1000     0.0000 
     21 C1'        15.5880   14.2950   29.2800 C.3       1 GSP1000     0.0000 
     22 N9         14.2730   14.8060   29.7330 N.pl3     1 GSP1000     0.0000 
     23 C8         13.0600   14.3560   29.3450 C.2       1 GSP1000     0.0000 
     24 N7         12.0570   15.0310   29.9590 N.2       1 GSP1000     0.0000 
     25 C5         12.6320   15.9370   30.7640 C.2       1 GSP1000     0.0000 
     26 C6         12.1530   16.9780   31.6980 C.2       1 GSP1000     0.0000 
     27 O6         10.9320   17.1620   31.8710 O.2       1 GSP1000     0.0000 
     28 N1         13.0730   17.7110   32.3450 N.am      1 GSP1000     0.0000 
     29 C2         14.4010   17.5300   32.1690 C.2       1 GSP1000     0.0000 
     30 N2         15.2580   18.3150   32.8630 N.pl3     1 GSP1000     0.0000 
     31 N3         14.9150   16.5930   31.3270 N.2       1 GSP1000     0.0000 
     32 C4         14.0920   15.7850   30.6160 C.2       1 GSP1000     0.0000 
     33 H          14.7480   13.0969   25.7296 H         1 GSP1000     0.0000 
     34 H          15.5398   11.5177   25.8685 H         1 GSP1000     0.0000 
     35 H          17.0081   12.9762   26.8938 H         1 GSP1000     0.0000 
     36 H          15.7207   11.1639   28.5774 H         1 GSP1000     0.0000 
     37 H          14.7093   12.5170   30.0058 H         1 GSP1000     0.0000 
     38 H          16.3742   14.8764   29.6850 H         1 GSP1000     0.0000 
     39 H          12.9186   13.6282   28.6968 H         1 GSP1000     0.0000 
     40 H          12.7498   18.4612   33.0204 H         1 GSP1000     0.0000 
     41 H          16.2312   18.1669   32.6870 H         1 GSP1000     0.0000 
     42 H          14.8420   18.9735   33.4902 H         1 GSP1000     0.0000 
     43 H          11.6777   11.1877   21.2197 H         1 GSP1000     0.0000 
     44 H          17.8877   12.1891   29.7644 H         1 GSP1000     0.0000 
     45 H          16.8917   13.7552   31.0955 H         1 GSP1000     0.0000 
@<TRIPOS>BOND
     1    2    1 1    
     2    3    1 2    
     3    4    1 1    
     4    5    1 1    
     5    6    2 1    
     6   43    4 1    
     7    7    6 ar   
     8    8    6 ar   
     9   12    6 1    
    10   10    9 ar   
    11   11    9 ar   
    12   12    9 1    
    13   13    9 1    
    14   14   13 1    
    15   15   14 1    
    16   33   14 1    
    17   34   14 1    
    18   16   15 1    
    19   17   15 1    
    20   35   15 1    
    21   21   16 1    
    22   18   17 1    
    23   19   17 1    
    24   36   17 1    
    25   44   18 1    
    26   20   19 1    
    27   21   19 1    
    28   37   19 1    
    29   45   20 1    
    30   22   21 1    
    31   38   21 1    
    32   23   22 1    
    33   32   22 1    
    34   24   23 2    
    35   39   23 1    
    36   25   24 1    
    37   26   25 1    
    38   32   25 2    
    39   27   26 2    
    40   28   26 am   
    41   29   28 1    
    42   40   28 1    
    43   30   29 1    
    44   31   29 2    
    45   41   30 1    
    46   42   30 1    
    47   32   31 1    
@<TRIPOS>SUBSTRUCTURE
     1 GSP1000     1 GROUP   
@<TRIPOS>SET

