#    Name: 4gqy_AMP_3_INTS_M
#    Modification time : Mon Mar 24 23:33:23 2014

@<TRIPOS>MOLECULE
4gqy_AMP_3_INTS_M
   67     0    12     0     0
SMALL
NO_CHARGES


@<TRIPOS>ATOM
      1 NZ          0.8625    8.4390   41.3440 N.4       3 LYC4        0.0000 
      2 NZ          0.6510    8.2160   39.8720 N.4      11 LYL4        0.0000 
      3 NZ          2.3050    8.2590   43.1060 N.4       7 LYP4        0.0000 
      4 N           0.8625    8.4390   41.3440 N.am      2 SEC2        0.0000 
      5 N           0.6510    8.2160   39.8720 N.am     10 SEL2        0.0000 
      6 N           1.0740    8.6620   42.8160 N.am      6 SEP2        0.0000 
      7 N           1.8180    7.8710   41.0490 N.am      2 SEC2        0.0000 
      8 N           2.9850    7.5260   42.2260 N.am      6 SEP2        0.0000 
      9 N          -1.8060    7.1080   38.0010 N.am      2 SEC2        0.0000 
     10 N          -1.0740    8.2060   38.0030 N.am     10 SEL2        0.0000 
     11 N          -2.5380    6.0100   37.9990 N.am      6 SEP2        0.0000 
     12 NZ         -2.9745    9.9800   39.9015 N.4       3 LYC4        0.0000 
     13 NZ         -1.4660    9.5540   40.1090 N.4      11 LYL4        0.0000 
     14 NZ         -5.3130    9.8450   40.5810 N.4       7 LYP4        0.0000 
     15 N          -2.9745    9.9800   39.9015 N.am      2 SEC2        0.0000 
     16 N          -1.4660    9.5540   40.1090 N.am     10 SEL2        0.0000 
     17 N          -4.4830   10.4060   39.6940 N.am      6 SEP2        0.0000 
     18 N          -1.0650   10.7360   40.7465 N.am      2 SEC2        0.0000 
     19 N          -0.6640   11.9180   41.3840 N.am      6 SEP2        0.0000 
     20 O           2.2075   14.6950   37.7310 O.2       1 ALC1        0.0000 
     21 O           2.4170   13.6080   36.9460 O.2       9 ALL1        0.0000 
     22 O           1.9980   15.7820   38.5160 O.2       5 ALP1        0.0000 
     23 N           0.2440   14.8120   35.7030 N.am      2 SEC2        0.0000 
     24 N          -0.2190   14.1940   36.7760 N.am     10 SEL2        0.0000 
     25 N           0.7070   15.4300   34.6300 N.am      6 SEP2        0.0000 
     26 O           0.8895   14.9880   37.6460 O.2       1 ALC1        0.0000 
     27 O          -0.2190   14.1940   36.7760 O.2       9 ALL1        0.0000 
     28 O          -0.1845   14.9260   37.8650 O.2       1 ALC1        0.0000 
     29 O          -0.1500   15.6580   38.9540 O.2       5 ALP1        0.0000 
     30 CA          0.4170   10.3435   34.5185 C.3       4 GLC5        0.0000 
     31 CA          0.2270   12.0790   35.6560 C.3      12 GLL5        0.0000 
     32 CA          0.6070    8.6080   33.3810 C.3       8 GLP5        0.0000 
     33 CA         -2.5215    8.6075   34.3920 C.3       4 GLC5        0.0000 
     34 CA         -2.7920   10.7210   34.0450 C.3      12 GLL5        0.0000 
     35 CA         -2.2510    6.4940   34.7390 C.3       8 GLP5        0.0000 
     36 CA         -4.4250   12.0000   32.0525 C.3       4 GLC5        0.0000 
     37 CA         -3.5250   10.5410   32.7740 C.3      12 GLL5        0.0000 
     38 CA         -5.3250   13.4590   31.3310 C.3       8 GLP5        0.0000 
     39 CA         -3.7885    9.7745   30.6795 C.3       4 GLC5        0.0000 
     40 CA         -4.0520    9.0080   28.5850 C.3       8 GLP5        0.0000 
     41 O          -5.2460    8.9370   33.8935 O.2       1 ALC1        0.0000 
     42 O          -4.7230    9.9040   32.7070 O.2       9 ALL1        0.0000 
     43 O          -5.7690    7.9700   35.0800 O.2       5 ALP1        0.0000 
     44 O          -5.5670    9.9460   31.5105 O.2       1 ALC1        0.0000 
     45 O          -6.4110    9.9880   30.3140 O.2       5 ALP1        0.0000 
     46 N          -3.6665   11.2025   30.4140 N.am      2 SEC2        0.0000 
     47 N          -2.9550   11.0340   31.6610 N.am     10 SEL2        0.0000 
     48 N          -4.3780   11.3710   29.1670 N.am      6 SEP2        0.0000 
     49 CA         -0.9020   13.4455   32.0130 C.3       4 GLC5        0.0000 
     50 CA         -1.7730   11.6790   31.6690 C.3      12 GLL5        0.0000 
     51 CA         -0.0310   15.2120   32.3570 C.3       8 GLP5        0.0000 
     52 CA         -3.1190   12.6535   30.8695 C.3       4 GLC5        0.0000 
     53 CA         -4.4650   13.6280   30.0700 C.3       8 GLP5        0.0000 
     54 CA         -2.1820   10.4090   29.9105 C.3       4 GLC5        0.0000 
     55 CA         -2.5910    9.1390   28.1520 C.3       8 GLP5        0.0000 
     56 CA         -0.7685   13.3245   33.1700 C.3       4 GLC5        0.0000 
     57 CA         -1.5060   11.4370   33.9830 C.3      12 GLL5        0.0000 
     58 CA         -0.2900   12.7568   38.9050 C.3       4 GLC5        0.0000 
     59 CA          1.5380   12.6570   37.5510 C.3      12 GLL5        0.0000 
     60 CA         -1.4170   12.7620   40.5450 C.3       8 GLP5        0.0000 
     61 CA          2.9888   12.0939   38.7666 C.3       4 GLC5        0.0000 
     62 CA          4.3330   12.5100   39.9710 C.3       8 GLP5        0.0000 
     63 CA         -0.0963   14.1032   35.0297 C.3       4 GLC5        0.0000 
     64 CA          0.1360   12.8460   36.9790 C.3      12 GLL5        0.0000 
     65 CA         -0.3740   15.7440   33.7420 C.3       8 GLP5        0.0000 
     66 CA         -3.1086   12.5070   34.3051 C.3       4 GLC5        0.0000 
     67 CA         -3.8850   13.9800   34.9140 C.3       8 GLP5        0.0000 
@<TRIPOS>BOND
@<TRIPOS>SUBSTRUCTURE
     1 ALC1       20 GROUP        1 X    ALC  0     ROOT ALC X 1
     2 SEC2        4 GROUP        1 X    SEC  0     **** SEC X 2
     3 LYC4        1 GROUP        1 X    LYC  0     **** LYC X 4
     4 GLC5       30 GROUP        1 X    GLC  0     **** GLC X 6
     5 ALP1       22 GROUP        1 Y    ALP  0     ROOT ALP Y 8
     6 SEP2        6 GROUP        1 Y    SEP  0     **** SEP Y 9
     7 LYP4        3 GROUP        1 Y    LYP  0     **** LYP Y 11
     8 GLP5       32 GROUP        1 Y    GLP  0     **** GLP Y 13
     9 ALL1       21 GROUP        1 Z    ALL  0     ROOT ALL Z 15
    10 SEL2        5 GROUP        1 Z    SEL  0     **** SEL Z 16
    11 LYL4        2 GROUP        1 Z    LYL  0     **** LYL Z 18
    12 GLL5       31 GROUP        1 Z    GLL  0     **** GLL Z 20
@<TRIPOS>SET

