#    Name: 4gqy_AMP_3_ligand
#    Modification time : Mon Mar 24 23:33:23 2014

@<TRIPOS>MOLECULE
4gqy_AMP_3_ligand
   35    37     1     0     0
SMALL
NO_CHARGES


@<TRIPOS>ATOM
      1 P          -0.4660    8.9450   39.1710 P.3       1 AMP301      0.0000 
      2 O1P         0.6510    8.2160   39.8720 O.co2     1 AMP301      0.0000 
      3 O2P        -1.0740    8.2060   38.0030 O.co2     1 AMP301      0.0000 
      4 O3P        -1.4660    9.5540   40.1090 O.co2     1 AMP301      0.0000 
      5 O5'         0.2290   10.2040   38.4780 O.3       1 AMP301      0.0000 
      6 C5'         1.5930   10.1470   38.0620 C.3       1 AMP301      0.0000 
      7 C4'         1.9090   11.2500   37.0850 C.3       1 AMP301      0.0000 
      8 O4'         1.1530   11.0190   35.8670 O.3       1 AMP301      0.0000 
      9 C3'         1.5380   12.6570   37.5510 C.3       1 AMP301      0.0000 
     10 O3'         2.4170   13.6080   36.9460 O.3       1 AMP301      0.0000 
     11 C2'         0.1360   12.8460   36.9790 C.3       1 AMP301      0.0000 
     12 O2'        -0.2190   14.1940   36.7760 O.3       1 AMP301      0.0000 
     13 C1'         0.2270   12.0790   35.6560 C.3       1 AMP301      0.0000 
     14 N9         -1.0400   11.4790   35.2330 N.pl3     1 AMP301      0.0000 
     15 C8         -1.9160   10.8580   36.0430 C.2       1 AMP301      0.0000 
     16 N7         -2.9780   10.3950   35.3380 N.2       1 AMP301      0.0000 
     17 C5         -2.7920   10.7210   34.0450 C.ar      1 AMP301      0.0000 
     18 C6         -3.5250   10.5410   32.7740 C.ar      1 AMP301      0.0000 
     19 N6         -4.7230    9.9040   32.7070 N.pl3     1 AMP301      0.0000 
     20 N1         -2.9550   11.0340   31.6610 N.ar      1 AMP301      0.0000 
     21 C2         -1.7730   11.6790   31.6690 C.ar      1 AMP301      0.0000 
     22 N3         -1.0560   11.8790   32.7830 N.ar      1 AMP301      0.0000 
     23 C4         -1.5060   11.4370   33.9830 C.ar      1 AMP301      0.0000 
     24 H           1.8244    9.1826   37.5770 H         1 AMP301      0.0000 
     25 H           2.2788   10.2435   38.9217 H         1 AMP301      0.0000 
     26 H           2.9646   11.2371   36.8498 H         1 AMP301      0.0000 
     27 H           1.5002   12.6857   38.5835 H         1 AMP301      0.0000 
     28 H          -0.5431   12.3004   37.6061 H         1 AMP301      0.0000 
     29 H           0.6004   12.7497   34.9036 H         1 AMP301      0.0000 
     30 H          -1.8073   10.7514   37.0114 H         1 AMP301      0.0000 
     31 H          -5.3348   10.1936   31.9709 H         1 AMP301      0.0000 
     32 H          -4.8873    9.2018   33.3997 H         1 AMP301      0.0000 
     33 H          -1.3924   12.0466   30.7444 H         1 AMP301      0.0000 
     34 H           2.2913   14.4484   37.4732 H         1 AMP301      0.0000 
     35 H           0.2616   14.6989   37.4930 H         1 AMP301      0.0000 
@<TRIPOS>BOND
     1    2    1 ar   
     2    3    1 ar   
     3    4    1 ar   
     4    5    1 1    
     5    6    5 1    
     6    7    6 1    
     7   24    6 1    
     8   25    6 1    
     9    8    7 1    
    10    9    7 1    
    11   26    7 1    
    12   13    8 1    
    13   10    9 1    
    14   11    9 1    
    15   27    9 1    
    16   34   10 1    
    17   12   11 1    
    18   13   11 1    
    19   28   11 1    
    20   35   12 1    
    21   14   13 1    
    22   29   13 1    
    23   15   14 1    
    24   23   14 1    
    25   16   15 2    
    26   30   15 1    
    27   17   16 1    
    28   18   17 ar   
    29   23   17 ar   
    30   19   18 1    
    31   20   18 ar   
    32   31   19 1    
    33   32   19 1    
    34   21   20 ar   
    35   22   21 ar   
    36   33   21 1    
    37   23   22 ar   
@<TRIPOS>SUBSTRUCTURE
     1 AMP301      1 GROUP   
@<TRIPOS>SET

