#    Name: 2voj_NAD_2_INTS_M
#    Modification time : Tue Mar 25 02:16:20 2014

@<TRIPOS>MOLECULE
2voj_NAD_2_INTS_M
  104     0     9     0     0
SMALL
NO_CHARGES


@<TRIPOS>ATOM
      1 N          53.1555  -27.0490   22.7175 N.am      2 SEC2        0.0000 
      2 N          52.4910  -26.4380   24.0550 N.am      8 SEL2        0.0000 
      3 N          53.8200  -27.6600   21.3800 N.am      5 SEP2        0.0000 
      4 CA         53.3450  -31.0435   27.4885 C.3       3 GLC5        0.0000 
      5 CA         52.2500  -29.6020   26.2600 C.3       9 GLL5        0.0000 
      6 CA         54.4400  -32.4850   28.7170 C.3       6 GLP5        0.0000 
      7 CA         52.9625  -28.7500   27.9890 C.3       3 GLC5        0.0000 
      8 CA         53.6750  -27.8980   29.7180 C.3       6 GLP5        0.0000 
      9 CA         52.1705  -32.5930   25.2880 C.3       3 GLC5        0.0000 
     10 CA         51.3370  -30.7550   25.9090 C.3       9 GLL5        0.0000 
     11 CA         53.0040  -34.4310   24.6670 C.3       6 GLP5        0.0000 
     12 N          48.8095  -29.5550   23.8540 N.am      2 SEC2        0.0000 
     13 N          49.3950  -30.6580   24.5180 N.am      8 SEL2        0.0000 
     14 N          48.2240  -28.4520   23.1900 N.am      5 SEP2        0.0000 
     15 O          49.3670  -32.0005   24.2725 O.2       1 ALC1        0.0000 
     16 O          49.3950  -30.6580   24.5180 O.2       7 ALL1        0.0000 
     17 O          49.3390  -33.3430   24.0270 O.2       4 ALP1        0.0000 
     18 O          47.7490  -32.8375   25.8620 O.2       1 ALC1        0.0000 
     19 O          47.8980  -31.6990   26.4850 O.2       7 ALL1        0.0000 
     20 O          47.6000  -33.9760   25.2390 O.2       4 ALP1        0.0000 
     21 O          48.6185  -32.5210   25.2560 O.2       1 ALC1        0.0000 
     22 CA         51.5855  -33.3965   25.8515 C.3       3 GLC5        0.0000 
     23 CA         50.1670  -32.3620   27.0360 C.3       9 GLL5        0.0000 
     24 CA         51.8025  -33.5900   27.9090 C.3       3 GLC5        0.0000 
     25 CA         53.4380  -34.8180   28.7820 C.3       6 GLP5        0.0000 
     26 CA         47.7315  -34.5075   29.7835 C.3       3 GLC5        0.0000 
     27 CA         49.6650  -34.7380   29.7790 C.3       9 GLL5        0.0000 
     28 CA         45.7980  -34.2770   29.7880 C.3       6 GLP5        0.0000 
     29 CA         51.3860  -33.9985   30.2410 C.3       3 GLC5        0.0000 
     30 CA         53.1070  -33.2590   30.7030 C.3       6 GLP5        0.0000 
     31 CA         47.7335  -36.5945   29.5865 C.3       3 GLC5        0.0000 
     32 CA         49.6010  -36.0680   30.2000 C.3       9 GLL5        0.0000 
     33 CA         45.8660  -37.1210   28.9730 C.3       6 GLP5        0.0000 
     34 CA         51.5195  -35.4430   29.4910 C.3       3 GLC5        0.0000 
     35 CA         51.3400  -36.8855   30.6875 C.3       3 GLC5        0.0000 
     36 CA         53.0790  -37.7030   31.1750 C.3       6 GLP5        0.0000 
     37 CA         51.9490  -37.4900   27.7040 C.3       3 GLC5        0.0000 
     38 CA         50.1030  -36.7780   27.9780 C.3       9 GLL5        0.0000 
     39 CA         53.7950  -38.2020   27.4300 C.3       6 GLP5        0.0000 
     40 CA         49.2930  -36.7580   26.2380 C.3       3 GLC5        0.0000 
     41 CA         48.4830  -36.7380   24.4980 C.3       6 GLP5        0.0000 
     42 CA         47.9845  -36.9495   28.4755 C.3       3 GLC5        0.0000 
     43 CA         49.2090  -38.3010   27.4065 C.3       3 GLC5        0.0000 
     44 CA         48.3150  -39.8240   26.8350 C.3       6 GLP5        0.0000 
     45 CA         51.7705  -35.7980   28.3800 C.3       3 GLC5        0.0000 
     46 CA         51.5910  -37.2405   29.5765 C.3       3 GLC5        0.0000 
     47 CA         47.8475  -34.5800   28.3885 C.3       3 GLC5        0.0000 
     48 CA         49.9430  -34.4530   28.4380 C.3       9 GLL5        0.0000 
     49 CA         45.7520  -34.7070   28.3390 C.3       6 GLP5        0.0000 
     50 CA         51.6905  -34.6355   28.6100 C.3       3 GLC5        0.0000 
     51 N          56.8890  -25.2765   24.8075 N.am      2 SEC2        0.0000 
     52 N          55.5550  -25.5560   25.0400 N.am      8 SEL2        0.0000 
     53 N          58.2230  -24.9970   24.5750 N.am      5 SEP2        0.0000 
     54 N          56.1315  -28.1745   23.0070 N.am      2 SEC2        0.0000 
     55 N          55.5530  -28.0420   24.2590 N.am      8 SEL2        0.0000 
     56 N          56.7100  -28.3070   21.7550 N.am      5 SEP2        0.0000 
     57 CA         57.5325  -29.0190   25.0615 C.3       3 GLC5        0.0000 
     58 CA         56.6060  -28.8180   26.8420 C.3       9 GLL5        0.0000 
     59 CA         58.4590  -29.2200   23.2810 C.3       6 GLP5        0.0000 
     60 CA         58.8345  -30.0590   29.3615 C.3       3 GLC5        0.0000 
     61 CA         57.6330  -28.8620   27.9730 C.3       9 GLL5        0.0000 
     62 CA         60.0360  -31.2560   30.7500 C.3       6 GLP5        0.0000 
     63 O          56.5940  -29.5960   30.1320 O.2       1 ALC1        0.0000 
     64 O          57.6330  -28.4710   30.3070 O.2       7 ALL1        0.0000 
     65 O          55.5550  -30.7210   29.9570 O.2       4 ALP1        0.0000 
     66 CA         57.4295  -25.0730   28.1750 C.3       3 GLC5        0.0000 
     67 CA         58.3530  -26.7440   28.8830 C.3       9 GLL5        0.0000 
     68 CA         56.5060  -23.4020   27.4670 C.3       6 GLP5        0.0000 
     69 O          59.8475  -26.6670   30.8670 O.2       1 ALC1        0.0000 
     70 O          58.7440  -26.1300   30.0870 O.2       7 ALL1        0.0000 
     71 O          60.9510  -27.2040   31.6470 O.2       4 ALP1        0.0000 
     72 O          60.3110  -25.7765   30.4250 O.2       1 ALC1        0.0000 
     73 O          61.8780  -25.4230   30.7630 O.2       4 ALP1        0.0000 
     74 CA         60.6215  -28.7415   27.3160 C.3       3 GLC5        0.0000 
     75 CA         59.5040  -27.5980   28.4020 C.3       9 GLL5        0.0000 
     76 CA         61.7390  -29.8850   26.2300 C.3       6 GLP5        0.0000 
     77 CA         59.7700  -29.4270   29.5760 C.3       3 GLC5        0.0000 
     78 N          66.8040  -26.4180   27.4670 N.am      2 SEC2        0.0000 
     79 N          65.3530  -26.5310   27.5620 N.am      8 SEL2        0.0000 
     80 N          68.2550  -26.3050   27.3720 N.am      5 SEP2        0.0000 
     81 O          63.1220  -25.5415   30.1745 O.2       1 ALC1        0.0000 
     82 O          64.3660  -25.6600   29.5860 O.2       7 ALL1        0.0000 
     83 CA         64.7580  -24.9540   26.0205 C.3       3 GLC5        0.0000 
     84 CA         62.6430  -25.3870   26.6050 C.3       9 GLL5        0.0000 
     85 CA         66.8730  -24.5210   25.4360 C.3       6 GLP5        0.0000 
     86 CA         61.0280  -27.9575   26.4690 C.3       3 GLC5        0.0000 
     87 CA         60.3170  -26.0300   26.7080 C.3       9 GLL5        0.0000 
     88 CA         52.0058  -29.7713   24.0772 C.3       3 GLC5        0.0000 
     89 CA         52.2180  -29.3640   22.0700 C.3       6 GLP5        0.0000 
     90 CA         57.2293  -30.8805   26.8532 C.3       3 GLC5        0.0000 
     91 CA         57.3390  -32.9210   26.2990 C.3       6 GLP5        0.0000 
     92 CA         55.4536  -28.1212   28.9829 C.3       3 GLC5        0.0000 
     93 CA         57.3450  -27.8490   29.0880 C.3       9 GLL5        0.0000 
     94 CA         62.0547  -28.2180   27.1155 C.3       3 GLC5        0.0000 
     95 CA         61.8500  -26.9160   28.2970 C.3       9 GLL5        0.0000 
     96 CA         62.1885  -23.4878   25.4723 C.3       3 GLC5        0.0000 
     97 CA         62.3820  -21.6260   24.5840 C.3       6 GLP5        0.0000 
     98 CA         59.8505  -24.1290   26.8370 C.3       3 GLC5        0.0000 
     99 CA         61.3470  -25.3120   26.1160 C.3       9 GLL5        0.0000 
    100 CA         58.8690  -22.5870   27.2620 C.3       6 GLP5        0.0000 
    101 CA         60.3745  -25.4330   24.6505 C.3       3 GLC5        0.0000 
    102 CA         59.9170  -25.1950   22.8890 C.3       6 GLP5        0.0000 
    103 CA         62.8125  -26.5196   25.1638 C.3       3 GLC5        0.0000 
    104 CA         63.5680  -27.4900   23.6920 C.3       6 GLP5        0.0000 
@<TRIPOS>BOND
@<TRIPOS>SUBSTRUCTURE
     1 ALC1       15 GROUP        1 X    ALC  0     ROOT ALC X 1
     2 SEC2        1 GROUP        1 X    SEC  0     **** SEC X 2
     3 GLC5        4 GROUP        1 X    GLC  0     **** GLC X 6
     4 ALP1       17 GROUP        1 Y    ALP  0     ROOT ALP Y 8
     5 SEP2        3 GROUP        1 Y    SEP  0     **** SEP Y 9
     6 GLP5        6 GROUP        1 Y    GLP  0     **** GLP Y 13
     7 ALL1       16 GROUP        1 Z    ALL  0     ROOT ALL Z 15
     8 SEL2        2 GROUP        1 Z    SEL  0     **** SEL Z 16
     9 GLL5        5 GROUP        1 Z    GLL  0     **** GLL Z 20
@<TRIPOS>SET

