#    Name: 2voj_NAD_2_ligand
#    Modification time : Tue Mar 25 02:16:20 2014

@<TRIPOS>MOLECULE
2voj_NAD_2_ligand
   70    74     1     0     0
SMALL
NO_CHARGES


@<TRIPOS>ATOM
      1 PA         52.5690  -27.1290   25.3700 P.3       1 NAD500      0.0000 
      2 O1A        51.6970  -26.5080   26.3970 O.co2     1 NAD500      0.0000 
      3 O2A        52.4910  -26.4380   24.0550 O.co2     1 NAD500      0.0000 
      4 O5B        52.2100  -28.6890   25.1960 O.3       1 NAD500      0.0000 
      5 C5B        52.2500  -29.6020   26.2600 C.3       1 NAD500      0.0000 
      6 C4B        51.3370  -30.7550   25.9090 C.3       1 NAD500      0.0000 
      7 O4B        51.4350  -31.7410   26.9230 O.3       1 NAD500      0.0000 
      8 C3B        49.8660  -30.3600   25.8120 C.3       1 NAD500      0.0000 
      9 O3B        49.3950  -30.6580   24.5180 O.3       1 NAD500      0.0000 
     10 C2B        49.1760  -31.2220   26.8500 C.3       1 NAD500      0.0000 
     11 O2B        47.8980  -31.6990   26.4850 O.3       1 NAD500      0.0000 
     12 C1B        50.1670  -32.3620   27.0360 C.3       1 NAD500      0.0000 
     13 N9A        49.9390  -33.0820   28.3030 N.pl3     1 NAD500      0.0000 
     14 C8A        49.6490  -32.5360   29.5440 C.2       1 NAD500      0.0000 
     15 N7A        49.4850  -33.5530   30.4260 N.2       1 NAD500      0.0000 
     16 C5A        49.6650  -34.7380   29.7790 C.ar      1 NAD500      0.0000 
     17 C6A        49.6010  -36.0680   30.2000 C.ar      1 NAD500      0.0000 
     18 N6A        49.3230  -36.3680   31.4610 N.pl3     1 NAD500      0.0000 
     19 N1A        49.8180  -37.0900   29.3010 N.ar      1 NAD500      0.0000 
     20 C2A        50.1030  -36.7780   27.9780 C.ar      1 NAD500      0.0000 
     21 N3A        50.1480  -35.4580   27.5490 N.ar      1 NAD500      0.0000 
     22 C4A        49.9430  -34.4530   28.4380 C.ar      1 NAD500      0.0000 
     23 O3         54.0150  -27.1820   26.0490 O.3       1 NAD500      0.0000 
     24 PN         55.4280  -27.0040   25.3250 P.3       1 NAD500      0.0000 
     25 O1N        55.5550  -25.5560   25.0400 O.co2     1 NAD500      0.0000 
     26 O2N        55.5530  -28.0420   24.2590 O.co2     1 NAD500      0.0000 
     27 O5D        56.3480  -27.4570   26.5520 O.3       1 NAD500      0.0000 
     28 C5D        56.6060  -28.8180   26.8420 C.3       1 NAD500      0.0000 
     29 C4D        57.6330  -28.8620   27.9730 C.3       1 NAD500      0.0000 
     30 O4D        58.9070  -28.4890   27.4900 O.3       1 NAD500      0.0000 
     31 C3D        57.3450  -27.8490   29.0880 C.3       1 NAD500      0.0000 
     32 O3D        57.6330  -28.4710   30.3070 O.3       1 NAD500      0.0000 
     33 C2D        58.3530  -26.7440   28.8830 C.3       1 NAD500      0.0000 
     34 O2D        58.7440  -26.1300   30.0870 O.3       1 NAD500      0.0000 
     35 C1D        59.5040  -27.5980   28.4020 C.3       1 NAD500      0.0000 
     36 N1N        60.5820  -26.8280   27.7890 N.pl3     1 NAD500      0.0000 
     37 C2N        61.8500  -26.9160   28.2970 C.ar      1 NAD500      0.0000 
     38 C3N        62.8910  -26.1860   27.7050 C.ar      1 NAD500      0.0000 
     39 C7N        64.2470  -26.1190   28.3330 C.2       1 NAD500      0.0000 
     40 O7N        65.3530  -26.5310   27.5620 O.2       1 NAD500      0.0000 
     41 N7N        64.3660  -25.6600   29.5860 N.am      1 NAD500      0.0000 
     42 C4N        62.6430  -25.3870   26.6050 C.ar      1 NAD500      0.0000 
     43 C5N        61.3470  -25.3120   26.1160 C.ar      1 NAD500      0.0000 
     44 C6N        60.3170  -26.0300   26.7080 C.ar      1 NAD500      0.0000 
     45 H          51.8954  -29.1653   27.1965 H         1 NAD500      0.0000 
     46 H          53.2520  -30.0047   26.4252 H         1 NAD500      0.0000 
     47 H          51.6384  -31.1667   24.9557 H         1 NAD500      0.0000 
     48 H          49.7748  -29.3469   26.0857 H         1 NAD500      0.0000 
     49 H          49.1774  -30.6660   27.7817 H         1 NAD500      0.0000 
     50 H          50.0081  -33.0370   26.1880 H         1 NAD500      0.0000 
     51 H          49.5803  -31.6007   29.7282 H         1 NAD500      0.0000 
     52 H          49.1357  -35.5944   32.0663 H         1 NAD500      0.0000 
     53 H          49.3257  -37.3408   31.6928 H         1 NAD500      0.0000 
     54 H          50.2846  -37.5409   27.3016 H         1 NAD500      0.0000 
     55 H          57.0273  -29.3500   25.9904 H         1 NAD500      0.0000 
     56 H          55.7156  -29.3448   27.1817 H         1 NAD500      0.0000 
     57 H          57.6549  -29.8379   28.4078 H         1 NAD500      0.0000 
     58 H          56.3837  -27.4871   28.9899 H         1 NAD500      0.0000 
     59 H          58.0535  -26.1285   28.1157 H         1 NAD500      0.0000 
     60 H          59.8706  -28.1495   29.2666 H         1 NAD500      0.0000 
     61 H          62.0544  -27.5118   29.1105 H         1 NAD500      0.0000 
     62 H          65.2973  -25.5963   29.9447 H         1 NAD500      0.0000 
     63 H          63.5129  -25.4222   30.0504 H         1 NAD500      0.0000 
     64 H          63.3966  -24.8617   26.1596 H         1 NAD500      0.0000 
     65 H          61.1443  -24.7111   25.2965 H         1 NAD500      0.0000 
     66 H          59.3619  -25.9573   26.3302 H         1 NAD500      0.0000 
     67 H          49.4370  -31.6548   24.4506 H         1 NAD500      0.0000 
     68 H          48.0713  -32.5505   25.9901 H         1 NAD500      0.0000 
     69 H          57.0194  -29.2596   30.3464 H         1 NAD500      0.0000 
     70 H          59.5752  -26.6115   30.3649 H         1 NAD500      0.0000 
@<TRIPOS>BOND
     1    2    1 ar   
     2    3    1 ar   
     3    4    1 1    
     4   23    1 1    
     5    5    4 1    
     6    6    5 1    
     7   45    5 1    
     8   46    5 1    
     9    7    6 1    
    10    8    6 1    
    11   47    6 1    
    12   12    7 1    
    13    9    8 1    
    14   10    8 1    
    15   48    8 1    
    16   67    9 1    
    17   11   10 1    
    18   12   10 1    
    19   49   10 1    
    20   68   11 1    
    21   13   12 1    
    22   50   12 1    
    23   14   13 1    
    24   22   13 1    
    25   15   14 2    
    26   51   14 1    
    27   16   15 1    
    28   17   16 ar   
    29   22   16 ar   
    30   18   17 1    
    31   19   17 ar   
    32   52   18 1    
    33   53   18 1    
    34   20   19 ar   
    35   21   20 ar   
    36   54   20 1    
    37   22   21 ar   
    38   24   23 1    
    39   25   24 ar   
    40   26   24 ar   
    41   27   24 1    
    42   28   27 1    
    43   29   28 1    
    44   55   28 1    
    45   56   28 1    
    46   30   29 1    
    47   31   29 1    
    48   57   29 1    
    49   35   30 1    
    50   32   31 1    
    51   33   31 1    
    52   58   31 1    
    53   69   32 1    
    54   34   33 1    
    55   35   33 1    
    56   59   33 1    
    57   70   34 1    
    58   36   35 1    
    59   60   35 1    
    60   37   36 ar   
    61   44   36 ar   
    62   38   37 ar   
    63   61   37 1    
    64   39   38 1    
    65   42   38 ar   
    66   40   39 2    
    67   41   39 am   
    68   62   41 1    
    69   63   41 1    
    70   43   42 ar   
    71   64   42 1    
    72   44   43 ar   
    73   65   43 1    
    74   66   44 1    
@<TRIPOS>SUBSTRUCTURE
     1 NAD500      1 GROUP   
@<TRIPOS>SET

