#    Name: 2DSA_4_CAVITY_N1_ALL.mol2
#    Modification time : Tue Mar 11 09:09:36 2014

@<TRIPOS>MOLECULE
2DSA_4_CAVITY_N1_ALL.mol2
   71     0     5     0     0
SMALL
NO_CHARGES


@<TRIPOS>ATOM
      1 OG         17.4177   59.3561   26.2980 O.2       1 SER1        0.0000 
      2 OG         18.8353   61.9094   22.5602 O.2       1 SER1        0.0000 
      3 OG         17.9913   61.0685   23.4716 O.2       1 SER1        0.0000 
      4 OG         17.1474   60.2275   24.3829 O.2       1 SER1        0.0000 
      5 DU         16.3034   59.3866   25.2943 H         5 CUB7        0.0000 
      6 CZ         17.7210   61.9399   21.5565 C.ar      3 PHE5        0.0000 
      7 CZ         16.8771   61.0989   22.4678 C.ar      3 PHE5        0.0000 
      8 DU         16.0331   60.2580   23.3792 H         5 CUB7        0.0000 
      9 DU         15.1892   59.4170   24.2905 H         5 CUB7        0.0000 
     10 CA         14.3452   58.5761   25.2019 C.3       4 GLY6        0.0000 
     11 CZ         16.6067   61.9703   20.5527 C.ar      3 PHE5        0.0000 
     12 CZ         15.7628   61.1294   21.4641 C.ar      3 PHE5        0.0000 
     13 DU         14.9189   60.2884   22.3754 H         5 CUB7        0.0000 
     14 DU         14.0749   59.4475   23.2868 H         5 CUB7        0.0000 
     15 DU         13.2310   58.6065   24.1981 H         5 CUB7        0.0000 
     16 CA         12.3870   57.7656   25.1095 C.3       4 GLY6        0.0000 
     17 CZ         15.4925   62.0008   19.5490 C.ar      3 PHE5        0.0000 
     18 CA         14.6485   61.1598   20.4603 C.3       4 GLY6        0.0000 
     19 CA         13.8046   60.3189   21.3717 C.3       4 GLY6        0.0000 
     20 CA         12.9607   59.4779   22.2830 C.3       4 GLY6        0.0000 
     21 CA         12.1167   58.6370   23.1944 C.3       4 GLY6        0.0000 
     22 CA         11.2728   57.7960   24.1057 C.3       4 GLY6        0.0000 
     23 N          17.4213   59.8572   21.8260 N.2       2 ALA2        0.0000 
     24 N          16.5773   59.0163   22.7374 N.2       2 ALA2        0.0000 
     25 N          15.7334   58.1753   23.6487 N.2       2 ALA2        0.0000 
     26 CZ         16.3070   59.8877   20.8223 C.ar      3 PHE5        0.0000 
     27 CA         15.4631   59.0467   21.7336 C.3       4 GLY6        0.0000 
     28 CA         14.6191   58.2058   22.6450 C.3       4 GLY6        0.0000 
     29 N          13.7752   57.3648   23.5563 N.2       2 ALA2        0.0000 
     30 O          14.3488   59.0772   20.7299 O.2       2 ALA2        0.0000 
     31 CA         13.5049   58.2362   21.6412 C.3       4 GLY6        0.0000 
     32 CA         12.6609   57.3952   22.5526 C.3       4 GLY6        0.0000 
     33 OG         17.7174   61.4388   26.0285 O.2       1 SER1        0.0000 
     34 CZ         18.2910   63.1512   23.2021 C.ar      3 PHE5        0.0000 
     35 OG         17.4471   62.3102   24.1134 O.2       1 SER1        0.0000 
     36 OG         16.6031   61.4693   25.0248 O.2       1 SER1        0.0000 
     37 DU         15.7592   60.6283   25.9361 H         5 CUB7        0.0000 
     38 CZ         17.1768   63.1816   22.1983 C.ar      3 PHE5        0.0000 
     39 CZ         16.3328   62.3407   23.1097 C.ar      3 PHE5        0.0000 
     40 DU         13.8010   59.8178   25.8437 H         5 CUB7        0.0000 
     41 CZ         16.0625   63.2121   21.1946 C.ar      3 PHE5        0.0000 
     42 DU         15.2186   62.3711   22.1059 H         5 CUB7        0.0000 
     43 DU         14.3746   61.5301   23.0173 H         5 CUB7        0.0000 
     44 DU         13.5307   60.6892   23.9286 H         5 CUB7        0.0000 
     45 CA         12.6867   59.8482   24.8400 C.3       4 GLY6        0.0000 
     46 CA         11.8428   59.0073   25.7513 C.3       4 GLY6        0.0000 
     47 CZ         15.7922   64.0835   19.2795 C.ar      3 PHE5        0.0000 
     48 DU         14.9482   63.2425   20.1908 H         5 CUB7        0.0000 
     49 CA         14.1043   62.4015   21.1022 C.3       4 GLY6        0.0000 
     50 CA         13.2604   61.5606   22.0135 C.3       4 GLY6        0.0000 
     51 CA         12.4164   60.7196   22.9249 C.3       4 GLY6        0.0000 
     52 CA         11.5725   59.8787   23.8362 C.3       4 GLY6        0.0000 
     53 N          14.6779   64.1139   18.2757 N.2       2 ALA2        0.0000 
     54 N          13.8340   63.2729   19.1871 N.2       2 ALA2        0.0000 
     55 CA         12.9901   62.4320   20.0984 C.3       4 GLY6        0.0000 
     56 CA         11.3022   60.7501   21.9211 C.3       4 GLY6        0.0000 
     57 O          12.7197   63.3034   18.1833 O.2       2 ALA2        0.0000 
     58 N          18.0171   63.5215   25.7590 N.2       2 ALA2        0.0000 
     59 CA         16.9028   63.5519   24.7552 C.3       4 GLY6        0.0000 
     60 DU         16.0589   62.7110   25.6666 H         5 CUB7        0.0000 
     61 CZ         15.7886   63.5824   23.7515 C.ar      3 PHE5        0.0000 
     62 CZ         15.5183   64.4538   21.8364 C.ar      3 PHE5        0.0000 
     63 DU         14.6743   63.6128   22.7477 H         5 CUB7        0.0000 
     64 CZ         15.2480   65.3252   19.9213 C.ar      3 PHE5        0.0000 
     65 DU         14.4040   64.4842   20.8326 H         5 CUB7        0.0000 
     66 DU         13.5601   63.6433   21.7440 H         5 CUB7        0.0000 
     67 CZ         14.9776   66.1966   18.0062 C.ar      3 PHE5        0.0000 
     68 CZ         14.1337   65.3556   18.9175 C.ar      3 PHE5        0.0000 
     69 DU         13.2898   64.5147   19.8289 H         5 CUB7        0.0000 
     70 DU         13.0194   65.3861   17.9138 H         5 CUB7        0.0000 
     71 N          12.1755   64.5451   18.8251 N.2       2 ALA2        0.0000 
@<TRIPOS>BOND
@<TRIPOS>SUBSTRUCTURE
     1 SER1        1 GROUP   
     2 ALA2       23 GROUP   
     3 PHE5        6 GROUP   
     4 GLY6       10 GROUP   
     5 CUB7        5 GROUP   
@<TRIPOS>SET

