#    Name: 2dsa_HPX_4_INTS_M
#    Modification time : Mon Apr  7 17:26:00 2014

@<TRIPOS>MOLECULE
2dsa_HPX_4_INTS_M
   30     0     6     0     0
SMALL
NO_CHARGES


@<TRIPOS>ATOM
      1 CA         16.3155   67.2360   16.4130 C.3       2 GLC5        0.0000 
      2 CA         14.9850   65.4550   16.3740 C.3       6 GLL5        0.0000 
      3 CA         17.6460   69.0170   16.4520 C.3       4 GLP5        0.0000 
      4 CA         13.4415   62.0960   18.1080 C.3       2 GLC5        0.0000 
      5 CA         13.7550   64.2740   18.0890 C.3       6 GLL5        0.0000 
      6 CA         13.1280   59.9180   18.1270 C.3       4 GLP5        0.0000 
      7 CA         16.7310   64.3435   19.7930 C.3       2 GLC5        0.0000 
      8 CA         14.9820   63.2210   20.0990 C.3       6 GLL5        0.0000 
      9 CA         18.4800   65.4660   19.4870 C.3       4 GLP5        0.0000 
     10 CA         16.4140   62.2005   18.8075 C.3       2 GLC5        0.0000 
     11 CA         17.8460   61.1800   17.5160 C.3       4 GLP5        0.0000 
     12 CA         16.3160   61.2100   19.7180 C.3       2 GLC5        0.0000 
     13 CA         14.9880   62.3500   21.1020 C.3       6 GLL5        0.0000 
     14 CA         17.6440   60.0700   18.3340 C.3       4 GLP5        0.0000 
     15 CA         17.5880   63.4110   21.2190 C.3       2 GLC5        0.0000 
     16 CA         16.2290   62.0730   21.8510 C.3       6 GLL5        0.0000 
     17 CA         18.9470   64.7490   20.5870 C.3       4 GLP5        0.0000 
     18 CA         17.4395   60.9070   20.5320 C.3       2 GLC5        0.0000 
     19 CA         18.6500   59.7410   19.2130 C.3       4 GLP5        0.0000 
     20 N          18.7700   61.3180   25.1790 N.am      1 SEC2        0.0000 
     21 N          17.1970   61.5730   25.1940 N.am      5 SEL2        0.0000 
     22 N          20.3430   61.0630   25.1640 N.am      3 SEP2        0.0000 
     23 N          19.3600   61.0940   24.2830 N.am      1 SEC2        0.0000 
     24 N          18.3770   61.1250   23.4020 N.am      5 SEL2        0.0000 
     25 CA         12.5940   63.6695   15.5055 C.3       2 GLC5        0.0000 
     26 CA         13.7910   65.7330   15.7140 C.3       6 GLL5        0.0000 
     27 CA         12.0030   61.8290   15.0340 C.3       4 GLP5        0.0000 
     28 CA         12.5805   63.1225   16.3957 C.3       2 GLC5        0.0000 
     29 CA         12.5610   64.5580   17.4260 C.3       6 GLL5        0.0000 
     30 CA         14.0565   61.3517   19.3637 C.3       2 GLC5        0.0000 
@<TRIPOS>BOND
@<TRIPOS>SUBSTRUCTURE
     1 SEC2       20 GROUP        1 X    SEC  0     ROOT SEC X 2
     2 GLC5        1 GROUP        1 X    GLC  0     **** GLC X 6
     3 SEP2       22 GROUP        1 Y    SEP  0     ROOT SEP Y 9
     4 GLP5        3 GROUP        1 Y    GLP  0     **** GLP Y 13
     5 SEL2       21 GROUP        1 Z    SEL  0     ROOT SEL Z 16
     6 GLL5        2 GROUP        1 Z    GLL  0     **** GLL Z 20
@<TRIPOS>SET

