#    Name: 2dsa_HPX_4_ligand
#    Modification time : Mon Apr  7 17:26:00 2014

@<TRIPOS>MOLECULE
2dsa_HPX_4_ligand
   25    25     1     0     0
SMALL
NO_CHARGES


@<TRIPOS>ATOM
      1 CB3        12.5790   65.2870   16.2400 C.ar      1 HPX4225     0.0000 
      2 CB4        13.7910   65.7330   15.7140 C.ar      1 HPX4225     0.0000 
      3 CB5        14.9850   65.4550   16.3740 C.ar      1 HPX4225     0.0000 
      4 CB6        14.9650   64.7250   17.5600 C.ar      1 HPX4225     0.0000 
      5 CB1        13.7550   64.2740   18.0890 C.ar      1 HPX4225     0.0000 
      6 CB2        12.5610   64.5580   17.4260 C.ar      1 HPX4225     0.0000 
      7 CA6        13.7280   63.4880   19.3700 C.2       1 HPX4225     0.0000 
      8 OA4        12.6660   63.0700   19.8140 O.2       1 HPX4225     0.0000 
      9 CA5        14.9820   63.2210   20.0990 C.2       1 HPX4225     0.0000 
     10 CA4        14.9880   62.3500   21.1020 C.2       1 HPX4225     0.0000 
     11 CA3        16.2290   62.0730   21.8510 C.2       1 HPX4225     0.0000 
     12 CA2        16.1300   61.7620   23.1440 C.2       1 HPX4225     0.0000 
     13 OA3        14.9320   61.7140   23.7200 O.3       1 HPX4225     0.0000 
     14 CA1        17.3070   61.4720   23.9540 C.2       1 HPX4225     0.0000 
     15 OA2        17.1970   61.5730   25.1940 O.co2     1 HPX4225     0.0000 
     16 OA1        18.3770   61.1250   23.4020 O.co2     1 HPX4225     0.0000 
     17 H          11.6998   65.4969   15.7516 H         1 HPX4225     0.0000 
     18 H          13.8019   66.2687   14.8360 H         1 HPX4225     0.0000 
     19 H          15.8759   65.7864   15.9885 H         1 HPX4225     0.0000 
     20 H          15.8461   64.5166   18.0494 H         1 HPX4225     0.0000 
     21 H          11.6685   64.2285   17.8141 H         1 HPX4225     0.0000 
     22 H          15.8087   63.7378   19.7834 H         1 HPX4225     0.0000 
     23 H          14.1523   61.8299   21.4096 H         1 HPX4225     0.0000 
     24 H          17.1003   62.1345   21.3372 H         1 HPX4225     0.0000 
     25 H          15.1055   61.8755   24.6916 H         1 HPX4225     0.0000 
@<TRIPOS>BOND
     1    2    1 ar   
     2    6    1 ar   
     3   17    1 1    
     4    3    2 ar   
     5   18    2 1    
     6    4    3 ar   
     7   19    3 1    
     8    5    4 ar   
     9   20    4 1    
    10    6    5 ar   
    11    7    5 1    
    12   21    6 1    
    13    8    7 2    
    14    9    7 1    
    15   10    9 2    
    16   22    9 1    
    17   11   10 1    
    18   23   10 1    
    19   12   11 2    
    20   24   11 1    
    21   13   12 1    
    22   14   12 1    
    23   25   13 1    
    24   15   14 ar   
    25   16   14 ar   
@<TRIPOS>SUBSTRUCTURE
     1 HPX4225     1 GROUP   
@<TRIPOS>SET

