#    Name: 1gih_1PU_1_INTS_M
#    Modification time : Tue Mar 25 03:13:39 2014

@<TRIPOS>MOLECULE
1gih_1PU_1_INTS_M
   48     0     9     0     0
SMALL
NO_CHARGES


@<TRIPOS>ATOM
      1 CA          6.1795   11.3525   24.8550 C.3       3 GLC5        0.0000 
      2 CA          7.3410   11.4050   26.5700 C.3       9 GLL5        0.0000 
      3 CA          5.0180   11.3000   23.1400 C.3       6 GLP5        0.0000 
      4 CA          8.2635   10.7360   30.0445 C.3       3 GLC5        0.0000 
      5 CA          8.2510   12.2190   28.6970 C.3       9 GLL5        0.0000 
      6 CA          8.2760    9.2530   31.3920 C.3       6 GLP5        0.0000 
      7 CA          7.6020   13.9090   26.1295 C.3       3 GLC5        0.0000 
      8 CA          8.5300   12.1660   27.1880 C.3       9 GLL5        0.0000 
      9 CA          6.6740   15.6520   25.0710 C.3       6 GLP5        0.0000 
     10 O           4.7555    6.7970   22.9880 O.2       1 ALC1        0.0000 
     11 O           5.3410    7.4040   23.9370 O.2       7 ALL1        0.0000 
     12 O           4.1700    6.1900   22.0390 O.2       4 ALP1        0.0000 
     13 N           2.5795    6.7835   24.0435 N.am      2 SEC2        0.0000 
     14 N           3.3590    7.5220   24.9750 N.am      8 SEL2        0.0000 
     15 N           1.8000    6.0450   23.1120 N.am      5 SEP2        0.0000 
     16 CA          7.0385    6.6170   25.1855 C.3       3 GLC5        0.0000 
     17 CA          6.6640    7.7380   23.5400 C.3       9 GLL5        0.0000 
     18 CA          7.4130    5.4960   26.8310 C.3       6 GLP5        0.0000 
     19 CA          5.8410    9.5190   23.3400 C.3       3 GLC5        0.0000 
     20 CA          6.0480    6.1885   21.0425 C.3       3 GLC5        0.0000 
     21 CA          7.4070    7.0030   22.6160 C.3       9 GLL5        0.0000 
     22 CA          4.6890    5.3740   19.4690 C.3       6 GLP5        0.0000 
     23 CA          6.7165   10.2795   23.4950 C.3       3 GLC5        0.0000 
     24 CA          8.4150    9.2590   23.8500 C.3       9 GLL5        0.0000 
     25 CA          6.5177    8.8202   29.1330 C.3       3 GLC5        0.0000 
     26 CA          6.9530   10.3870   27.6530 C.3       9 GLL5        0.0000 
     27 CA          6.8140    7.4390   30.5300 C.3       6 GLP5        0.0000 
     28 CA          3.9663   10.2225   25.8805 C.3       3 GLC5        0.0000 
     29 CA          5.4900   10.0160   27.8190 C.3       9 GLL5        0.0000 
     30 CA          2.8810   10.8210   24.3340 C.3       6 GLP5        0.0000 
     31 CA          5.5917    8.9912   29.8873 C.3       3 GLC5        0.0000 
     32 CA          5.0340   10.6230   29.0290 C.3       9 GLL5        0.0000 
     33 CA          1.1840   10.0377   27.6917 C.3       3 GLC5        0.0000 
     34 CA          2.8470    9.6980   28.6820 C.3       9 GLL5        0.0000 
     35 CA         -0.6990   10.6800   27.2960 C.3       6 GLP5        0.0000 
     36 CA          1.7552    8.7740   29.3330 C.3       3 GLC5        0.0000 
     37 CA          0.2290    7.9610   30.3840 C.3       6 GLP5        0.0000 
     38 CA          2.9740   10.1082   26.2107 C.3       3 GLC5        0.0000 
     39 CA          3.4688    7.5536   28.4485 C.3       3 GLC5        0.0000 
     40 CA          3.2870    9.0930   27.4930 C.3       9 GLL5        0.0000 
     41 CA          3.5390    5.6770   28.9240 C.3       6 GLP5        0.0000 
     42 CA          3.2021   11.9199   27.8671 C.3       3 GLC5        0.0000 
     43 CA          2.7960   13.7190   26.7710 C.3       6 GLP5        0.0000 
     44 CA          8.4887   10.6017   22.1740 C.3       3 GLC5        0.0000 
     45 CA          9.2320    8.5840   22.9420 C.3       9 GLL5        0.0000 
     46 CA          8.1540   12.2820   20.9520 C.3       6 GLP5        0.0000 
     47 CA          9.2484    6.7389   24.3871 C.3       3 GLC5        0.0000 
     48 CA          9.8500    5.5750   26.0700 C.3       6 GLP5        0.0000 
@<TRIPOS>BOND
@<TRIPOS>SUBSTRUCTURE
     1 ALC1       10 GROUP        1 X    ALC  0     ROOT ALC X 1
     2 SEC2       13 GROUP        1 X    SEC  0     **** SEC X 2
     3 GLC5        1 GROUP        1 X    GLC  0     **** GLC X 6
     4 ALP1       12 GROUP        1 Y    ALP  0     ROOT ALP Y 8
     5 SEP2       15 GROUP        1 Y    SEP  0     **** SEP Y 9
     6 GLP5        3 GROUP        1 Y    GLP  0     **** GLP Y 13
     7 ALL1       11 GROUP        1 Z    ALL  0     ROOT ALL Z 15
     8 SEL2       14 GROUP        1 Z    SEL  0     **** SEL Z 16
     9 GLL5        2 GROUP        1 Z    GLL  0     **** GLL Z 20
@<TRIPOS>SET

