#    Name: 1gih_1PU_1_ligand
#    Modification time : Tue Mar 25 03:13:39 2014

@<TRIPOS>MOLECULE
1gih_1PU_1_ligand
   39    42     1     0     0
SMALL
NO_CHARGES


@<TRIPOS>ATOM
      1 C1          5.4900   10.0160   27.8190 C.ar      1 1PU501      0.0000 
      2 C2          6.9530   10.3870   27.6530 C.3       1 1PU501      0.0000 
      3 C3          5.0340   10.6230   29.0290 C.ar      1 1PU501      0.0000 
      4 C7          6.1280   11.3660   29.6470 C.2       1 1PU501      0.0000 
      5 C6          7.3410   11.4050   26.5700 C.3       1 1PU501      0.0000 
      6 C4          4.6130    9.2320   27.0350 C.ar      1 1PU501      0.0000 
      7 N5          7.1960   11.2060   28.8380 N.am      1 1PU501      0.0000 
      8 C8          3.7050   10.4640   29.4600 C.ar      1 1PU501      0.0000 
      9 C9          3.2870    9.0930   27.4930 C.ar      1 1PU501      0.0000 
     10 N10         5.1070    8.6190   25.8190 N.am      1 1PU501      0.0000 
     11 C11         8.2510   12.2190   28.6970 C.3       1 1PU501      0.0000 
     12 C12         8.5300   12.1660   27.1880 C.3       1 1PU501      0.0000 
     13 O13         6.0610   11.9890   30.6810 O.2       1 1PU501      0.0000 
     14 C14         2.8470    9.6980   28.6820 C.ar      1 1PU501      0.0000 
     15 C15         4.5530    7.8310   24.9140 C.2       1 1PU501      0.0000 
     16 N16         5.3410    7.4040   23.9370 N.am      1 1PU501      0.0000 
     17 O17         3.3590    7.5220   24.9750 O.2       1 1PU501      0.0000 
     18 C18         6.6640    7.7380   23.5400 C.ar      1 1PU501      0.0000 
     19 C19         7.4070    7.0030   22.6160 C.ar      1 1PU501      0.0000 
     20 N20         7.1850    8.8230   24.1140 N.ar      1 1PU501      0.0000 
     21 C21         8.7160    7.4400   22.3170 C.ar      1 1PU501      0.0000 
     22 C22         8.4150    9.2590   23.8500 C.ar      1 1PU501      0.0000 
     23 C23         9.2320    8.5840   22.9420 C.ar      1 1PU501      0.0000 
     24 H           7.5832    9.5763   27.6590 H         1 1PU501      0.0000 
     25 H           6.5389   12.0746   26.4037 H         1 1PU501      0.0000 
     26 H           7.6593   10.8970   25.6981 H         1 1PU501      0.0000 
     27 H           3.3888   10.9012   30.3190 H         1 1PU501      0.0000 
     28 H           2.6205    8.5289   26.9361 H         1 1PU501      0.0000 
     29 H           6.1850    8.8938   25.6449 H         1 1PU501      0.0000 
     30 H           9.1296   11.9403   29.2168 H         1 1PU501      0.0000 
     31 H           7.8980   13.1852   28.9453 H         1 1PU501      0.0000 
     32 H           8.5623   13.1553   26.7937 H         1 1PU501      0.0000 
     33 H           9.4302   11.6253   27.0079 H         1 1PU501      0.0000 
     34 H           1.8640    9.5662   28.9775 H         1 1PU501      0.0000 
     35 H           4.8978    6.6126   23.2661 H         1 1PU501      0.0000 
     36 H           7.0265    6.1803   22.1691 H         1 1PU501      0.0000 
     37 H           9.2836    6.9194   21.6445 H         1 1PU501      0.0000 
     38 H           8.7984   10.1117   24.3122 H         1 1PU501      0.0000 
     39 H          10.1684    8.9079   22.7389 H         1 1PU501      0.0000 
@<TRIPOS>BOND
     1    2    1 1    
     2    3    1 ar   
     3    6    1 ar   
     4    5    2 1    
     5    7    2 1    
     6   24    2 1    
     7    4    3 1    
     8    8    3 ar   
     9    7    4 am   
    10   13    4 2    
    11   12    5 1    
    12   25    5 1    
    13   26    5 1    
    14    9    6 ar   
    15   10    6 1    
    16   11    7 1    
    17   14    8 ar   
    18   27    8 1    
    19   14    9 ar   
    20   28    9 1    
    21   15   10 am   
    22   29   10 1    
    23   12   11 1    
    24   30   11 1    
    25   31   11 1    
    26   32   12 1    
    27   33   12 1    
    28   34   14 1    
    29   16   15 am   
    30   17   15 2    
    31   18   16 1    
    32   35   16 1    
    33   19   18 ar   
    34   20   18 ar   
    35   21   19 ar   
    36   36   19 1    
    37   22   20 ar   
    38   23   21 ar   
    39   37   21 1    
    40   23   22 ar   
    41   38   22 1    
    42   39   23 1    
@<TRIPOS>SUBSTRUCTURE
     1 1PU501      1 GROUP   
@<TRIPOS>SET

