#    Name: 4hjo_AQ4_1_INTS_M
#    Modification time : Tue Mar 25 01:07:33 2014

@<TRIPOS>MOLECULE
4hjo_AQ4_1_INTS_M
   78     0     6     0     0
SMALL
NO_CHARGES


@<TRIPOS>ATOM
      1 CA         28.1630   12.5795   -6.2510 C.3       2 GLC5        0.0000 
      2 CA         28.8170   13.9250   -4.6970 C.3       6 GLL5        0.0000 
      3 CA         27.5090   11.2340   -7.8050 C.3       4 GLP5        0.0000 
      4 CA         29.2300   15.4080   -5.9365 C.3       2 GLC5        0.0000 
      5 CA         29.6430   16.8910   -7.1760 C.3       4 GLP5        0.0000 
      6 CA         30.3900   13.4020   -5.9205 C.3       2 GLC5        0.0000 
      7 CA         31.9630   12.8790   -7.1440 C.3       4 GLP5        0.0000 
      8 CA         28.1165   11.7370   -3.7020 C.3       2 GLC5        0.0000 
      9 CA         28.0300   13.9580   -3.7760 C.3       6 GLL5        0.0000 
     10 CA         28.2030    9.5160   -3.6280 C.3       4 GLP5        0.0000 
     11 CA         26.4520   14.7115   -4.3570 C.3       2 GLC5        0.0000 
     12 CA         27.0440   14.0330   -2.6190 C.3       6 GLL5        0.0000 
     13 CA         25.8600   15.3900   -6.0950 C.3       4 GLP5        0.0000 
     14 CA         27.3760   11.1905   -2.8580 C.3       2 GLC5        0.0000 
     15 CA         26.5490   12.8650   -2.0880 C.3       6 GLL5        0.0000 
     16 CA         26.6360   12.2100    0.8275 C.3       2 GLC5        0.0000 
     17 CA         25.6430   12.8980   -1.0140 C.3       6 GLL5        0.0000 
     18 CA         27.6290   11.5220    2.6690 C.3       4 GLP5        0.0000 
     19 CA         24.9425   10.7750   -2.1510 C.3       2 GLC5        0.0000 
     20 CA         25.9670   10.4240   -0.2840 C.3       6 GLL5        0.0000 
     21 CA         23.9180   11.1260   -4.0180 C.3       4 GLP5        0.0000 
     22 CA         27.0850    9.9700   -1.9560 C.3       2 GLC5        0.0000 
     23 CA         26.7980   10.9730    1.1925 C.3       2 GLC5        0.0000 
     24 CA         21.4460    7.9525   -1.4455 C.3       2 GLC5        0.0000 
     25 CA         21.2710    8.4350    0.5760 C.3       6 GLL5        0.0000 
     26 CA         21.6210    7.4700   -3.4670 C.3       4 GLP5        0.0000 
     27 CA         20.7605    9.1550    3.2695 C.3       2 GLC5        0.0000 
     28 CA         20.2290    8.3600    1.6960 C.3       6 GLL5        0.0000 
     29 CA         21.2920    9.9500    4.8430 C.3       4 GLP5        0.0000 
     30 CA         22.1920    6.5170    3.7695 C.3       2 GLC5        0.0000 
     31 CA         20.0450    6.6450    3.4240 C.3       6 GLL5        0.0000 
     32 CA         24.3390    6.3890    4.1150 C.3       4 GLP5        0.0000 
     33 CA         20.6685    8.2975    4.1335 C.3       2 GLC5        0.0000 
     34 CA         18.8925    7.0010    4.9140 C.3       2 GLC5        0.0000 
     35 CA         17.7400    7.3570    6.4040 C.3       4 GLP5        0.0000 
     36 CA         23.3840    4.6355   -0.9870 C.3       2 GLC5        0.0000 
     37 CA         24.5160    4.1220    0.7310 C.3       6 GLL5        0.0000 
     38 CA         22.2520    5.1490   -2.7050 C.3       4 GLP5        0.0000 
     39 CA         24.4275    5.2555    2.4230 C.3       2 GLC5        0.0000 
     40 CA         23.1005    4.8330    3.5025 C.3       2 GLC5        0.0000 
     41 CA         21.8620    3.2770    2.8900 C.3       6 GLL5        0.0000 
     42 N          28.5910    7.2545    0.5455 N.am      1 SEC2        0.0000 
     43 N          27.6640    8.2470    0.0120 N.am      5 SEL2        0.0000 
     44 N          29.5180    6.2620    1.0790 N.am      3 SEP2        0.0000 
     45 CA         28.1695    9.4885   -1.9590 C.3       2 GLC5        0.0000 
     46 CA         28.1360    9.4610   -0.2900 C.3       6 GLL5        0.0000 
     47 CA         29.3520    7.9165   -0.6990 C.3       2 GLC5        0.0000 
     48 CA         30.5680    6.3720   -1.1080 C.3       4 GLP5        0.0000 
     49 CA         28.9035    8.8880    1.4915 C.3       2 GLC5        0.0000 
     50 CA         29.6710    8.3150    3.2730 C.3       4 GLP5        0.0000 
     51 CA         27.8825   10.4915    1.1895 C.3       2 GLC5        0.0000 
     52 CA         23.8920   13.6780   -2.2180 C.3       2 GLC5        0.0000 
     53 CA         25.2320   14.1450   -0.4830 C.3       6 GLL5        0.0000 
     54 CA         22.5520   13.2110   -3.9530 C.3       4 GLP5        0.0000 
     55 CA         27.1418   14.6657   -5.1657 C.3       2 GLC5        0.0000 
     56 CA         30.0898   14.0628   -3.4007 C.3       2 GLC5        0.0000 
     57 CA         31.7560   14.1840   -2.5650 C.3       4 GLP5        0.0000 
     58 CA         25.0689   12.1498   -2.8509 C.3       2 GLC5        0.0000 
     59 CA         24.3598    7.9733   -1.4530 C.3       2 GLC5        0.0000 
     60 CA         25.4040    9.1370    0.0500 C.3       6 GLL5        0.0000 
     61 CA         24.0010    6.9110   -3.0470 C.3       4 GLP5        0.0000 
     62 CA         24.0010    7.0183   -1.2138 C.3       2 GLC5        0.0000 
     63 CA         23.5640    7.6590    0.5520 C.3       6 GLL5        0.0000 
     64 CA         25.0352    7.1560   -1.3458 C.3       2 GLC5        0.0000 
     65 CA         25.8250    6.7670    0.5150 C.3       6 GLL5        0.0000 
     66 CA         26.9703    6.3710   -1.0802 C.3       2 GLC5        0.0000 
     67 CA         27.8710    5.3410   -2.5160 C.3       4 GLP5        0.0000 
     68 CA         27.4477    7.2265    1.8333 C.3       2 GLC5        0.0000 
     69 CA         28.8260    7.0520    3.3110 C.3       4 GLP5        0.0000 
     70 CA         24.6260    6.6676    2.3411 C.3       2 GLC5        0.0000 
     71 CA         25.4071    9.7411    1.7893 C.3       2 GLC5        0.0000 
     72 CA         26.3140    8.0350    0.1960 C.3       6 GLL5        0.0000 
     73 CA         25.2980   10.9470    3.4100 C.3       4 GLP5        0.0000 
     74 CA         25.8750   14.9878    1.0542 C.3       2 GLC5        0.0000 
     75 CA         26.2680   15.2460    2.8590 C.3       4 GLP5        0.0000 
     76 CA         25.0275   15.7918   -3.2035 C.3       2 GLC5        0.0000 
     77 CA         25.7320   15.3140   -1.0180 C.3       6 GLL5        0.0000 
     78 CA         23.8730   16.2830   -4.8580 C.3       4 GLP5        0.0000 
@<TRIPOS>BOND
@<TRIPOS>SUBSTRUCTURE
     1 SEC2       42 GROUP        1 X    SEC  0     ROOT SEC X 2
     2 GLC5        1 GROUP        1 X    GLC  0     **** GLC X 6
     3 SEP2       44 GROUP        1 Y    SEP  0     ROOT SEP Y 9
     4 GLP5        3 GROUP        1 Y    GLP  0     **** GLP Y 13
     5 SEL2       43 GROUP        1 Z    SEL  0     ROOT SEL Z 16
     6 GLL5        2 GROUP        1 Z    GLL  0     **** GLL Z 20
@<TRIPOS>SET

