#    Name: 4hjo_AQ4_1_ligand
#    Modification time : Tue Mar 25 01:07:33 2014

@<TRIPOS>MOLECULE
4hjo_AQ4_1_ligand
   51    53     1     0     0
SMALL
NO_CHARGES


@<TRIPOS>ATOM
      1 C1         28.8170   13.9250   -4.6970 C.1       1 AQ41001     0.0000 
      2 C2         28.0300   13.9580   -3.7760 C.1       1 AQ41001     0.0000 
      3 C3         27.0440   14.0330   -2.6190 C.ar      1 AQ41001     0.0000 
      4 C4         26.5490   12.8650   -2.0880 C.ar      1 AQ41001     0.0000 
      5 C5         25.6430   12.8980   -1.0140 C.ar      1 AQ41001     0.0000 
      6 N1         25.1050   11.6290   -0.4490 N.pl3     1 AQ41001     0.0000 
      7 C6         25.9670   10.4240   -0.2840 C.ar      1 AQ41001     0.0000 
      8 C7         25.4040    9.1370    0.0500 C.ar      1 AQ41001     0.0000 
      9 C8         24.0330    8.9340    0.2320 C.ar      1 AQ41001     0.0000 
     10 C9         23.5640    7.6590    0.5520 C.ar      1 AQ41001     0.0000 
     11 O1         22.2160    7.4350    0.7360 O.3       1 AQ41001     0.0000 
     12 C10        21.2710    8.4350    0.5760 C.3       1 AQ41001     0.0000 
     13 C11        20.2290    8.3600    1.6960 C.3       1 AQ41001     0.0000 
     14 O2         19.9970    7.0090    2.0750 O.3       1 AQ41001     0.0000 
     15 C12        20.0450    6.6450    3.4240 C.3       1 AQ41001     0.0000 
     16 C13        24.4380    6.5920    0.6870 C.ar      1 AQ41001     0.0000 
     17 O3         23.9000    5.3280    1.0210 O.3       1 AQ41001     0.0000 
     18 C14        24.5160    4.1220    0.7310 C.3       1 AQ41001     0.0000 
     19 C15        23.6020    2.9880    1.2080 C.3       1 AQ41001     0.0000 
     20 O4         23.2320    3.2050    2.5410 O.3       1 AQ41001     0.0000 
     21 C16        21.8620    3.2770    2.8900 C.3       1 AQ41001     0.0000 
     22 C17        25.8250    6.7670    0.5150 C.ar      1 AQ41001     0.0000 
     23 C18        26.3140    8.0350    0.1960 C.ar      1 AQ41001     0.0000 
     24 N2         27.6640    8.2470    0.0120 N.ar      1 AQ41001     0.0000 
     25 C19        28.1360    9.4610   -0.2900 C.ar      1 AQ41001     0.0000 
     26 N3         27.3380   10.5100   -0.4400 N.ar      1 AQ41001     0.0000 
     27 C20        25.2320   14.1450   -0.4830 C.ar      1 AQ41001     0.0000 
     28 C21        25.7320   15.3140   -1.0180 C.ar      1 AQ41001     0.0000 
     29 C22        26.6320   15.2870   -2.0800 C.ar      1 AQ41001     0.0000 
     30 H          26.8365   11.9512   -2.4713 H         1 AQ41001     0.0000 
     31 H          24.1388   11.5837   -0.1725 H         1 AQ41001     0.0000 
     32 H          23.3796    9.7141    0.1313 H         1 AQ41001     0.0000 
     33 H          20.7229    8.3570   -0.3782 H         1 AQ41001     0.0000 
     34 H          21.7086    9.4470    0.6119 H         1 AQ41001     0.0000 
     35 H          19.3129    8.8456    1.3281 H         1 AQ41001     0.0000 
     36 H          20.6034    8.9630    2.5366 H         1 AQ41001     0.0000 
     37 H          25.4770    3.9970    1.2420 H         1 AQ41001     0.0000 
     38 H          24.6820    3.9717   -0.3415 H         1 AQ41001     0.0000 
     39 H          24.1543    2.0468    1.0722 H         1 AQ41001     0.0000 
     40 H          22.7367    2.9613    0.5299 H         1 AQ41001     0.0000 
     41 H          26.4570    5.9766    0.6230 H         1 AQ41001     0.0000 
     42 H          29.1835    9.5847   -0.4127 H         1 AQ41001     0.0000 
     43 H          24.5660   14.1612    0.2946 H         1 AQ41001     0.0000 
     44 H          25.4372   16.2277   -0.6281 H         1 AQ41001     0.0000 
     45 H          27.0018   16.1480   -2.4792 H         1 AQ41001     0.0000 
     46 H          20.9417    6.8290    3.8266 H         1 AQ41001     0.0000 
     47 H          19.3713    7.1453    3.9679 H         1 AQ41001     0.0000 
     48 H          19.8603    5.6706    3.5526 H         1 AQ41001     0.0000 
     49 H          21.7360    3.4310    3.8700 H         1 AQ41001     0.0000 
     50 H          21.3961    4.0228    2.4138 H         1 AQ41001     0.0000 
     51 H          21.3756    2.4338    2.6609 H         1 AQ41001     0.0000 
@<TRIPOS>BOND
     1    2    1 3    
     2    3    2 1    
     3    4    3 ar   
     4   29    3 ar   
     5    5    4 ar   
     6   30    4 1    
     7    6    5 1    
     8   27    5 ar   
     9    7    6 1    
    10   31    6 1    
    11    8    7 ar   
    12   26    7 ar   
    13    9    8 ar   
    14   23    8 ar   
    15   10    9 ar   
    16   32    9 1    
    17   11   10 1    
    18   16   10 ar   
    19   12   11 1    
    20   13   12 1    
    21   33   12 1    
    22   34   12 1    
    23   14   13 1    
    24   35   13 1    
    25   36   13 1    
    26   15   14 1    
    27   46   15 1    
    28   47   15 1    
    29   48   15 1    
    30   17   16 1    
    31   22   16 ar   
    32   18   17 1    
    33   19   18 1    
    34   37   18 1    
    35   38   18 1    
    36   20   19 1    
    37   39   19 1    
    38   40   19 1    
    39   21   20 1    
    40   49   21 1    
    41   50   21 1    
    42   51   21 1    
    43   23   22 ar   
    44   41   22 1    
    45   24   23 ar   
    46   25   24 ar   
    47   26   25 ar   
    48   42   25 1    
    49   28   27 ar   
    50   43   27 1    
    51   29   28 ar   
    52   44   28 1    
    53   45   29 1    
@<TRIPOS>SUBSTRUCTURE
     1 AQ41001     1 GROUP   
@<TRIPOS>SET

