#    Name: 2zyb_KSL_1_INTS_M
#    Modification time : Tue Mar 25 11:18:37 2014

@<TRIPOS>MOLECULE
2zyb_KSL_1_INTS_M
   63     0     9     0     0
SMALL
NO_CHARGES


@<TRIPOS>ATOM
      1 CA         19.1940   36.8350   10.1640 C.3       3 GLC5        0.0000 
      2 CA         19.1860   35.3390    8.7970 C.3       9 GLL5        0.0000 
      3 CA         19.2020   38.3310   11.5310 C.3       6 GLP5        0.0000 
      4 CA         19.7450   34.0495   10.1140 C.3       3 GLC5        0.0000 
      5 CA         20.3040   32.7600   11.4310 C.3       6 GLP5        0.0000 
      6 CA         18.5990   33.3615    8.4840 C.3       3 GLC5        0.0000 
      7 CA         18.0120   31.3840    8.1710 C.3       6 GLP5        0.0000 
      8 CA         17.0420   37.0320    8.2540 C.3       3 GLC5        0.0000 
      9 CA         19.0140   36.2140    7.5540 C.3       9 GLL5        0.0000 
     10 CA         15.0700   37.8500    8.9540 C.3       6 GLP5        0.0000 
     11 CA         18.3585   35.8860    3.5885 C.3       3 GLC5        0.0000 
     12 CA         17.8040   36.7030    5.4940 C.3       9 GLL5        0.0000 
     13 CA         18.9130   35.0690    1.6830 C.3       6 GLP5        0.0000 
     14 CA         19.6040   37.7960    9.3855 C.3       3 GLC5        0.0000 
     15 CA         20.0060   37.2610    7.2400 C.3       9 GLL5        0.0000 
     16 CA         22.2995   39.9805    6.4215 C.3       3 GLC5        0.0000 
     17 CA         20.8120   39.0920    5.6440 C.3       9 GLL5        0.0000 
     18 CA         23.7870   40.8690    7.1990 C.3       6 GLP5        0.0000 
     19 CA         21.6025   40.6655    4.3085 C.3       3 GLC5        0.0000 
     20 CA         22.3930   42.2390    2.9730 C.3       6 GLP5        0.0000 
     21 O          20.6095   39.0065    8.4815 O.2       1 ALC1        0.0000 
     22 O          21.0820   37.5430    8.0460 O.2       7 ALL1        0.0000 
     23 O          20.1370   40.4700    8.9170 O.2       4 ALP1        0.0000 
     24 CA         23.8615   40.5880   10.6760 C.3       3 GLC5        0.0000 
     25 CA         23.6050   38.6800    9.6410 C.3       9 GLL5        0.0000 
     26 CA         24.1180   42.4960   11.7110 C.3       6 GLP5        0.0000 
     27 CA         23.5905   38.5100   11.6275 C.3       3 GLC5        0.0000 
     28 CA         23.5760   38.3400   13.6140 C.3       6 GLP5        0.0000 
     29 N          24.9495   39.5685   11.3480 N.am      2 SEC2        0.0000 
     30 N          24.8940   38.7240   10.0370 N.am      8 SEL2        0.0000 
     31 N          25.0050   40.4130   12.6590 N.am      5 SEP2        0.0000 
     32 CA         18.2410   38.1437    7.4795 C.3       3 GLC5        0.0000 
     33 CA         17.9820   40.2080    7.8550 C.3       6 GLP5        0.0000 
     34 CA         16.0450   36.6410    6.8735 C.3       3 GLC5        0.0000 
     35 CA         17.9860   35.9450    6.6540 C.3       9 GLL5        0.0000 
     36 CA         14.1950   36.9580    7.6730 C.3       6 GLP5        0.0000 
     37 CA         17.1440   38.5933    4.5875 C.3       3 GLC5        0.0000 
     38 CA         16.0030   40.0140    3.8720 C.3       6 GLP5        0.0000 
     39 CA         18.1335   38.6902    6.5790 C.3       3 GLC5        0.0000 
     40 CA         18.7660   37.6420    5.1120 C.3       9 GLL5        0.0000 
     41 CA         20.2704   38.2163    3.6014 C.3       3 GLC5        0.0000 
     42 CA         20.4840   37.9780    1.6100 C.3       6 GLP5        0.0000 
     43 CA         19.1744   39.2836    6.9899 C.3       3 GLC5        0.0000 
     44 CA         23.6728   39.5147    8.1710 C.3       3 GLC5        0.0000 
     45 CA         23.5120   37.6410    8.6450 C.3       9 GLL5        0.0000 
     46 CA         23.3517   36.6947   10.1345 C.3       3 GLC5        0.0000 
     47 CA         23.1450   35.2290   11.1260 C.3       6 GLP5        0.0000 
     48 CA         27.0197   37.1802    7.0888 C.3       3 GLC5        0.0000 
     49 CA         24.9360   36.0710    7.6760 C.3       9 GLL5        0.0000 
     50 CA         28.4290   38.6050    6.5740 C.3       6 GLP5        0.0000 
     51 CA         24.7075   36.8678    5.7305 C.3       3 GLC5        0.0000 
     52 CA         25.0070   37.9230    4.1600 C.3       6 GLP5        0.0000 
     53 CA         23.7765   35.5207    9.2135 C.3       3 GLC5        0.0000 
     54 CA         23.8800   35.5540    6.9260 C.3       9 GLL5        0.0000 
     55 CA         25.7213   36.4967    5.5617 C.3       3 GLC5        0.0000 
     56 CA         26.2850   35.4400    7.5310 C.3       9 GLL5        0.0000 
     57 CA         28.1268   36.9030    7.5337 C.3       3 GLC5        0.0000 
     58 CA         27.2140   35.5330    8.5440 C.3       9 GLL5        0.0000 
     59 CA         28.4612   35.0935   10.4157 C.3       3 GLC5        0.0000 
     60 CA         29.0980   34.9860   12.3380 C.3       6 GLP5        0.0000 
     61 CA         28.5108   35.8859    5.6991 C.3       3 GLC5        0.0000 
     62 CA         28.7650   34.2090    7.2500 C.3       9 GLL5        0.0000 
     63 CA         29.5760   37.3410    4.8270 C.3       6 GLP5        0.0000 
@<TRIPOS>BOND
@<TRIPOS>SUBSTRUCTURE
     1 ALC1       21 GROUP        1 X    ALC  0     ROOT ALC X 1
     2 SEC2       29 GROUP        1 X    SEC  0     **** SEC X 2
     3 GLC5        1 GROUP        1 X    GLC  0     **** GLC X 6
     4 ALP1       23 GROUP        1 Y    ALP  0     ROOT ALP Y 8
     5 SEP2       31 GROUP        1 Y    SEP  0     **** SEP Y 9
     6 GLP5        3 GROUP        1 Y    GLP  0     **** GLP Y 13
     7 ALL1       22 GROUP        1 Z    ALL  0     ROOT ALL Z 15
     8 SEL2       30 GROUP        1 Z    SEL  0     **** SEL Z 16
     9 GLL5        2 GROUP        1 Z    GLL  0     **** GLL Z 20
@<TRIPOS>SET

