#    Name: 2zyb_KSL_1_ligand
#    Modification time : Tue Mar 25 11:18:38 2014

@<TRIPOS>MOLECULE
2zyb_KSL_1_ligand
   42    45     1     0     0
SMALL
NO_CHARGES


@<TRIPOS>ATOM
      1 C8         19.1860   35.3390    8.7970 C.3       1 KSL511      0.0000 
      2 C7         19.0140   36.2140    7.5540 C.ar      1 KSL511      0.0000 
      3 C5         17.9860   35.9450    6.6540 C.ar      1 KSL511      0.0000 
      4 C4         17.8040   36.7030    5.4940 C.ar      1 KSL511      0.0000 
      5 C3         18.7660   37.6420    5.1120 C.ar      1 KSL511      0.0000 
      6 C6         20.0060   37.2610    7.2400 C.ar      1 KSL511      0.0000 
      7 C2         19.8370   37.9920    5.9710 C.ar      1 KSL511      0.0000 
      8 C1         20.8120   39.0920    5.6440 C.3       1 KSL511      0.0000 
      9 N9         21.0820   37.5430    8.0460 N.pl3     1 KSL511      0.0000 
     10 C10        22.3750   37.0680    7.8750 C.2       1 KSL511      0.0000 
     11 C18        23.5120   37.6410    8.6450 C.2       1 KSL511      0.0000 
     12 C17        23.6050   38.6800    9.6410 C.2       1 KSL511      0.0000 
     13 N16        24.8940   38.7240   10.0370 N.2       1 KSL511      0.0000 
     14 C15        25.5680   37.7770    9.3500 C.2       1 KSL511      0.0000 
     15 N14        24.7240   37.0990    8.5400 N.pl3     1 KSL511      0.0000 
     16 C13        24.9360   36.0710    7.6760 C.2       1 KSL511      0.0000 
     17 C12        23.8800   35.5540    6.9260 C.2       1 KSL511      0.0000 
     18 N11        22.6360   36.0180    7.0820 N.2       1 KSL511      0.0000 
     19 C19        26.2850   35.4400    7.5310 C.ar      1 KSL511      0.0000 
     20 C24        27.2140   35.5330    8.5440 C.ar      1 KSL511      0.0000 
     21 C23        28.4350   34.8690    8.4430 C.ar      1 KSL511      0.0000 
     22 C22        28.7650   34.2090    7.2500 C.ar      1 KSL511      0.0000 
     23 C21        27.8450   34.1120    6.2430 C.ar      1 KSL511      0.0000 
     24 C20        26.5860   34.7010    6.3960 C.ar      1 KSL511      0.0000 
     25 H          17.3342   35.1584    6.8485 H         1 KSL511      0.0000 
     26 H          16.9622   36.5698    4.9215 H         1 KSL511      0.0000 
     27 H          18.7023   38.0948    4.1862 H         1 KSL511      0.0000 
     28 H          20.9132   38.1893    8.8864 H         1 KSL511      0.0000 
     29 H          22.8750   39.1967    9.9225 H         1 KSL511      0.0000 
     30 H          26.5261   37.6057    9.4263 H         1 KSL511      0.0000 
     31 H          24.0897   34.7960    6.2411 H         1 KSL511      0.0000 
     32 H          27.0112   36.0959    9.3854 H         1 KSL511      0.0000 
     33 H          29.0877   34.8605    9.2294 H         1 KSL511      0.0000 
     34 H          29.7065   33.8018    7.1476 H         1 KSL511      0.0000 
     35 H          28.0645   33.6111    5.3716 H         1 KSL511      0.0000 
     36 H          25.8776   34.5821    5.6552 H         1 KSL511      0.0000 
     37 H          19.3474   34.3815    8.5578 H         1 KSL511      0.0000 
     38 H          19.9602   35.6359    9.3560 H         1 KSL511      0.0000 
     39 H          18.3757   35.3623    9.3826 H         1 KSL511      0.0000 
     40 H          21.5029   39.2005    6.3588 H         1 KSL511      0.0000 
     41 H          21.2999   38.9139    4.7894 H         1 KSL511      0.0000 
     42 H          20.3547   39.9754    5.5418 H         1 KSL511      0.0000 
@<TRIPOS>BOND
     1    2    1 1    
     2   37    1 1    
     3   38    1 1    
     4   39    1 1    
     5    3    2 ar   
     6    6    2 ar   
     7    4    3 ar   
     8   25    3 1    
     9    5    4 ar   
    10   26    4 1    
    11    7    5 ar   
    12   27    5 1    
    13    7    6 ar   
    14    9    6 1    
    15    8    7 1    
    16   40    8 1    
    17   41    8 1    
    18   42    8 1    
    19   10    9 1    
    20   28    9 1    
    21   11   10 1    
    22   18   10 2    
    23   12   11 2    
    24   15   11 1    
    25   13   12 1    
    26   29   12 1    
    27   14   13 2    
    28   15   14 1    
    29   30   14 1    
    30   16   15 1    
    31   17   16 2    
    32   19   16 1    
    33   18   17 1    
    34   31   17 1    
    35   20   19 ar   
    36   24   19 ar   
    37   21   20 ar   
    38   32   20 1    
    39   22   21 ar   
    40   33   21 1    
    41   23   22 ar   
    42   34   22 1    
    43   24   23 ar   
    44   35   23 1    
    45   36   24 1    
@<TRIPOS>SUBSTRUCTURE
     1 KSL511      1 GROUP   
@<TRIPOS>SET

