#    Name: 3fmh_533_1_INTS_M
#    Modification time : Tue Mar 25 06:04:38 2014

@<TRIPOS>MOLECULE
3fmh_533_1_INTS_M
   66     0     9     0     0
SMALL
NO_CHARGES


@<TRIPOS>ATOM
      1 CA         12.4305   10.0035   30.2460 C.3       3 GLC5        0.0000 
      2 CA         14.0760   10.1660   30.7630 C.3       9 GLL5        0.0000 
      3 CA         10.7850    9.8410   29.7290 C.3       6 GLP5        0.0000 
      4 CA         15.1075    8.8460   30.1095 C.3       3 GLC5        0.0000 
      5 CA         16.1390    7.5260   29.4560 C.3       6 GLP5        0.0000 
      6 CA         18.8100   11.7230   28.7195 C.3       3 GLC5        0.0000 
      7 CA         17.0440   12.0980   29.9910 C.3       9 GLL5        0.0000 
      8 CA         20.5760   11.3480   27.4480 C.3       6 GLP5        0.0000 
      9 CA         19.2580   10.5860   34.4155 C.3       3 GLC5        0.0000 
     10 CA         18.0760   10.7510   33.2190 C.3       9 GLL5        0.0000 
     11 CA         20.4400   10.4210   35.6120 C.3       6 GLP5        0.0000 
     12 CA         17.0635    9.6500   34.8835 C.3       3 GLC5        0.0000 
     13 CA         16.0510    8.5490   36.5480 C.3       6 GLP5        0.0000 
     14 CA         20.3425   12.3130   33.1685 C.3       3 GLC5        0.0000 
     15 CA         20.2780   11.7480   31.1630 C.3       9 GLL5        0.0000 
     16 CA         20.4070   12.8780   35.1740 C.3       6 GLP5        0.0000 
     17 CA         22.8570   10.8095   28.9845 C.3       3 GLC5        0.0000 
     18 CA         22.7230   10.5390   31.1190 C.3       9 GLL5        0.0000 
     19 CA         22.9910   11.0800   26.8500 C.3       6 GLP5        0.0000 
     20 CA         18.9225    9.2650   30.4890 C.3       3 GLC5        0.0000 
     21 CA         20.3800   10.4560   30.9800 C.3       9 GLL5        0.0000 
     22 CA         17.4650    8.0740   29.9980 C.3       6 GLP5        0.0000 
     23 CA         19.5425    8.2620   30.3765 C.3       3 GLC5        0.0000 
     24 CA         21.6200    8.4500   30.7550 C.3       9 GLL5        0.0000 
     25 CA         21.5625    6.3435   31.2265 C.3       3 GLC5        0.0000 
     26 CA         21.5050    4.2370   31.6980 C.3       6 GLP5        0.0000 
     27 CA         22.2985    7.1800   29.1345 C.3       3 GLC5        0.0000 
     28 CA         22.9770    5.9100   27.5140 C.3       6 GLP5        0.0000 
     29 N          23.0800    6.3495   30.4835 N.am      2 SEC2        0.0000 
     30 N          22.8250    7.8400   30.7320 N.am      8 SEL2        0.0000 
     31 N          23.3350    4.8590   30.2350 N.am      5 SEP2        0.0000 
     32 CA         24.1630    7.1265   29.5275 C.3       3 GLC5        0.0000 
     33 CA         23.9720    8.5630   30.9010 C.3       9 GLL5        0.0000 
     34 CA         24.3540    5.6900   28.1540 C.3       6 GLP5        0.0000 
     35 O          25.5975    6.6325   30.9010 O.2       1 ALC1        0.0000 
     36 O          25.2080    7.9960   30.8860 O.2       7 ALL1        0.0000 
     37 O          25.9870    5.2690   30.9160 O.2       4 ALP1        0.0000 
     38 CA         25.8845    7.0150   28.9995 C.3       3 GLC5        0.0000 
     39 CA         27.4150    8.3400   29.8450 C.3       9 GLL5        0.0000 
     40 CA         28.7090    7.2495   29.1455 C.3       3 GLC5        0.0000 
     41 CA         30.0030    6.1590   28.4460 C.3       6 GLP5        0.0000 
     42 CA         28.4045    9.5270   28.3980 C.3       3 GLC5        0.0000 
     43 CA         29.3940   10.7140   26.9510 C.3       6 GLP5        0.0000 
     44 CA         26.3165    8.2995   27.8905 C.3       3 GLC5        0.0000 
     45 CA         25.2180    8.2590   25.9360 C.3       6 GLP5        0.0000 
     46 CA         16.5008    9.5977   30.1880 C.3       3 GLC5        0.0000 
     47 CA         15.2940   10.7100   30.8850 C.3       9 GLL5        0.0000 
     48 CA         13.9545   12.2133   29.4372 C.3       3 GLC5        0.0000 
     49 CA         12.6770   13.4410   28.5270 C.3       6 GLP5        0.0000 
     50 CA         16.7833   13.6445   31.6565 C.3       3 GLC5        0.0000 
     51 CA         16.1320   15.3240   32.7610 C.3       6 GLP5        0.0000 
     52 CA         17.4498   10.0195   30.2750 C.3       3 GLC5        0.0000 
     53 CA         17.8250   11.8320   31.1130 C.3       9 GLL5        0.0000 
     54 CA         13.8562   11.2288   32.1485 C.3       3 GLC5        0.0000 
     55 CA         16.0640   10.4470   32.0140 C.3       9 GLL5        0.0000 
     56 CA         12.3380   12.0150   32.8780 C.3       6 GLP5        0.0000 
     57 CA         14.3343    8.9548   32.3095 C.3       3 GLC5        0.0000 
     58 CA         13.2940    7.4670   33.2000 C.3       6 GLP5        0.0000 
     59 CA         18.6150    9.1930   33.1008 C.3       3 GLC5        0.0000 
     60 CA         17.3340   11.0110   32.1280 C.3       9 GLL5        0.0000 
     61 CA         19.5250    7.5050   33.5280 C.3       6 GLP5        0.0000 
     62 CA         16.8238   11.8935   33.8295 C.3       3 GLC5        0.0000 
     63 CA         16.2600   13.0470   35.0140 C.3       6 GLP5        0.0000 
     64 CA         17.4262    9.4070   31.3215 C.3       3 GLC5        0.0000 
     65 CA         20.7525   10.9078   29.2296 C.3       3 GLC5        0.0000 
     66 CA         20.4061    8.4011   32.1941 C.3       3 GLC5        0.0000 
@<TRIPOS>BOND
@<TRIPOS>SUBSTRUCTURE
     1 ALC1       35 GROUP        1 X    ALC  0     ROOT ALC X 1
     2 SEC2       29 GROUP        1 X    SEC  0     **** SEC X 2
     3 GLC5        1 GROUP        1 X    GLC  0     **** GLC X 6
     4 ALP1       37 GROUP        1 Y    ALP  0     ROOT ALP Y 8
     5 SEP2       31 GROUP        1 Y    SEP  0     **** SEP Y 9
     6 GLP5        3 GROUP        1 Y    GLP  0     **** GLP Y 13
     7 ALL1       36 GROUP        1 Z    ALL  0     ROOT ALL Z 15
     8 SEL2       30 GROUP        1 Z    SEL  0     **** SEL Z 16
     9 GLL5        2 GROUP        1 Z    GLL  0     **** GLL Z 20
@<TRIPOS>SET

