#    Name: 3fmh_533_1_ligand
#    Modification time : Tue Mar 25 06:04:38 2014

@<TRIPOS>MOLECULE
3fmh_533_1_ligand
   46    49     1     0     0
SMALL
NO_CHARGES


@<TRIPOS>ATOM
      1 F23        14.0760   10.1660   30.7630 F         1 533361      0.0000 
      2 C19        15.2940   10.7100   30.8850 C.ar      1 533361      0.0000 
      3 C18        15.7790   11.5330   29.8710 C.ar      1 533361      0.0000 
      4 C17        17.0440   12.0980   29.9910 C.ar      1 533361      0.0000 
      5 C20        16.0640   10.4470   32.0140 C.ar      1 533361      0.0000 
      6 C21        17.3340   11.0110   32.1280 C.ar      1 533361      0.0000 
      7 F22        18.0760   10.7510   33.2190 F         1 533361      0.0000 
      8 C16        17.8250   11.8320   31.1130 C.ar      1 533361      0.0000 
      9 O15        19.0680   12.4140   31.2000 O.3       1 533361      0.0000 
     10 C12        20.2780   11.7480   31.1630 C.2       1 533361      0.0000 
     11 C11        21.4170   12.5350   31.3340 C.2       1 533361      0.0000 
     12 O14        21.3110   13.7670   31.5060 O.2       1 533361      0.0000 
     13 N10        22.6880   11.9280   31.3220 N.am      1 533361      0.0000 
     14 C24        23.9300   12.6990   31.4980 C.3       1 533361      0.0000 
     15 C9         22.7230   10.5390   31.1190 C.ar      1 533361      0.0000 
     16 N5         23.9090    9.8970   31.0910 N.ar      1 533361      0.0000 
     17 C13        20.3800   10.4560   30.9800 C.2       1 533361      0.0000 
     18 C8         21.5290    9.8330   30.9510 C.ar      1 533361      0.0000 
     19 C6         21.6200    8.4500   30.7550 C.ar      1 533361      0.0000 
     20 N7         22.8250    7.8400   30.7320 N.ar      1 533361      0.0000 
     21 C4         23.9720    8.5630   30.9010 C.ar      1 533361      0.0000 
     22 N1         25.2080    7.9960   30.8860 N.pl3     1 533361      0.0000 
     23 C2         26.3780    8.8790   30.8210 C.3       1 533361      0.0000 
     24 C26        27.4150    8.3400   29.8450 C.3       1 533361      0.0000 
     25 C3         26.9480    9.0450   32.2370 C.3       1 533361      0.0000 
     26 N25        27.0960    7.7860   32.9740 N.pl3     1 533361      0.0000 
     27 N30        26.3590    7.4970   34.1190 N.2       1 533361      0.0000 
     28 C29        26.7940    6.2650   34.4900 C.2       1 533361      0.0000 
     29 N28        27.7520    5.8160   33.6270 N.2       1 533361      0.0000 
     30 N27        27.9870    6.7780   32.6260 N.2       1 533361      0.0000 
     31 H          15.2061   11.7203   29.0419 H         1 533361      0.0000 
     32 H          17.4045   12.7139   29.2499 H         1 533361      0.0000 
     33 H          15.7009    9.8427   32.7576 H         1 533361      0.0000 
     34 H          19.4804    9.8834   30.8480 H         1 533361      0.0000 
     35 H          20.7444    7.9097   30.6288 H         1 533361      0.0000 
     36 H          25.3686    6.9995   30.9171 H         1 533361      0.0000 
     37 H          26.0632    9.8660   30.4785 H         1 533361      0.0000 
     38 H          26.2840    9.7413   32.7888 H         1 533361      0.0000 
     39 H          27.9265    9.5598   32.1489 H         1 533361      0.0000 
     40 H          26.4703    5.7679   35.2630 H         1 533361      0.0000 
     41 H          24.7394   12.1130   31.4601 H         1 533361      0.0000 
     42 H          24.0387   13.3952   30.7884 H         1 533361      0.0000 
     43 H          23.9517   13.1722   32.3787 H         1 533361      0.0000 
     44 H          28.2170    8.9348   29.7892 H         1 533361      0.0000 
     45 H          27.7407    7.4331   30.1124 H         1 533361      0.0000 
     46 H          27.0462    8.2577   28.9192 H         1 533361      0.0000 
@<TRIPOS>BOND
     1    2    1 1    
     2    3    2 ar   
     3    5    2 ar   
     4    4    3 ar   
     5   31    3 1    
     6    8    4 ar   
     7   32    4 1    
     8    6    5 ar   
     9   33    5 1    
    10    7    6 1    
    11    8    6 ar   
    12    9    8 1    
    13   10    9 1    
    14   11   10 1    
    15   17   10 2    
    16   12   11 2    
    17   13   11 am   
    18   14   13 1    
    19   15   13 1    
    20   41   14 1    
    21   42   14 1    
    22   43   14 1    
    23   16   15 ar   
    24   18   15 ar   
    25   21   16 ar   
    26   18   17 1    
    27   34   17 1    
    28   19   18 ar   
    29   20   19 ar   
    30   35   19 1    
    31   21   20 ar   
    32   22   21 1    
    33   23   22 1    
    34   36   22 1    
    35   24   23 1    
    36   25   23 1    
    37   37   23 1    
    38   44   24 1    
    39   45   24 1    
    40   46   24 1    
    41   26   25 1    
    42   38   25 1    
    43   39   25 1    
    44   27   26 1    
    45   30   26 1    
    46   28   27 2    
    47   29   28 1    
    48   40   28 1    
    49   30   29 2    
@<TRIPOS>SUBSTRUCTURE
     1 533361      1 GROUP   
@<TRIPOS>SET

