#    Name: 4j1r_I5R_4_INTS_M
#    Modification time : Tue Mar 25 05:14:13 2014

@<TRIPOS>MOLECULE
4j1r_I5R_4_INTS_M
   50     0     9     0     0
SMALL
NO_CHARGES


@<TRIPOS>ATOM
      1 O          81.9305   50.8535   85.1230 O.2       1 ALC1        0.0000 
      2 O          80.9020   49.7970   85.1710 O.2       7 ALL1        0.0000 
      3 O          82.9590   51.9100   85.0750 O.2       4 ALP1        0.0000 
      4 CA         80.7135   50.1765   82.9610 C.3       3 GLC5        0.0000 
      5 CA         81.3070   48.7420   84.3260 C.3       9 GLL5        0.0000 
      6 CA         80.1200   51.6110   81.5960 C.3       6 GLP5        0.0000 
      7 CA         82.9185   49.9825   83.6110 C.3       3 GLC5        0.0000 
      8 CA         84.5300   51.2230   82.8960 C.3       6 GLP5        0.0000 
      9 N          83.7555   49.0015   83.9100 N.am      2 SEC2        0.0000 
     10 N          82.3430   48.7330   83.6430 N.am      8 SEL2        0.0000 
     11 N          85.1680   49.2700   84.1770 N.am      5 SEP2        0.0000 
     12 CA         83.6375   49.4255   82.8760 C.3       3 GLC5        0.0000 
     13 CA         82.7450   47.6280   82.8560 C.3       9 GLL5        0.0000 
     14 CA         84.4005   47.9195   83.7660 C.3       3 GLC5        0.0000 
     15 CA         86.0560   48.2110   84.6760 C.3       6 GLP5        0.0000 
     16 CA         81.0275   47.1705   80.9785 C.3       3 GLC5        0.0000 
     17 CA         81.9570   46.4650   82.8800 C.3       9 GLL5        0.0000 
     18 CA         80.0980   47.8760   79.0770 C.3       6 GLP5        0.0000 
     19 CA         81.7325   45.8695   85.4885 C.3       3 GLC5        0.0000 
     20 CA         80.8340   46.4410   83.6600 C.3       9 GLL5        0.0000 
     21 CA         82.6310   45.2980   87.3170 C.3       6 GLP5        0.0000 
     22 CA         80.7005   48.2775   86.7975 C.3       3 GLC5        0.0000 
     23 CA         78.8310   48.7360   85.8880 C.3       9 GLL5        0.0000 
     24 CA         82.5700   47.8190   87.7070 C.3       6 GLP5        0.0000 
     25 CA         78.9940   47.8280   87.4245 C.3       3 GLC5        0.0000 
     26 CA         79.1570   46.9200   88.9610 C.3       6 GLP5        0.0000 
     27 CA         77.6130   51.2130   85.3390 C.3       3 GLC5        0.0000 
     28 CA         77.8930   49.2750   84.7680 C.3       9 GLL5        0.0000 
     29 CA         77.3330   53.1510   85.9100 C.3       6 GLP5        0.0000 
     30 CA         76.9285   48.1325   81.3995 C.3       3 GLC5        0.0000 
     31 CA         77.0760   46.9110   82.5740 C.3       9 GLL5        0.0000 
     32 CA         76.7810   49.3540   80.2250 C.3       6 GLP5        0.0000 
     33 CA         74.1760   49.8670   84.9910 C.3       3 GLC5        0.0000 
     34 CA         75.6830   48.3930   85.4320 C.3       9 GLL5        0.0000 
     35 CA         72.6690   51.3410   84.5500 C.3       6 GLP5        0.0000 
     36 CA         75.4165   47.7020   87.2060 C.3       3 GLC5        0.0000 
     37 CA         75.1500   47.0110   88.9800 C.3       6 GLP5        0.0000 
     38 CA         81.7262   47.9695   86.0505 C.3       3 GLC5        0.0000 
     39 CA         80.4580   47.4980   84.4620 C.3       9 GLL5        0.0000 
     40 CA         84.0145   46.0367   82.6960 C.3       3 GLC5        0.0000 
     41 CA         85.6780   45.0270   82.5240 C.3       6 GLP5        0.0000 
     42 CA         75.4932   48.3265   82.4995 C.3       3 GLC5        0.0000 
     43 CA         76.4210   47.3940   83.6600 C.3       9 GLL5        0.0000 
     44 CA         74.4310   48.7960   80.8860 C.3       6 GLP5        0.0000 
     45 CA         75.4915   45.4958   80.2088 C.3       3 GLC5        0.0000 
     46 CA         76.5210   45.8940   81.7920 C.3       9 GLL5        0.0000 
     47 CA         75.0840   45.3600   78.4550 C.3       6 GLP5        0.0000 
     48 CA         75.1650   47.2137   81.4243 C.3       3 GLC5        0.0000 
     49 CA         74.6782   47.5845   82.2510 C.3       3 GLC5        0.0000 
     50 CA         74.6400   45.8850   83.2540 C.3       9 GLL5        0.0000 
@<TRIPOS>BOND
@<TRIPOS>SUBSTRUCTURE
     1 ALC1        1 GROUP        1 X    ALC  0     ROOT ALC X 1
     2 SEC2        9 GROUP        1 X    SEC  0     **** SEC X 2
     3 GLC5        4 GROUP        1 X    GLC  0     **** GLC X 6
     4 ALP1        3 GROUP        1 Y    ALP  0     ROOT ALP Y 8
     5 SEP2       11 GROUP        1 Y    SEP  0     **** SEP Y 9
     6 GLP5        6 GROUP        1 Y    GLP  0     **** GLP Y 13
     7 ALL1        2 GROUP        1 Z    ALL  0     ROOT ALL Z 15
     8 SEL2       10 GROUP        1 Z    SEL  0     **** SEL Z 16
     9 GLL5        5 GROUP        1 Z    GLL  0     **** GLL Z 20
@<TRIPOS>SET

