#    Name: 4j1r_I5R_4_ligand
#    Modification time : Tue Mar 25 05:14:13 2014

@<TRIPOS>MOLECULE
4j1r_I5R_4_ligand
   35    38     1     0     0
SMALL
NO_CHARGES


@<TRIPOS>ATOM
      1 O          79.5990   50.7340   86.7280 O.2       1 I5R502      0.0000 
      2 C          79.8780   49.6840   86.0030 C.2       1 I5R502      0.0000 
      3 NAL        80.9020   49.7970   85.1710 N.am      1 I5R502      0.0000 
      4 CAR        81.3070   48.7420   84.3260 C.ar      1 I5R502      0.0000 
      5 NAK        82.3430   48.7330   83.6430 N.ar      1 I5R502      0.0000 
      6 CAE        82.7450   47.6280   82.8560 C.ar      1 I5R502      0.0000 
      7 CAD        81.9570   46.4650   82.8800 C.ar      1 I5R502      0.0000 
      8 CAF        80.8340   46.4410   83.6600 C.ar      1 I5R502      0.0000 
      9 CAQ        80.4580   47.4980   84.4620 C.ar      1 I5R502      0.0000 
     10 N          79.3180   47.5180   85.1900 N.pl3     1 I5R502      0.0000 
     11 CA         78.8310   48.7360   85.8880 C.3       1 I5R502      0.0000 
     12 CB         77.8930   49.2750   84.7680 C.3       1 I5R502      0.0000 
     13 CG         76.6900   48.3200   84.5660 C.2       1 I5R502      0.0000 
     14 CD2        76.4210   47.3940   83.6600 C.ar      1 I5R502      0.0000 
     15 CE3        77.0760   46.9110   82.5740 C.ar      1 I5R502      0.0000 
     16 CZ3        76.5210   45.8940   81.7920 C.ar      1 I5R502      0.0000 
     17 CH2        75.2770   45.3690   82.1330 C.ar      1 I5R502      0.0000 
     18 CZ2        74.6400   45.8850   83.2540 C.ar      1 I5R502      0.0000 
     19 CE2        75.2110   46.8610   83.9780 C.ar      1 I5R502      0.0000 
     20 NE1        74.7750   47.4870   85.0640 N.pl3     1 I5R502      0.0000 
     21 CD1        75.6830   48.3930   85.4320 C.2       1 I5R502      0.0000 
     22 H          81.4567   50.6895   85.1104 H         1 I5R502      0.0000 
     23 H          83.5818   47.6787   82.2902 H         1 I5R502      0.0000 
     24 H          82.2337   45.6575   82.3164 H         1 I5R502      0.0000 
     25 H          80.2266   45.5800   83.6512 H         1 I5R502      0.0000 
     26 H          78.7189   46.6747   85.2994 H         1 I5R502      0.0000 
     27 H          78.2868   48.5283   86.7016 H         1 I5R502      0.0000 
     28 H          78.4521   49.3444   83.8451 H         1 I5R502      0.0000 
     29 H          77.5287   50.2517   85.0551 H         1 I5R502      0.0000 
     30 H          78.0055   47.2913   82.3048 H         1 I5R502      0.0000 
     31 H          77.0264   45.5397   80.9762 H         1 I5R502      0.0000 
     32 H          74.8518   44.6341   81.5798 H         1 I5R502      0.0000 
     33 H          73.7104   45.4973   83.5190 H         1 I5R502      0.0000 
     34 H          73.9305   47.3161   85.5211 H         1 I5R502      0.0000 
     35 H          75.6185   48.9903   86.1881 H         1 I5R502      0.0000 
@<TRIPOS>BOND
     1    2    1 2    
     2    3    2 am   
     3   11    2 1    
     4    4    3 1    
     5   22    3 1    
     6    5    4 ar   
     7    9    4 ar   
     8    6    5 ar   
     9    7    6 ar   
    10   23    6 1    
    11    8    7 ar   
    12   24    7 1    
    13    9    8 ar   
    14   25    8 1    
    15   10    9 1    
    16   11   10 1    
    17   26   10 1    
    18   12   11 1    
    19   27   11 1    
    20   13   12 1    
    21   28   12 1    
    22   29   12 1    
    23   14   13 1    
    24   21   13 2    
    25   15   14 ar   
    26   19   14 ar   
    27   16   15 ar   
    28   30   15 1    
    29   17   16 ar   
    30   31   16 1    
    31   18   17 ar   
    32   32   17 1    
    33   19   18 ar   
    34   33   18 1    
    35   20   19 1    
    36   21   20 1    
    37   34   20 1    
    38   35   21 1    
@<TRIPOS>SUBSTRUCTURE
     1 I5R502      1 GROUP   
@<TRIPOS>SET

