#    Name: 3sne_GLU_SER_THR_LEU_ACE_ECC_1_INTS_M
#    Modification time : Mon Mar 24 17:58:34 2014

@<TRIPOS>MOLECULE
3sne_GLU_SER_THR_LEU_ACE_ECC_1_INTS_M
   53     0     9     0     0
SMALL
NO_CHARGES


@<TRIPOS>ATOM
      1 CA         27.4055   44.5185   -7.2005 C.3       3 GLC5        0.0000 
      2 CA         25.5970   45.7400   -7.1470 C.3       9 GLL5        0.0000 
      3 CA         29.2140   43.2970   -7.2540 C.3       6 GLP5        0.0000 
      4 O          23.2085   45.2610   -6.1760 O.2       1 ALC1        0.0000 
      5 O          24.3920   45.0590   -7.4330 O.2       7 ALL1        0.0000 
      6 O          22.0250   45.4630   -4.9190 O.2       4 ALP1        0.0000 
      7 O          23.3070   44.8760   -4.6425 O.2       1 ALC1        0.0000 
      8 O          24.5890   44.2890   -4.3660 O.2       7 ALL1        0.0000 
      9 N          21.4870   42.5660   -4.4890 N.am      2 SEC2        0.0000 
     10 N          22.5060   42.0060   -3.8380 N.am      8 SEL2        0.0000 
     11 N          20.4680   43.1260   -5.1400 N.am      5 SEP2        0.0000 
     12 CA         21.8450   44.0935   -2.5805 C.3       3 GLC5        0.0000 
     13 CA         23.9250   43.7740   -1.9800 C.3       9 GLL5        0.0000 
     14 CA         19.7650   44.4130   -3.1810 C.3       6 GLP5        0.0000 
     15 CA         24.7530   36.8415   -5.5170 C.3       3 GLC5        0.0000 
     16 CA         24.7820   38.8300   -5.4090 C.3       9 GLL5        0.0000 
     17 CA         24.7240   34.8530   -5.6250 C.3       6 GLP5        0.0000 
     18 CA         27.1445   40.7265   -5.8055 C.3       3 GLC5        0.0000 
     19 CA         25.5190   39.4670   -6.5880 C.3       9 GLL5        0.0000 
     20 CA         28.7700   41.9860   -5.0230 C.3       6 GLP5        0.0000 
     21 CA         25.7395   36.7155   -6.9720 C.3       3 GLC5        0.0000 
     22 CA         26.6110   38.5450   -6.9830 C.3       9 GLL5        0.0000 
     23 CA         24.8680   34.8860   -6.9610 C.3       6 GLP5        0.0000 
     24 CA         25.0165   39.4910   -9.7015 C.3       3 GLC5        0.0000 
     25 CA         24.6390   39.7730   -7.8130 C.3       9 GLL5        0.0000 
     26 CA         25.3940   39.2090  -11.5900 C.3       6 GLP5        0.0000 
     27 CA         20.3455   35.7870   -0.1060 C.3       3 GLC5        0.0000 
     28 CA         21.0260   36.6080   -2.0530 C.3       9 GLL5        0.0000 
     29 CA         19.6650   34.9660    1.8410 C.3       6 GLP5        0.0000 
     30 N          20.8060   36.0275    0.4870 N.am      2 SEC2        0.0000 
     31 N          21.3780   35.7460   -0.9540 N.am      8 SEL2        0.0000 
     32 N          20.2340   36.3090    1.9280 N.am      5 SEP2        0.0000 
     33 CA         18.4550   38.8245   -2.8040 C.3       3 GLC5        0.0000 
     34 CA         20.3460   39.0080   -1.6220 C.3       9 GLL5        0.0000 
     35 CA         16.5640   38.6410   -3.9860 C.3       6 GLP5        0.0000 
     36 CA         20.2465   42.4410   -2.3020 C.3       3 GLC5        0.0000 
     37 CA         20.7280   40.4690   -1.4230 C.3       9 GLL5        0.0000 
     38 N          17.8465   40.6655   -3.0030 N.am      2 SEC2        0.0000 
     39 N          18.6970   41.3900   -2.1320 N.am      8 SEL2        0.0000 
     40 N          16.9960   39.9410   -3.8740 N.am      5 SEP2        0.0000 
     41 O          17.7705   42.2730    0.7170 O.2       1 ALC1        0.0000 
     42 O          19.2930   41.9080   -0.0620 O.2       7 ALL1        0.0000 
     43 O          16.2480   42.6380    1.4960 O.2       4 ALP1        0.0000 
     44 CA         23.0290   40.3032   -6.0503 C.3       3 GLC5        0.0000 
     45 CA         23.8560   39.6510   -4.4980 C.3       9 GLL5        0.0000 
     46 CA         21.7390   41.3660   -7.1470 C.3       6 GLP5        0.0000 
     47 CA         27.3655   37.8710   -6.6048 C.3       3 GLC5        0.0000 
     48 CA         28.6660   36.7360   -6.4240 C.3       6 GLP5        0.0000 
     49 CA         23.4090   40.4930   -7.1738 C.3       3 GLC5        0.0000 
     50 CA         20.4865   39.1693    0.5622 C.3       3 GLC5        0.0000 
     51 CA         20.4360   38.6000    2.6470 C.3       6 GLP5        0.0000 
     52 CA         20.5926   37.3801   -2.7343 C.3       3 GLC5        0.0000 
     53 CA         20.3740   36.5960   -3.6930 C.3       6 GLP5        0.0000 
@<TRIPOS>BOND
@<TRIPOS>SUBSTRUCTURE
     1 ALC1        4 GROUP        1 X    ALC  0     ROOT ALC X 1
     2 SEC2        9 GROUP        1 X    SEC  0     **** SEC X 2
     3 GLC5        1 GROUP        1 X    GLC  0     **** GLC X 6
     4 ALP1        6 GROUP        1 Y    ALP  0     ROOT ALP Y 8
     5 SEP2       11 GROUP        1 Y    SEP  0     **** SEP Y 9
     6 GLP5        3 GROUP        1 Y    GLP  0     **** GLP Y 13
     7 ALL1        5 GROUP        1 Z    ALL  0     ROOT ALL Z 15
     8 SEL2       10 GROUP        1 Z    SEL  0     **** SEL Z 16
     9 GLL5        2 GROUP        1 Z    GLL  0     **** GLL Z 20
@<TRIPOS>SET

