#    Name: 3sne_GLU_SER_THR_LEU_ACE_ECC_1_ligand
#    Modification time : Mon Mar 24 17:58:34 2014

@<TRIPOS>MOLECULE
3sne_GLU_SER_THR_LEU_ACE_ECC_1_ligand
   83    82     6     0     0
SMALL
NO_CHARGES


@<TRIPOS>ATOM
      1 N          27.7910   50.1990   -4.2310 N.am      1 GLU1        0.0000
      2 CA         28.1170   49.0220   -5.0790 C.3       1 GLU1        0.0000
      3 C          26.8460   48.2460   -5.5660 C.2       1 GLU1        0.0000
      4 O          25.9280   48.8320   -6.1360 O.2       1 GLU1        0.0000
      5 CB         29.1230   48.0700   -4.3500 C.3       1 GLU1        0.0000
      6 CG         30.6040   48.5520   -4.2510 C.3       1 GLU1        0.0000
      7 CD         31.4870   48.0560   -5.3990 C.2       1 GLU1        0.0000
      8 OE1        32.3130   47.1420   -5.1650 O.co2     1 GLU1        0.0000
      9 OE2        31.3560   48.5720   -6.5360 O.co2     1 GLU1        0.0000
     10 HNCA       27.3700   49.9049   -3.2759 H         1 GLU1        0.0000
     11 HA         28.6382   49.3751   -5.9913 H         1 GLU1        0.0000
     12 HB2        29.1078   47.0892   -4.8653 H         1 GLU1        0.0000
     13 HB3        28.7455   47.8861   -3.3246 H         1 GLU1        0.0000
     14 HG2        31.0160   48.2022   -3.2966 H         1 GLU1        0.0000
     15 HG3        30.6080   49.6487   -4.2354 H         1 GLU1        0.0000
     16 N          26.8260   46.9270   -5.3550 N.am      2 SER2        0.0000
     17 CA         25.6700   46.0670   -5.6550 C.3       2 SER2        0.0000
     18 C          25.7470   44.7730   -4.8260 C.2       2 SER2        0.0000
     19 O          26.8410   44.2290   -4.6180 O.2       2 SER2        0.0000
     20 CB         25.5970   45.7400   -7.1470 C.3       2 SER2        0.0000
     21 OG         24.3920   45.0590   -7.4330 O.3       2 SER2        0.0000
     22 HNCA       27.6575   46.4218   -4.9529 H         2 SER2        0.0000
     23 HA         24.7500   46.5781   -5.3768 H         2 SER2        0.0000
     24 HB2        26.4818   45.1381   -7.3963 H         2 SER2        0.0000
     25 HB3        25.6771   46.6880   -7.6966 H         2 SER2        0.0000
     26 HG         23.7894   45.2645   -6.6619 H         2 SER2        0.0000
     27 N          24.5890   44.2890   -4.3660 N.am      3 THR3        0.0000
     28 CA         24.5190   43.2290   -3.3440 C.3       3 THR3        0.0000
     29 C          23.7330   41.9950   -3.8160 C.2       3 THR3        0.0000
     30 O          22.5060   42.0060   -3.8380 O.2       3 THR3        0.0000
     31 CB         23.9250   43.7740   -1.9800 C.3       3 THR3        0.0000
     32 OG1        24.6090   44.9740   -1.5980 O.3       3 THR3        0.0000
     33 CG2        23.9990   42.7280   -0.8330 C.3       3 THR3        0.0000
     34 HNCA       23.6660   44.6378   -4.7079 H         3 THR3        0.0000
     35 HA         25.5435   42.8875   -3.1017 H         3 THR3        0.0000
     36 HB         22.8676   43.9825   -2.1649 H         3 THR3        0.0000
     37 HG21       24.9411   42.4524   -0.6419 H         3 THR3        0.0000
     38 HG22       23.6193   43.0851    0.0204 H         3 THR3        0.0000
     39 HG23       23.4897   41.8966   -1.0551 H         3 THR3        0.0000
     40 HG1        25.3654   45.0582   -2.2466 H         3 THR3        0.0000
     41 N          24.4600   40.9350   -4.1690 N.am      4 LEU4        0.0000
     42 CA         23.8560   39.6510   -4.4980 C.3       4 LEU4        0.0000
     43 C          23.5770   38.8630   -3.2150 C.2       4 LEU4        0.0000
     44 O          24.5170   38.3680   -2.5640 O.2       4 LEU4        0.0000
     45 CB         24.7820   38.8300   -5.4090 C.3       4 LEU4        0.0000
     46 CG         25.5190   39.4670   -6.5880 C.3       4 LEU4        0.0000
     47 CD1        26.6110   38.5450   -6.9830 C.3       4 LEU4        0.0000
     48 CD2        24.6390   39.7730   -7.8130 C.3       4 LEU4        0.0000
     49 HNCA       25.5024   40.9732   -4.2272 H         4 LEU4        0.0000
     50 HA         22.9175   39.7907   -5.0138 H         4 LEU4        0.0000
     51 HB2        24.1827   37.9488   -5.8057 H         4 LEU4        0.0000
     52 HB3        25.5541   38.3212   -4.7472 H         4 LEU4        0.0000
     53 HG         25.9687   40.3985   -6.2454 H         4 LEU4        0.0000
     54 HD11       27.1349   38.8999   -7.7573 H         4 LEU4        0.0000
     55 HD12       27.2582   38.3941   -6.2358 H         4 LEU4        0.0000
     56 HD13       26.2605   37.6481   -7.2527 H         4 LEU4        0.0000
     57 HD21       25.1664   40.1866   -8.5551 H         4 LEU4        0.0000
     58 HD22       24.2141   38.9459   -8.1810 H         4 LEU4        0.0000
     59 HD23       23.8995   40.4080   -7.5897 H         4 LEU4        0.0000
     60 C          27.9570   51.4620   -4.5190 C.2       5 ACE0        0.0000
     61 O          27.4580   51.9900   -5.5260 O.2       5 ACE0        0.0000
     62 CH3        28.4890   52.3020   -3.3800 C.3       5 ACE0        0.0000
     63 H          29.3821   51.9795   -3.0663 H         5 ACE0        0.0000
     64 H          28.5999   53.2598   -3.6452 H         5 ACE0        0.0000
     65 H          27.8771   52.2857   -2.5892 H         5 ACE0        0.0000
     66 C          21.0260   36.6080   -2.0530 C.3       6 ECC5        0.0000
     67 N          22.4180   38.4220   -2.9050 N.4       6 ECC5        0.0000
     68 O          21.3780   35.7460   -0.9540 O.3       6 ECC5        0.0000
     69 CA         21.5270   38.0330   -1.8050 C.3       6 ECC5        0.0000
     70 CB         20.3460   39.0080   -1.6220 C.3       6 ECC5        0.0000
     71 CD         19.4790   41.2890   -1.2280 C.2       6 ECC5        0.0000
     72 CG         20.7280   40.4690   -1.4230 C.3       6 ECC5        0.0000
     73 OE1        18.6970   41.3900   -2.1320 O.2       6 ECC5        0.0000
     74 NE2        19.2930   41.9080   -0.0620 N.am      6 ECC5        0.0000
     75 H          19.7759   37.0089   -1.5502 H         6 ECC5        0.0000
     76 H          22.0922   38.0156   -0.8675 H         6 ECC5        0.0000
     77 H          19.7458   38.6692   -0.7544 H         6 ECC5        0.0000
     78 H          19.6845   38.9240   -2.5069 H         6 ECC5        0.0000
     79 H          21.2658   40.8194   -2.2981 H         6 ECC5        0.0000
     80 H          21.3654   40.5551   -0.5488 H         6 ECC5        0.0000
     81 H          18.4358   42.4135    0.0360 H         6 ECC5        0.0000
     82 H          20.0274   41.8111    0.6097 H         6 ECC5        0.0000
     83 H          20.5805   35.1574   -0.8212 H         6 ECC5        0.0000
@<TRIPOS>BOND
     1    2    1 1
     2   10    1 1
     3    3    2 1
     4    5    2 1
     5   11    2 1
     6    4    3 2
     7    6    5 1
     8   12    5 1
     9   13    5 1
    10    7    6 1
    11   14    6 1
    12   15    6 1
    13    8    7 ar
    14    9    7 ar
    15   17   16 1
    16   22   16 1
    17   18   17 1
    18   20   17 1
    19   23   17 1
    20   19   18 2
    21   21   20 1
    22   24   20 1
    23   25   20 1
    24   26   21 1
    25   28   27 1
    26   34   27 1
    27   29   28 1
    28   31   28 1
    29   35   28 1
    30   30   29 2
    31   32   31 1
    32   33   31 1
    33   36   31 1
    34   40   32 1
    35   37   33 1
    36   38   33 1
    37   39   33 1
    38   42   41 1
    39   49   41 1
    40   43   42 1
    41   45   42 1
    42   50   42 1
    43   44   43 2
    44   46   45 1
    45   51   45 1
    46   52   45 1
    47   47   46 1
    48   48   46 1
    49   53   46 1
    50   54   47 1
    51   55   47 1
    52   56   47 1
    53   57   48 1
    54   58   48 1
    55   59   48 1
    56   61   60 2
    57   62   60 1
    58   63   62 1
    59   64   62 1
    60   65   62 1
    61   68   66 1
    62   69   66 1
    63   75   66 1
    64   69   67 1
    65   83   68 1
    66   70   69 1
    67   76   69 1
    68   72   70 1
    69   77   70 1
    70   78   70 1
    71   72   71 1
    72   73   71 2
    73   74   71 am
    74   79   72 1
    75   80   72 1
    76   81   74 1
    77   82   74 1
    78   60    1 1 
    79   16    3 am
    80   27   18 am
    81   41   29 am
    82   67   43 1 
@<TRIPOS>SUBSTRUCTURE
     1 GLU1        1 RESIDUE
     2 SER2       16 RESIDUE
     3 THR3       27 RESIDUE
     4 LEU4       41 RESIDUE
     5 ACE0       60 GROUP
     6 ECC5       66 GROUP
@<TRIPOS>SET

