#    Name: 1ib0_FAD_1_INTS_M
#    Modification time : Tue Mar 25 06:52:29 2014

@<TRIPOS>MOLECULE
1ib0_FAD_1_INTS_M
   99     0    12     0     0
SMALL
NO_CHARGES


@<TRIPOS>ATOM
      1 NZ         21.8305    3.0735   25.7635 N.4       3 LYC4        0.0000 
      2 NZ         22.3220    2.1830   26.9160 N.4      11 LYL4        0.0000 
      3 NZ         20.1140    4.1070   25.1020 N.4       7 LYP4        0.0000 
      4 N          21.1240    3.1770   26.6700 N.am      2 SEC2        0.0000 
      5 N          22.3220    2.1830   26.9160 N.am     10 SEL2        0.0000 
      6 N          19.9260    4.1710   26.4240 N.am      6 SEP2        0.0000 
      7 N          21.8305    3.0735   25.7635 N.am      2 SEC2        0.0000 
      8 N          21.3390    3.9640   24.6110 N.am      6 SEP2        0.0000 
      9 N          25.0340    4.8390   27.0470 N.am      2 SEC2        0.0000 
     10 N          24.5770    3.4670   26.4660 N.am     10 SEL2        0.0000 
     11 N          25.4910    6.2110   27.6280 N.am      6 SEP2        0.0000 
     12 CA         25.9905    2.8030   28.6840 C.3       4 GLC5        0.0000 
     13 CA         25.3900    0.8480   28.1160 C.3      12 GLL5        0.0000 
     14 CA         26.5910    4.7580   29.2520 C.3       8 GLP5        0.0000 
     15 CA         26.9065   -2.2410   27.5915 C.3       4 GLC5        0.0000 
     16 CA         25.3550   -0.7410   28.0350 C.3      12 GLL5        0.0000 
     17 CA         28.4580   -3.7410   27.1480 C.3       8 GLP5        0.0000 
     18 CA         28.4685   -2.3905   29.5935 C.3       4 GLC5        0.0000 
     19 CA         26.8990   -1.5670   29.7880 C.3      12 GLL5        0.0000 
     20 CA         30.0380   -3.2140   29.3990 C.3       8 GLP5        0.0000 
     21 CA         29.8000    2.2055   30.4975 C.3       4 GLC5        0.0000 
     22 CA         29.3140    0.4760   31.7430 C.3      12 GLL5        0.0000 
     23 CA         30.2860    3.9350   29.2520 C.3       8 GLP5        0.0000 
     24 CA         31.0695   -1.6000   33.0765 C.3       4 GLC5        0.0000 
     25 CA         29.1800   -1.3500   33.7600 C.3      12 GLL5        0.0000 
     26 CA         32.9590   -1.8500   32.3930 C.3       8 GLP5        0.0000 
     27 N          20.3670    4.9995   36.9680 N.am      2 SEC2        0.0000 
     28 N          19.0450    4.5830   36.1040 N.am     10 SEL2        0.0000 
     29 N          21.6890    5.4160   37.8320 N.am      6 SEP2        0.0000 
     30 O          17.1505    5.5265   37.8990 O.2       1 ALC1        0.0000 
     31 O          16.8980    4.6640   36.7650 O.2       9 ALL1        0.0000 
     32 O          17.4030    6.3890   39.0330 O.2       5 ALP1        0.0000 
     33 N          14.0130    3.7315   37.7790 N.am      2 SEC2        0.0000 
     34 N          14.8290    4.8150   37.3840 N.am     10 SEL2        0.0000 
     35 N          13.1970    2.6480   38.1740 N.am      6 SEP2        0.0000 
     36 N          12.8095    4.2025   35.3180 N.am      2 SEC2        0.0000 
     37 N          13.8850    3.0940   35.1330 N.am     10 SEL2        0.0000 
     38 N          11.7340    5.3110   35.5030 N.am      6 SEP2        0.0000 
     39 CA         11.2405    2.8780   35.3760 C.3       4 GLC5        0.0000 
     40 CA         12.2630    1.7900   33.8150 C.3      12 GLL5        0.0000 
     41 CA         10.2180    3.9660   36.9370 C.3       8 GLP5        0.0000 
     42 CA         12.1770    2.1420   31.1545 C.3       4 GLC5        0.0000 
     43 CA         11.9800    0.8370   32.8080 C.3      12 GLL5        0.0000 
     44 CA         12.3740    3.4470   29.5010 C.3       8 GLP5        0.0000 
     45 CA          9.4610    1.9440   31.9205 C.3       4 GLC5        0.0000 
     46 CA         10.5510    0.4280   32.5640 C.3      12 GLL5        0.0000 
     47 CA          8.3710    3.4600   31.2770 C.3       8 GLP5        0.0000 
     48 CA          9.7845   -1.4085   33.1050 C.3       4 GLC5        0.0000 
     49 CA          9.0180   -3.2450   33.6460 C.3       8 GLP5        0.0000 
     50 CA         12.8670   -1.9000   32.8275 C.3       4 GLC5        0.0000 
     51 CA         12.9410   -0.7670   30.9060 C.3      12 GLL5        0.0000 
     52 CA         12.7930   -3.0330   34.7490 C.3       8 GLP5        0.0000 
     53 CA         17.0810   -0.2000   32.6120 C.3       4 GLC5        0.0000 
     54 CA         17.0090    1.5460   32.6860 C.3      12 GLL5        0.0000 
     55 CA         17.1530   -1.9460   32.5380 C.3       8 GLP5        0.0000 
     56 CA         17.6660    4.5250   32.6395 C.3       4 GLC5        0.0000 
     57 CA         17.9410    2.5890   32.0720 C.3      12 GLL5        0.0000 
     58 CA         17.3910    6.4610   33.2070 C.3       8 GLP5        0.0000 
     59 O          15.8095    3.9490   31.4380 O.2       1 ALC1        0.0000 
     60 O          17.1620    3.4540   31.2050 O.2       9 ALL1        0.0000 
     61 O          14.4570    4.4440   31.6710 O.2       5 ALP1        0.0000 
     62 CA         19.8470    3.6170   28.6945 C.3       4 GLC5        0.0000 
     63 CA         21.0640    2.8500   30.3250 C.3      12 GLL5        0.0000 
     64 CA         18.6300    4.3840   27.0640 C.3       8 GLP5        0.0000 
     65 CA         22.4135    2.3035   31.9310 C.3       4 GLC5        0.0000 
     66 CA         23.7630    1.7570   33.5370 C.3       8 GLP5        0.0000 
     67 N          20.7065    4.1105   27.9390 N.am      2 SEC2        0.0000 
     68 N          21.4870    4.0500   29.4540 N.am     10 SEL2        0.0000 
     69 NZ         21.0910    4.8235   27.1490 N.4       3 LYC4        0.0000 
     70 NZ         22.2560    5.4760   27.8740 N.4      11 LYL4        0.0000 
     71 N          21.0910    4.8235   27.1490 N.am      2 SEC2        0.0000 
     72 N          22.2560    5.4760   27.8740 N.am     10 SEL2        0.0000 
     73 N          22.6540    6.7420   27.9055 N.am      2 SEC2        0.0000 
     74 N          23.0520    8.0080   27.9370 N.am      6 SEP2        0.0000 
     75 N          23.2070    6.6715   30.4315 N.am      2 SEC2        0.0000 
     76 N          23.3370    5.3130   30.1280 N.am     10 SEL2        0.0000 
     77 N          23.0770    8.0300   30.7350 N.am      6 SEP2        0.0000 
     78 N          24.0500    5.7300   31.1550 N.am      2 SEC2        0.0000 
     79 N          24.7630    6.1470   32.1820 N.am      6 SEP2        0.0000 
     80 N          24.5355    4.8500   28.0780 N.am      2 SEC2        0.0000 
     81 N          23.5800    3.4890   28.5280 N.am     10 SEL2        0.0000 
     82 CA         31.3295   -0.6233   32.3738 C.3       4 GLC5        0.0000 
     83 CA         29.9130   -0.5978   30.0328 C.3       4 GLC5        0.0000 
     84 CA         30.9250   -1.0830   28.3750 C.3       8 GLP5        0.0000 
     85 CA         28.1165    1.6341   32.3266 C.3       4 GLC5        0.0000 
     86 CA         27.1390    3.3170   32.6570 C.3       8 GLP5        0.0000 
     87 CA         12.9552    3.9328   33.7218 C.3       4 GLC5        0.0000 
     88 CA         13.6040    2.2170   34.0900 C.3      12 GLL5        0.0000 
     89 CA         12.9770    5.8620   33.4910 C.3       8 GLP5        0.0000 
     90 CA         11.9217    0.9617   35.2773 C.3       4 GLC5        0.0000 
     91 CA         10.9100   -0.0800   36.6020 C.3       8 GLP5        0.0000 
     92 CA         11.0877    0.2762   34.6440 C.3       4 GLC5        0.0000 
     93 CA         12.6558   -1.2420   33.5785 C.3       4 GLC5        0.0000 
     94 CA         13.2955    1.1540   30.3035 C.3       4 GLC5        0.0000 
     95 CA         13.0570    0.2610   32.0080 C.3      12 GLL5        0.0000 
     96 CA         13.5920    2.5610   29.1500 C.3       8 GLP5        0.0000 
     97 CA         14.0525    1.8660   30.9537 C.3       4 GLC5        0.0000 
     98 CA         14.3680    0.6870   32.2490 C.3      12 GLL5        0.0000 
     99 CA         15.8330   -0.3875   32.6478 C.3       4 GLC5        0.0000 
@<TRIPOS>BOND
@<TRIPOS>SUBSTRUCTURE
     1 ALC1       30 GROUP        1 X    ALC  0     ROOT ALC X 1
     2 SEC2        4 GROUP        1 X    SEC  0     **** SEC X 2
     3 LYC4        1 GROUP        1 X    LYC  0     **** LYC X 4
     4 GLC5       12 GROUP        1 X    GLC  0     **** GLC X 6
     5 ALP1       32 GROUP        1 Y    ALP  0     ROOT ALP Y 8
     6 SEP2        6 GROUP        1 Y    SEP  0     **** SEP Y 9
     7 LYP4        3 GROUP        1 Y    LYP  0     **** LYP Y 11
     8 GLP5       14 GROUP        1 Y    GLP  0     **** GLP Y 13
     9 ALL1       31 GROUP        1 Z    ALL  0     ROOT ALL Z 15
    10 SEL2        5 GROUP        1 Z    SEL  0     **** SEL Z 16
    11 LYL4        2 GROUP        1 Z    LYL  0     **** LYL Z 18
    12 GLL5       13 GROUP        1 Z    GLL  0     **** GLL Z 20
@<TRIPOS>SET

