#    Name: 1ib0_FAD_1_ligand
#    Modification time : Tue Mar 25 06:52:29 2014

@<TRIPOS>MOLECULE
1ib0_FAD_1_ligand
   83    88     1     0     0
SMALL
NO_CHARGES


@<TRIPOS>ATOM
      1 PA         23.7220    2.6600   27.1110 P.3       1 FAD301      0.0000 
      2 O1A        22.3220    2.1830   26.9160 O.co2     1 FAD301      0.0000 
      3 O2A        24.5770    3.4670   26.4660 O.co2     1 FAD301      0.0000 
      4 O5B        24.0970    1.3450   27.6880 O.3       1 FAD301      0.0000 
      5 C5B        25.3900    0.8480   28.1160 C.3       1 FAD301      0.0000 
      6 C4B        25.3550   -0.7410   28.0350 C.3       1 FAD301      0.0000 
      7 O4B        26.7350   -1.2020   28.3850 O.3       1 FAD301      0.0000 
      8 C3B        24.5630   -1.6120   29.0820 C.3       1 FAD301      0.0000 
      9 O3B        24.3220   -2.9160   28.5870 O.3       1 FAD301      0.0000 
     10 C2B        25.4980   -1.6130   30.3370 C.3       1 FAD301      0.0000 
     11 O2B        25.3220   -2.8300   31.0170 O.3       1 FAD301      0.0000 
     12 C1B        26.8990   -1.5670   29.7880 C.3       1 FAD301      0.0000 
     13 N9A        27.8680   -0.6090   30.3770 N.pl3     1 FAD301      0.0000 
     14 C8A        28.3360    0.5700   29.7680 C.2       1 FAD301      0.0000 
     15 N7A        29.1580    1.1130   30.6320 N.2       1 FAD301      0.0000 
     16 C5A        29.3140    0.4760   31.7430 C.ar      1 FAD301      0.0000 
     17 C6A        30.0860    0.7310   32.9660 C.ar      1 FAD301      0.0000 
     18 N6A        30.8350    1.7730   33.1950 N.pl3     1 FAD301      0.0000 
     19 N1A        29.9750   -0.2320   33.9460 N.ar      1 FAD301      0.0000 
     20 C2A        29.1800   -1.3500   33.7600 C.ar      1 FAD301      0.0000 
     21 N3A        28.4190   -1.6450   32.6600 N.ar      1 FAD301      0.0000 
     22 C4A        28.4880   -0.7010   31.6380 C.ar      1 FAD301      0.0000 
     23 N1         17.6020    3.3720   34.8930 N.2       1 FAD301      0.0000 
     24 C2         17.9290    4.2120   35.8820 C.2       1 FAD301      0.0000 
     25 O2         19.0450    4.5830   36.1040 O.2       1 FAD301      0.0000 
     26 N3         16.8980    4.6640   36.7650 N.am      1 FAD301      0.0000 
     27 C4         15.5770    4.3310   36.5780 C.2       1 FAD301      0.0000 
     28 O4         14.8290    4.8150   37.3840 O.2       1 FAD301      0.0000 
     29 C4X        15.1750    3.4750   35.4410 C.2       1 FAD301      0.0000 
     30 N5         13.8850    3.0940   35.1330 N.2       1 FAD301      0.0000 
     31 C5X        13.6040    2.2170   34.0900 C.ar      1 FAD301      0.0000 
     32 C6         12.2630    1.7900   33.8150 C.ar      1 FAD301      0.0000 
     33 C7         11.9800    0.8370   32.8080 C.ar      1 FAD301      0.0000 
     34 C7M        10.5510    0.4280   32.5640 C.3       1 FAD301      0.0000 
     35 C8         13.0570    0.2610   32.0080 C.ar      1 FAD301      0.0000 
     36 C8M        12.9410   -0.7670   30.9060 C.3       1 FAD301      0.0000 
     37 C9         14.3680    0.6870   32.2490 C.ar      1 FAD301      0.0000 
     38 C9A        14.6580    1.6550   33.2660 C.ar      1 FAD301      0.0000 
     39 N10        15.9930    2.1190   33.6080 N.pl3     1 FAD301      0.0000 
     40 C10        16.3070    2.9720   34.6330 C.2       1 FAD301      0.0000 
     41 C1'        17.0090    1.5460   32.6860 C.3       1 FAD301      0.0000 
     42 C2'        17.9410    2.5890   32.0720 C.3       1 FAD301      0.0000 
     43 O2'        17.1620    3.4540   31.2050 O.3       1 FAD301      0.0000 
     44 C3'        19.0450    2.0850   31.1810 C.3       1 FAD301      0.0000 
     45 O3'        19.7010    0.8880   31.6010 O.3       1 FAD301      0.0000 
     46 C4'        20.0540    3.2280   31.3630 C.3       1 FAD301      0.0000 
     47 O4'        19.8620    4.6410   31.4630 O.3       1 FAD301      0.0000 
     48 C5'        21.0640    2.8500   30.3250 C.3       1 FAD301      0.0000 
     49 O5'        21.4870    4.0500   29.4540 O.3       1 FAD301      0.0000 
     50 P          22.7630    4.6260   29.0420 P.3       1 FAD301      0.0000 
     51 O1P        22.2560    5.4760   27.8740 O.co2     1 FAD301      0.0000 
     52 O2P        23.3370    5.3130   30.1280 O.co2     1 FAD301      0.0000 
     53 O3P        23.5800    3.4890   28.5280 O.3       1 FAD301      0.0000 
     54 H          25.6100    1.1019   29.1423 H         1 FAD301      0.0000 
     55 H          26.1914    1.1744   27.4700 H         1 FAD301      0.0000 
     56 H          25.1440   -1.0753   27.0633 H         1 FAD301      0.0000 
     57 H          23.6887   -1.0630   29.3383 H         1 FAD301      0.0000 
     58 H          25.2977   -0.7612   30.8975 H         1 FAD301      0.0000 
     59 H          27.3144   -2.5767   29.8084 H         1 FAD301      0.0000 
     60 H          28.0743    0.8604   28.9066 H         1 FAD301      0.0000 
     61 H          29.1615   -2.0632   34.5731 H         1 FAD301      0.0000 
     62 H          17.1806    5.2623   37.5668 H         1 FAD301      0.0000 
     63 H          11.4937    2.1909   34.3676 H         1 FAD301      0.0000 
     64 H          15.1468    0.3082   31.6953 H         1 FAD301      0.0000 
     65 H          16.5070    1.0024   31.8638 H         1 FAD301      0.0000 
     66 H          17.6268    0.8017   33.2224 H         1 FAD301      0.0000 
     67 H          18.3730    3.1951   32.8575 H         1 FAD301      0.0000 
     68 H          18.7414    2.1047   30.1808 H         1 FAD301      0.0000 
     69 H          20.6477    2.8710   32.3367 H         1 FAD301      0.0000 
     70 H          20.6542    2.0742   29.6660 H         1 FAD301      0.0000 
     71 H          21.9616    2.4400   30.8049 H         1 FAD301      0.0000 
     72 H          10.4782   -0.2476   31.8303 H         1 FAD301      0.0000 
     73 H          10.1367    0.0220   33.3785 H         1 FAD301      0.0000 
     74 H           9.9812    1.2071   32.3027 H         1 FAD301      0.0000 
     75 H          13.8326   -0.9928   30.5134 H         1 FAD301      0.0000 
     76 H          12.5411   -1.6220   31.2363 H         1 FAD301      0.0000 
     77 H          12.3638   -0.4439   30.1560 H         1 FAD301      0.0000 
     78 H          23.3608   -3.0979   28.7943 H         1 FAD301      0.0000 
     79 H          24.9006   -3.4418   30.3476 H         1 FAD301      0.0000 
     80 H          30.6881    1.9902   34.1600 H         1 FAD301      0.0000 
     81 H          16.3031    3.6051   31.6944 H         1 FAD301      0.0000 
     82 H          20.6466    0.9891   31.2917 H         1 FAD301      0.0000 
     83 H          18.8773    4.7767   31.3532 H         1 FAD301      0.0000 
@<TRIPOS>BOND
     1    2    1 ar   
     2    3    1 ar   
     3    4    1 1    
     4   53    1 1    
     5    5    4 1    
     6    6    5 1    
     7   54    5 1    
     8   55    5 1    
     9    7    6 1    
    10    8    6 1    
    11   56    6 1    
    12   12    7 1    
    13    9    8 1    
    14   10    8 1    
    15   57    8 1    
    16   78    9 1    
    17   11   10 1    
    18   12   10 1    
    19   58   10 1    
    20   79   11 1    
    21   13   12 1    
    22   59   12 1    
    23   14   13 1    
    24   22   13 1    
    25   15   14 2    
    26   60   14 1    
    27   16   15 1    
    28   17   16 ar   
    29   22   16 ar   
    30   18   17 1    
    31   19   17 ar   
    32   80   18 1    
    33   20   19 ar   
    34   21   20 ar   
    35   61   20 1    
    36   22   21 ar   
    37   24   23 1    
    38   40   23 2    
    39   25   24 2    
    40   26   24 am   
    41   27   26 am   
    42   62   26 1    
    43   28   27 2    
    44   29   27 1    
    45   30   29 2    
    46   40   29 1    
    47   31   30 1    
    48   32   31 ar   
    49   38   31 ar   
    50   33   32 ar   
    51   63   32 1    
    52   34   33 1    
    53   35   33 ar   
    54   72   34 1    
    55   73   34 1    
    56   74   34 1    
    57   36   35 1    
    58   37   35 ar   
    59   75   36 1    
    60   76   36 1    
    61   77   36 1    
    62   38   37 ar   
    63   64   37 1    
    64   39   38 1    
    65   40   39 1    
    66   41   39 1    
    67   42   41 1    
    68   65   41 1    
    69   66   41 1    
    70   43   42 1    
    71   44   42 1    
    72   67   42 1    
    73   81   43 1    
    74   45   44 1    
    75   46   44 1    
    76   68   44 1    
    77   82   45 1    
    78   47   46 1    
    79   48   46 1    
    80   69   46 1    
    81   83   47 1    
    82   49   48 1    
    83   70   48 1    
    84   71   48 1    
    85   50   49 1    
    86   51   50 ar   
    87   52   50 ar   
    88   53   50 1    
@<TRIPOS>SUBSTRUCTURE
     1 FAD301      1 GROUP   
@<TRIPOS>SET

