#    Name: 1TY8_1_CAVITY_N1_ALL.mol2
#    Modification time : Tue Mar 11 12:35:32 2014

@<TRIPOS>MOLECULE
1TY8_1_CAVITY_N1_ALL.mol2
   81     0     6     0     0
SMALL
NO_CHARGES


@<TRIPOS>ATOM
      1 N          37.7291    1.1969   14.2749 N.2       2 ALA2        0.0000 
      2 O          38.9143    1.7770   13.5614 O.2       2 ALA2        0.0000 
      3 CA         37.6469    2.4384   11.9941 C.3       5 GLY6        0.0000 
      4 CA         38.4263    1.1872   12.2714 C.3       5 GLY6        0.0000 
      5 CA         39.2057   -0.0641   12.5488 C.3       5 GLY6        0.0000 
      6 OG         46.9238   -0.3601   21.9744 O.2       1 SER1        0.0000 
      7 OG         47.7032   -1.6114   22.2518 O.2       1 SER1        0.0000 
      8 CA         45.6565    0.3013   20.4071 C.3       5 GLY6        0.0000 
      9 DU         46.4359   -0.9500   20.6845 H         6 CUB7        0.0000 
     10 DU         47.2153   -2.2012   20.9618 H         6 CUB7        0.0000 
     11 CA         45.1686   -0.2886   19.1171 C.3       5 GLY6        0.0000 
     12 CA         45.9480   -1.5398   19.3945 C.3       5 GLY6        0.0000 
     13 CZ         44.6807   -0.8784   17.8272 C.ar      4 PHE5        0.0000 
     14 O          40.0994    2.3571   12.8479 O.2       2 ALA2        0.0000 
     15 CA         40.8788    1.1058   13.1252 C.3       5 GLY6        0.0000 
     16 O          38.8320    3.0185   11.2806 O.2       2 ALA2        0.0000 
     17 CA         39.6114    1.7672   11.5579 C.3       5 GLY6        0.0000 
     18 CA         38.3441    2.4286    9.9906 C.3       5 GLY6        0.0000 
     19 O          47.3296    1.4712   20.9836 O.2       2 ALA2        0.0000 
     20 OG         48.1089    0.2199   21.2609 O.2       1 SER1        0.0000 
     21 NZ         48.8883   -1.0313   21.5383 N.2       3 LYS4        0.0000 
     22 O          46.8416    0.8813   19.6936 O.2       2 ALA2        0.0000 
     23 DU         47.6210   -0.3699   19.9710 H         6 CUB7        0.0000 
     24 DU         48.4004   -1.6212   20.2483 H         6 CUB7        0.0000 
     25 N          49.1798   -2.8724   20.5256 N.2       2 ALA2        0.0000 
     26 CA         46.3537    0.2915   18.4037 C.3       5 GLY6        0.0000 
     27 CA         47.1331   -0.9598   18.6810 C.3       5 GLY6        0.0000 
     28 CA         47.9125   -2.2110   18.9583 C.3       5 GLY6        0.0000 
     29 CA         45.8658   -0.2984   17.1137 C.3       5 GLY6        0.0000 
     30 CZ         44.5985    0.3630   15.5464 C.ar      4 PHE5        0.0000 
     31 N          41.7724    3.5269   13.4244 N.2       2 ALA2        0.0000 
     32 N          42.5518    2.2757   13.7017 N.2       2 ALA2        0.0000 
     33 N          43.3312    1.0244   13.9791 N.2       2 ALA2        0.0000 
     34 O          41.2845    2.9371   12.1344 O.2       2 ALA2        0.0000 
     35 CA         42.0639    1.6859   12.4118 C.3       5 GLY6        0.0000 
     36 CZ         42.8433    0.4346   12.6891 C.ar      4 PHE5        0.0000 
     37 O          40.7965    2.3473   10.8445 O.2       2 ALA2        0.0000 
     38 CA         41.5759    1.0960   11.1218 C.3       5 GLY6        0.0000 
     39 CA         47.7353    3.3025   19.9928 C.3       5 GLY6        0.0000 
     40 CZ         48.5147    2.0512   20.2701 C.ar      4 PHE5        0.0000 
     41 NZ         49.2941    0.8000   20.5475 N.2       3 LYS4        0.0000 
     42 O          48.0267    1.4614   18.9801 O.2       2 ALA2        0.0000 
     43 NZ         48.8061    0.2101   19.2575 N.2       3 LYS4        0.0000 
     44 NZ         49.5855   -1.0411   19.5348 N.2       3 LYS4        0.0000 
     45 O          47.5388    0.8715   17.6902 O.2       2 ALA2        0.0000 
     46 CA         48.3182   -0.3797   17.9675 C.3       5 GLY6        0.0000 
     47 O          45.4921    2.7842   15.8455 O.2       2 ALA2        0.0000 
     48 O          46.2715    1.5329   16.1229 O.2       2 ALA2        0.0000 
     49 CA         47.0509    0.2817   16.4002 C.3       5 GLY6        0.0000 
     50 N          44.2248    3.4456   14.2782 N.2       2 ALA2        0.0000 
     51 N          45.0042    2.1943   14.5556 N.2       2 ALA2        0.0000 
     52 CZ         45.7836    0.9431   14.8329 C.ar      4 PHE5        0.0000 
     53 O          46.5630   -0.3082   15.1102 O.2       2 ALA2        0.0000 
     54 N          43.7369    2.8558   12.9883 N.2       2 ALA2        0.0000 
     55 N          44.5163    1.6045   13.2656 N.2       2 ALA2        0.0000 
     56 CA         45.2957    0.3533   13.5429 C.3       5 GLY6        0.0000 
     57 O          43.2490    2.2659   11.6983 O.2       2 ALA2        0.0000 
     58 CA         44.0284    1.0147   11.9756 C.3       5 GLY6        0.0000 
     59 CA         44.8078   -0.2366   12.2530 C.3       5 GLY6        0.0000 
     60 O          42.7611    1.6761   10.4083 O.2       2 ALA2        0.0000 
     61 CA         43.5404    0.4248   10.6856 C.3       5 GLY6        0.0000 
     62 CA         44.3198   -0.8264   10.9630 C.3       5 GLY6        0.0000 
     63 N          49.2118    2.0414   18.2667 N.2       2 ALA2        0.0000 
     64 N          49.9912    0.7902   18.5440 N.2       2 ALA2        0.0000 
     65 CA         47.9445    2.7028   16.6994 C.3       5 GLY6        0.0000 
     66 N          48.7239    1.4516   16.9767 N.2       2 ALA2        0.0000 
     67 O          49.5033    0.2003   17.2540 O.2       2 ALA2        0.0000 
     68 N          46.6772    3.3642   15.1320 N.2       2 ALA2        0.0000 
     69 CA         47.4566    2.1130   15.4094 C.3       5 GLY6        0.0000 
     70 O          48.2360    0.8617   15.6867 O.2       2 ALA2        0.0000 
     71 N          46.9687    1.5231   14.1194 N.2       2 ALA2        0.0000 
     72 O          47.7481    0.2719   14.3968 O.2       2 ALA2        0.0000 
     73 N          45.7014    2.1846   12.5521 N.2       2 ALA2        0.0000 
     74 N          46.4808    0.9333   12.8294 N.2       2 ALA2        0.0000 
     75 O          47.2602   -0.3179   13.1068 O.2       2 ALA2        0.0000 
     76 CA         44.4341    2.8460   10.9848 C.3       5 GLY6        0.0000 
     77 CA         45.2135    1.5947   11.2621 C.3       5 GLY6        0.0000 
     78 OG         45.9929    0.3435   11.5395 O.2       1 SER1        0.0000 
     79 O          46.7723   -0.9078   11.8168 O.2       2 ALA2        0.0000 
     80 N          48.1538    2.1032   13.4059 N.2       2 ALA2        0.0000 
     81 OG         48.4453    0.2621   12.3933 O.2       1 SER1        0.0000 
@<TRIPOS>BOND
@<TRIPOS>SUBSTRUCTURE
     1 SER1        6 GROUP   
     2 ALA2        1 GROUP   
     3 LYS4       21 GROUP   
     4 PHE5       13 GROUP   
     5 GLY6        3 GROUP   
     6 CUB7        9 GROUP   
@<TRIPOS>SET

