#    Name: 1ty8_ADP_1_INTS_M
#    Modification time : Tue Mar 25 05:46:28 2014

@<TRIPOS>MOLECULE
1ty8_ADP_1_INTS_M
   58     0     9     0     0
SMALL
NO_CHARGES


@<TRIPOS>ATOM
      1 N          49.0990    1.3285   11.2780 N.am      2 SEC2        0.0000 
      2 N          49.3990    0.7370   12.4960 N.am      8 SEL2        0.0000 
      3 N          48.7990    1.9200   10.0600 N.am      5 SEP2        0.0000 
      4 N          50.8140    0.3720   12.8440 N.am      2 SEC2        0.0000 
      5 N          52.2290    0.0070   13.1920 N.am      5 SEP2        0.0000 
      6 N          49.1370   -1.9710   14.9415 N.am      2 SEC2        0.0000 
      7 N          48.8420   -1.1770   13.9260 N.am      8 SEL2        0.0000 
      8 N          49.4320   -2.7650   15.9570 N.am      5 SEP2        0.0000 
      9 N          48.1255   -2.3335   13.1380 N.am      2 SEC2        0.0000 
     10 N          47.4090   -3.4900   12.3500 N.am      5 SEP2        0.0000 
     11 N          45.7575    2.8500   17.1455 N.am      2 SEC2        0.0000 
     12 N          46.2280    2.1480   16.0100 N.am      8 SEL2        0.0000 
     13 N          45.2870    3.5520   18.2810 N.am      5 SEP2        0.0000 
     14 N          46.2320   -1.6155   15.3270 N.am      2 SEC2        0.0000 
     15 N          46.1710   -0.2390   15.7980 N.am      8 SEL2        0.0000 
     16 N          46.2930   -2.9920   14.8560 N.am      5 SEP2        0.0000 
     17 CA         49.2860    2.6995   15.8155 C.3       3 GLC5        0.0000 
     18 CA         49.4360    0.8730   16.9540 C.3       9 GLL5        0.0000 
     19 CA         49.1360    4.5260   14.6770 C.3       6 GLP5        0.0000 
     20 CA         48.7625   -1.0490   16.7125 C.3       3 GLC5        0.0000 
     21 CA         48.0890   -2.9710   16.4710 C.3       6 GLP5        0.0000 
     22 CA         52.0645    1.2015   18.2065 C.3       3 GLC5        0.0000 
     23 CA         49.9640    0.8110   18.4140 C.3       9 GLL5        0.0000 
     24 CA         54.1650    1.5920   17.9990 C.3       6 GLP5        0.0000 
     25 CA         51.3315   -1.6240   18.0875 C.3       3 GLC5        0.0000 
     26 CA         49.8640   -0.5350   19.1630 C.3       9 GLL5        0.0000 
     27 CA         52.7990   -2.7130   17.0120 C.3       6 GLP5        0.0000 
     28 CA         48.9765   -1.7530   17.8170 C.3       3 GLC5        0.0000 
     29 N          51.8695   -1.1565   18.4730 N.am      2 SEC2        0.0000 
     30 N          51.1470   -0.9800   19.6090 N.am      8 SEL2        0.0000 
     31 N          52.5920   -1.3330   17.3370 N.am      5 SEP2        0.0000 
     32 O          51.3525   -0.5455   21.1025 O.2       1 ALC1        0.0000 
     33 O          51.1470   -0.9800   19.6090 O.2       7 ALL1        0.0000 
     34 O          51.5580   -0.1110   22.5960 O.2       4 ALP1        0.0000 
     35 O          51.7615   -0.0110   20.2340 O.2       1 ALC1        0.0000 
     36 O          52.3760    0.9580   20.8590 O.2       4 ALP1        0.0000 
     37 O          50.3440   -0.6180   22.0335 O.2       1 ALC1        0.0000 
     38 O          49.1300   -1.1250   21.4710 O.2       7 ALL1        0.0000 
     39 CA         46.9825    4.7635   25.3410 C.3       3 GLC5        0.0000 
     40 CA         46.3400    4.2140   23.3220 C.3       9 GLL5        0.0000 
     41 CA         47.6250    5.3130   27.3600 C.3       6 GLP5        0.0000 
     42 CA         45.1825    5.9500   22.6070 C.3       3 GLC5        0.0000 
     43 CA         44.0250    7.6860   21.8920 C.3       6 GLP5        0.0000 
     44 N          47.5820    5.9800   24.9130 N.am      2 SEC2        0.0000 
     45 N          47.4440    4.7770   23.9720 N.am      8 SEL2        0.0000 
     46 N          47.7200    7.1830   25.8540 N.am      5 SEP2        0.0000 
     47 CA         50.2045    5.6120   24.2765 C.3       3 GLC5        0.0000 
     48 CA         48.7300    4.3870   23.7020 C.3       9 GLL5        0.0000 
     49 CA         51.6790    6.8370   24.8510 C.3       6 GLP5        0.0000 
     50 CA         50.5100    3.4975   23.7695 C.3       3 GLC5        0.0000 
     51 CA         52.2900    2.6080   23.8370 C.3       6 GLP5        0.0000 
     52 CA         48.2955    3.1145   25.0035 C.3       3 GLC5        0.0000 
     53 CA         47.8610    1.8420   26.3050 C.3       6 GLP5        0.0000 
     54 CA         48.1775    4.8500   25.5310 C.3       3 GLC5        0.0000 
     55 CA         46.5050    3.9280   20.4630 C.3       3 GLC5        0.0000 
     56 CA         46.5300    3.2110   22.3490 C.3       9 GLL5        0.0000 
     57 CA         45.8100    4.8400   18.7100 C.3       6 GLP5        0.0000 
     58 CA         47.5067    2.5544   24.3821 C.3       3 GLC5        0.0000 
@<TRIPOS>BOND
@<TRIPOS>SUBSTRUCTURE
     1 ALC1       32 GROUP        1 X    ALC  0     ROOT ALC X 1
     2 SEC2        1 GROUP        1 X    SEC  0     **** SEC X 2
     3 GLC5       17 GROUP        1 X    GLC  0     **** GLC X 6
     4 ALP1       34 GROUP        1 Y    ALP  0     ROOT ALP Y 8
     5 SEP2        3 GROUP        1 Y    SEP  0     **** SEP Y 9
     6 GLP5       19 GROUP        1 Y    GLP  0     **** GLP Y 13
     7 ALL1       33 GROUP        1 Z    ALL  0     ROOT ALL Z 15
     8 SEL2        2 GROUP        1 Z    SEL  0     **** SEL Z 16
     9 GLL5       18 GROUP        1 Z    GLL  0     **** GLL Z 20
@<TRIPOS>SET

