#    Name: 1ty8_ADP_1_ligand
#    Modification time : Tue Mar 25 05:46:28 2014

@<TRIPOS>MOLECULE
1ty8_ADP_1_ligand
   39    41     1     0     0
SMALL
NO_CHARGES


@<TRIPOS>ATOM
      1 PB         48.3480    0.0900   13.3280 P.3       1 ADP285      0.0000 
      2 O1B        49.3990    0.7370   12.4960 O.co2     1 ADP285      0.0000 
      3 O2B        47.0340   -0.2040   12.4620 O.co2     1 ADP285      0.0000 
      4 O3B        48.8420   -1.1770   13.9260 O.co2     1 ADP285      0.0000 
      5 PA         47.0330    0.9370   15.8100 P.3       1 ADP285      0.0000 
      6 O1A        46.2280    2.1480   16.0100 O.co2     1 ADP285      0.0000 
      7 O2A        46.1710   -0.2390   15.7980 O.co2     1 ADP285      0.0000 
      8 O3A        47.8620    1.0880   14.4560 O.3       1 ADP285      0.0000 
      9 O5'        48.0320    0.8360   17.0120 O.3       1 ADP285      0.0000 
     10 C5'        49.4360    0.8730   16.9540 C.3       1 ADP285      0.0000 
     11 C4'        49.9640    0.8110   18.4140 C.3       1 ADP285      0.0000 
     12 O4'        49.3500    1.7870   19.2890 O.3       1 ADP285      0.0000 
     13 C3'        49.8640   -0.5350   19.1630 C.3       1 ADP285      0.0000 
     14 O3'        51.1470   -0.9800   19.6090 O.3       1 ADP285      0.0000 
     15 C2'        48.8690   -0.3010   20.3230 C.3       1 ADP285      0.0000 
     16 O2'        49.1300   -1.1250   21.4710 O.3       1 ADP285      0.0000 
     17 C1'        49.0110    1.1750   20.5520 C.3       1 ADP285      0.0000 
     18 N9         47.8120    1.8850   21.1500 N.pl3     1 ADP285      0.0000 
     19 C8         46.5000    1.6860   20.8400 C.2       1 ADP285      0.0000 
     20 N7         45.7540    2.4940   21.5750 N.2       1 ADP285      0.0000 
     21 C5         46.5300    3.2110   22.3490 C.ar      1 ADP285      0.0000 
     22 C6         46.3400    4.2140   23.3220 C.ar      1 ADP285      0.0000 
     23 N6         45.1050    4.6370   23.6290 N.pl3     1 ADP285      0.0000 
     24 N1         47.4440    4.7770   23.9720 N.ar      1 ADP285      0.0000 
     25 C2         48.7300    4.3870   23.7020 C.ar      1 ADP285      0.0000 
     26 N3         48.9170    3.4240   22.7690 N.ar      1 ADP285      0.0000 
     27 C4         47.8700    2.8210   22.0830 C.ar      1 ADP285      0.0000 
     28 H          49.8188    1.7921   16.5169 H         1 ADP285      0.0000 
     29 H          49.8617    0.0229   16.4263 H         1 ADP285      0.0000 
     30 H          51.0626    1.0512   18.3785 H         1 ADP285      0.0000 
     31 H          49.3974   -1.2370   18.4812 H         1 ADP285      0.0000 
     32 H          47.8811   -0.4696   19.8988 H         1 ADP285      0.0000 
     33 H          49.8686    1.3285   21.2381 H         1 ADP285      0.0000 
     34 H          46.1853    1.0453   20.1790 H         1 ADP285      0.0000 
     35 H          44.3577    4.2327   23.1017 H         1 ADP285      0.0000 
     36 H          45.0419    5.3189   24.3578 H         1 ADP285      0.0000 
     37 H          49.5184    4.8150   24.1944 H         1 ADP285      0.0000 
     38 H          51.3444   -0.4292   20.4200 H         1 ADP285      0.0000 
     39 H          49.9969   -0.7889   21.8390 H         1 ADP285      0.0000 
@<TRIPOS>BOND
     1    2    1 ar   
     2    3    1 ar   
     3    4    1 ar   
     4    8    1 1    
     5    6    5 ar   
     6    7    5 ar   
     7    8    5 1    
     8    9    5 1    
     9   10    9 1    
    10   11   10 1    
    11   28   10 1    
    12   29   10 1    
    13   12   11 1    
    14   13   11 1    
    15   30   11 1    
    16   17   12 1    
    17   14   13 1    
    18   15   13 1    
    19   31   13 1    
    20   38   14 1    
    21   16   15 1    
    22   17   15 1    
    23   32   15 1    
    24   39   16 1    
    25   18   17 1    
    26   33   17 1    
    27   19   18 1    
    28   27   18 1    
    29   20   19 2    
    30   34   19 1    
    31   21   20 1    
    32   22   21 ar   
    33   27   21 ar   
    34   23   22 1    
    35   24   22 ar   
    36   35   23 1    
    37   36   23 1    
    38   25   24 ar   
    39   26   25 ar   
    40   37   25 1    
    41   27   26 ar   
@<TRIPOS>SUBSTRUCTURE
     1 ADP285      1 GROUP   
@<TRIPOS>SET

