#    Name: 4gg5_0J3_1_INTS_M
#    Modification time : Mon Mar 24 22:10:41 2014

@<TRIPOS>MOLECULE
4gg5_0J3_1_INTS_M
   73     0     6     0     0
SMALL
NO_CHARGES


@<TRIPOS>ATOM
      1 CA         -3.3790   16.1630   35.7640 C.3       2 GLC5        0.0000 
      2 CA         -4.7250   17.3410   34.7260 C.3       6 GLL5        0.0000 
      3 CA         -2.0330   14.9850   36.8020 C.3       4 GLP5        0.0000 
      4 CA         -1.1405   20.1820   32.4285 C.3       2 GLC5        0.0000 
      5 CA         -1.5800   18.6380   33.5670 C.3       6 GLL5        0.0000 
      6 CA         -0.7010   21.7260   31.2900 C.3       4 GLP5        0.0000 
      7 N          -0.1655   19.7175   32.2685 N.am      1 SEC2        0.0000 
      8 N          -0.7200   18.4130   32.5960 N.am      5 SEL2        0.0000 
      9 N           0.3890   21.0220   31.9410 N.am      3 SEP2        0.0000 
     10 CA         -1.0220   19.0810   31.0055 C.3       2 GLC5        0.0000 
     11 CA         -0.7690   17.2890   31.8490 C.3       6 GLL5        0.0000 
     12 CA         -1.2750   20.8730   30.1620 C.3       4 GLP5        0.0000 
     13 CA         -0.0385   18.8410   29.9560 C.3       2 GLC5        0.0000 
     14 CA          0.1900   17.1190   30.8230 C.3       6 GLL5        0.0000 
     15 CA         -0.2670   20.5630   29.0890 C.3       4 GLP5        0.0000 
     16 CA         -1.1160   16.9660   27.1730 C.3       2 GLC5        0.0000 
     17 CA          0.5030   15.8650   27.7440 C.3       6 GLL5        0.0000 
     18 CA         -2.7350   18.0670   26.6020 C.3       4 GLP5        0.0000 
     19 CA         -0.2850   16.0000   25.7280 C.3       2 GLC5        0.0000 
     20 CA         -1.0730   16.1350   23.7120 C.3       4 GLP5        0.0000 
     21 CA          3.6770   16.3625   28.9830 C.3       2 GLC5        0.0000 
     22 CA          2.0420   16.8300   28.8940 C.3       6 GLL5        0.0000 
     23 CA          5.3120   15.8950   29.0720 C.3       4 GLP5        0.0000 
     24 CA          0.8875   18.6965   28.9915 C.3       2 GLC5        0.0000 
     25 CA         -3.3040   12.0875   32.5065 C.3       2 GLC5        0.0000 
     26 CA         -2.8570   12.9630   30.5840 C.3       6 GLL5        0.0000 
     27 CA         -3.7510   11.2120   34.4290 C.3       4 GLP5        0.0000 
     28 CA         -1.5205   11.8255   31.5195 C.3       2 GLC5        0.0000 
     29 CA         -0.1840   10.6880   32.4550 C.3       4 GLP5        0.0000 
     30 CA         -2.6205   11.2320   29.8245 C.3       2 GLC5        0.0000 
     31 CA         -2.3840    9.5010   29.0650 C.3       4 GLP5        0.0000 
     32 CA         -3.4245   15.3395   29.2630 C.3       2 GLC5        0.0000 
     33 CA         -3.6070   13.2920   29.2920 C.3       6 GLL5        0.0000 
     34 CA         -3.2420   17.3870   29.2340 C.3       4 GLP5        0.0000 
     35 CA         -5.6040   14.3930   24.9675 C.3       2 GLC5        0.0000 
     36 CA         -4.9760   13.9240   26.9300 C.3       6 GLL5        0.0000 
     37 CA         -6.2320   14.8620   23.0050 C.3       4 GLP5        0.0000 
     38 N          -1.3135   13.4855   24.0580 N.am      1 SEC2        0.0000 
     39 N          -1.6640   13.3320   25.5140 N.am      5 SEL2        0.0000 
     40 N          -0.9630   13.6390   22.6020 N.am      3 SEP2        0.0000 
     41 CA         -5.5857   18.6705   33.1520 C.3       2 GLC5        0.0000 
     42 CA         -5.8540   19.6190   31.3220 C.3       4 GLP5        0.0000 
     43 CA         -2.2163   20.1588   36.4030 C.3       2 GLC5        0.0000 
     44 CA         -3.5470   19.3240   35.3850 C.3       6 GLL5        0.0000 
     45 CA         -0.4670   20.9090   36.8100 C.3       4 GLP5        0.0000 
     46 CA         -0.5853   16.3107   33.8227 C.3       2 GLC5        0.0000 
     47 CA         -1.7440   16.3100   32.0800 C.3       6 GLL5        0.0000 
     48 CA          0.0860   15.8220   35.6810 C.3       4 GLP5        0.0000 
     49 CA         -1.0152   16.8469   34.6050 C.3       2 GLC5        0.0000 
     50 CA         -2.6120   17.6870   33.8640 C.3       6 GLL5        0.0000 
     51 CA          1.3807   16.6945   32.0690 C.3       2 GLC5        0.0000 
     52 CA          3.0510   16.1850   32.8020 C.3       4 GLP5        0.0000 
     53 CA         -1.7658   17.2955   30.2850 C.3       2 GLC5        0.0000 
     54 CA         -1.7843   16.4273   29.6893 C.3       2 GLC5        0.0000 
     55 CA          0.1740   15.9760   30.0300 C.3       6 GLL5        0.0000 
     56 CA          2.9952   14.4230   28.6795 C.3       2 GLC5        0.0000 
     57 CA          1.1990   15.8200   28.9050 C.3       6 GLL5        0.0000 
     58 CA          4.4680   13.5960   28.4190 C.3       4 GLP5        0.0000 
     59 CA          2.3281   15.8535   30.9399 C.3       2 GLC5        0.0000 
     60 CA          2.2181   16.0276   27.0441 C.3       2 GLC5        0.0000 
     61 CA          2.7900   16.5470   25.2960 C.3       4 GLP5        0.0000 
     62 CA         -0.1435   13.8747   32.0400 C.3       2 GLC5        0.0000 
     63 CA         -0.8270   14.9590   30.2590 C.3       6 GLL5        0.0000 
     64 CA          1.0070   12.7090   33.3250 C.3       4 GLP5        0.0000 
     65 CA         -2.6160   16.5783   30.5795 C.3       2 GLC5        0.0000 
     66 CA         -1.7610   15.1220   31.2510 C.3       6 GLL5        0.0000 
     67 CA         -6.6397   15.4315   27.6730 C.3       2 GLC5        0.0000 
     68 CA         -5.6890   13.8460   28.1600 C.3       6 GLL5        0.0000 
     69 CA         -7.9470   16.9780   27.8010 C.3       4 GLP5        0.0000 
     70 CA         -5.5605   11.6921   28.5489 C.3       2 GLC5        0.0000 
     71 CA         -6.1270    9.7560   28.3610 C.3       4 GLP5        0.0000 
     72 CA         -4.3539   15.4602   27.8001 C.3       2 GLC5        0.0000 
     73 CA         -3.9840   17.2120   27.6230 C.3       4 GLP5        0.0000 
@<TRIPOS>BOND
@<TRIPOS>SUBSTRUCTURE
     1 SEC2        7 GROUP        1 X    SEC  0     ROOT SEC X 2
     2 GLC5        1 GROUP        1 X    GLC  0     **** GLC X 6
     3 SEP2        9 GROUP        1 Y    SEP  0     ROOT SEP Y 9
     4 GLP5        3 GROUP        1 Y    GLP  0     **** GLP Y 13
     5 SEL2        8 GROUP        1 Z    SEL  0     ROOT SEL Z 16
     6 GLL5        2 GROUP        1 Z    GLL  0     **** GLL Z 20
@<TRIPOS>SET

