#    Name: 4gg5_0J3_1_ligand
#    Modification time : Mon Mar 24 22:10:41 2014

@<TRIPOS>MOLECULE
4gg5_0J3_1_ligand
   55    58     1     0     0
SMALL
NO_CHARGES


@<TRIPOS>ATOM
      1 CAQ        -4.7250   17.3410   34.7260 C.3       1 0J31401     0.0000 
      2 CAO        -5.9100   18.1030   35.2380 C.3       1 0J31401     0.0000 
      3 NBD        -5.6570   18.7360   36.5620 N.4       1 0J31401     0.0000 
      4 CAA        -6.2770   18.2720   37.7510 C.3       1 0J31401     0.0000 
      5 CAP        -4.3840   19.4930   36.6070 C.3       1 0J31401     0.0000 
      6 CAR        -3.5470   19.3240   35.3850 C.3       1 0J31401     0.0000 
      7 NBE        -3.5550   18.0170   34.9550 N.3       1 0J31401     0.0000 
      8 CAX        -2.6120   17.6870   33.8640 C.ar      1 0J31401     0.0000 
      9 CAM        -2.6940   16.5240   33.1180 C.ar      1 0J31401     0.0000 
     10 CBB        -1.7440   16.3100   32.0800 C.ar      1 0J31401     0.0000 
     11 CAJ        -1.5800   18.6380   33.5670 C.ar      1 0J31401     0.0000 
     12 NAT        -0.7200   18.4130   32.5960 N.ar      1 0J31401     0.0000 
     13 CBA        -0.7690   17.2890   31.8490 C.ar      1 0J31401     0.0000 
     14 CAN         0.1900   17.1190   30.8230 C.ar      1 0J31401     0.0000 
     15 CAY         0.1740   15.9760   30.0300 C.ar      1 0J31401     0.0000 
     16 CBF         1.1990   15.8200   28.9050 C.3       1 0J31401     0.0000 
     17 FAE         0.5030   15.8650   27.7440 F         1 0J31401     0.0000 
     18 FAF         2.0420   16.8300   28.8940 F         1 0J31401     0.0000 
     19 FAD         1.8460   14.6800   28.9750 F         1 0J31401     0.0000 
     20 CAL        -0.8270   14.9590   30.2590 C.ar      1 0J31401     0.0000 
     21 CAZ        -1.7610   15.1220   31.2510 C.ar      1 0J31401     0.0000 
     22 NAU        -2.7580   14.0970   31.4800 N.pl3     1 0J31401     0.0000 
     23 CAS        -2.8570   12.9630   30.5840 C.3       1 0J31401     0.0000 
     24 CAV        -3.6070   13.2920   29.2920 C.ar      1 0J31401     0.0000 
     25 CAK        -2.8930   13.3800   28.0660 C.ar      1 0J31401     0.0000 
     26 CAH        -4.9910   13.5290   29.3350 C.ar      1 0J31401     0.0000 
     27 CAG        -5.6890   13.8460   28.1600 C.ar      1 0J31401     0.0000 
     28 CAI        -4.9760   13.9240   26.9300 C.ar      1 0J31401     0.0000 
     29 CAW        -3.5860   13.6900   26.9020 C.ar      1 0J31401     0.0000 
     30 NBC        -2.8980   13.7710   25.6550 N.pl3     1 0J31401     0.0000 
     31 OAC        -3.5250   14.3000   24.6510 O.2       1 0J31401     0.0000 
     32 OAB        -1.6640   13.3320   25.5140 O.2       1 0J31401     0.0000 
     33 H          -4.8990   17.1463   33.6432 H         1 0J31401     0.0000 
     34 H          -4.7399   16.3392   35.2127 H         1 0J31401     0.0000 
     35 H          -6.7737   17.4195   35.3151 H         1 0J31401     0.0000 
     36 H          -6.1845   18.8807   34.5039 H         1 0J31401     0.0000 
     37 H          -6.4231   19.7929   36.3449 H         1 0J31401     0.0000 
     38 H          -3.7978   19.1773   37.4947 H         1 0J31401     0.0000 
     39 H          -4.6006   20.5716   36.7520 H         1 0J31401     0.0000 
     40 H          -2.5219   19.6817   35.6266 H         1 0J31401     0.0000 
     41 H          -3.9339   20.0241   34.6122 H         1 0J31401     0.0000 
     42 H          -3.4103   15.8270   33.2935 H         1 0J31401     0.0000 
     43 H          -1.5549   19.4956   34.1531 H         1 0J31401     0.0000 
     44 H           0.8963   17.8479   30.6712 H         1 0J31401     0.0000 
     45 H          -0.8120   14.1270   29.6625 H         1 0J31401     0.0000 
     46 H          -3.3869   14.1728   32.2674 H         1 0J31401     0.0000 
     47 H          -3.3799   12.1186   31.0712 H         1 0J31401     0.0000 
     48 H          -1.8533   12.5906   30.3052 H         1 0J31401     0.0000 
     49 H          -1.8896   13.2159   28.0560 H         1 0J31401     0.0000 
     50 H          -5.4915   13.4700   30.2276 H         1 0J31401     0.0000 
     51 H          -6.6885   14.0190   28.1766 H         1 0J31401     0.0000 
     52 H          -5.4776   14.1501   26.0706 H         1 0J31401     0.0000 
     53 H          -6.0462   17.3180   37.9422 H         1 0J31401     0.0000 
     54 H          -5.9976   18.8067   38.5485 H         1 0J31401     0.0000 
     55 H          -7.2740   18.3270   37.6958 H         1 0J31401     0.0000 
@<TRIPOS>BOND
     1    2    1 1    
     2    7    1 1    
     3   33    1 1    
     4   34    1 1    
     5    3    2 1    
     6   35    2 1    
     7   36    2 1    
     8    4    3 1    
     9    5    3 1    
    10   37    3 1    
    11   53    4 1    
    12   54    4 1    
    13   55    4 1    
    14    6    5 1    
    15   38    5 1    
    16   39    5 1    
    17    7    6 1    
    18   40    6 1    
    19   41    6 1    
    20    8    7 1    
    21    9    8 ar   
    22   11    8 ar   
    23   10    9 ar   
    24   42    9 1    
    25   13   10 ar   
    26   21   10 ar   
    27   12   11 ar   
    28   43   11 1    
    29   13   12 ar   
    30   14   13 ar   
    31   15   14 ar   
    32   44   14 1    
    33   16   15 1    
    34   20   15 ar   
    35   17   16 1    
    36   18   16 1    
    37   19   16 1    
    38   21   20 ar   
    39   45   20 1    
    40   22   21 1    
    41   23   22 1    
    42   46   22 1    
    43   24   23 1    
    44   47   23 1    
    45   48   23 1    
    46   25   24 ar   
    47   26   24 ar   
    48   29   25 ar   
    49   49   25 1    
    50   27   26 ar   
    51   50   26 1    
    52   28   27 ar   
    53   51   27 1    
    54   29   28 ar   
    55   52   28 1    
    56   30   29 1    
    57   31   30 2    
    58   32   30 2    
@<TRIPOS>SUBSTRUCTURE
     1 0J31401     1 GROUP   
@<TRIPOS>SET

