#    Name: 1rb3_MTX_2_INTS_M
#    Modification time : Tue Mar 25 00:28:05 2014

@<TRIPOS>MOLECULE
1rb3_MTX_2_INTS_M
   64     0    12     0     0
SMALL
NO_CHARGES


@<TRIPOS>ATOM
      1 CA          5.2890   29.5025   15.9520 C.3       4 GLC5        0.0000 
      2 CA          4.2880   31.3590   15.6980 C.3      12 GLL5        0.0000 
      3 CA          6.2900   27.6460   16.2060 C.3       8 GLP5        0.0000 
      4 CA          3.3650   29.7020   14.8390 C.3       4 GLC5        0.0000 
      5 CA          2.4420   28.0450   13.9800 C.3       8 GLP5        0.0000 
      6 CA          2.4375   31.7815   15.4995 C.3       4 GLC5        0.0000 
      7 CA          0.5870   32.2040   15.3010 C.3       8 GLP5        0.0000 
      8 CA          6.3005   31.9175   16.4230 C.3       4 GLC5        0.0000 
      9 CA          8.3130   32.4760   17.1480 C.3       8 GLP5        0.0000 
     10 O           3.5410   31.6985   17.8015 O.2       1 ALC1        0.0000 
     11 O           3.8980   30.8390   16.7840 O.2       9 ALL1        0.0000 
     12 O           3.1840   32.5580   18.8190 O.2       5 ALP1        0.0000 
     13 O           3.7930   32.4640   17.0590 O.2       1 ALC1        0.0000 
     14 O           3.6880   34.0890   17.3340 O.2       5 ALP1        0.0000 
     15 O           2.9905   30.7440   18.1595 O.2       1 ALC1        0.0000 
     16 O           2.0830   30.6490   19.5350 O.2       5 ALP1        0.0000 
     17 O           3.6325   29.8370   17.6000 O.2       1 ALC1        0.0000 
     18 O           3.3670   28.8350   18.4160 O.2       5 ALP1        0.0000 
     19 CA          5.7225   29.2690   14.8425 C.3       4 GLC5        0.0000 
     20 CA          5.1550   30.8920   13.4790 C.3      12 GLL5        0.0000 
     21 CA          3.7985   29.4685   13.7295 C.3       4 GLC5        0.0000 
     22 O           5.1200   28.6680   12.7685 O.2       1 ALC1        0.0000 
     23 O           5.5210   30.0900   12.5960 O.2       9 ALL1        0.0000 
     24 O           4.7190   27.2460   12.9410 O.2       5 ALP1        0.0000 
     25 O           5.6700   29.7980   11.0920 O.2       1 ALC1        0.0000 
     26 O           5.8190   29.5060    9.5880 O.2       5 ALP1        0.0000 
     27 CA          6.2240   36.0475   14.4300 C.3       4 GLC5        0.0000 
     28 CA          5.3380   34.8730   12.9900 C.3      12 GLL5        0.0000 
     29 CA          7.1100   37.2220   15.8700 C.3       8 GLP5        0.0000 
     30 CA          2.6700   32.6630   14.7560 C.3       4 GLC5        0.0000 
     31 CA          4.7530   33.1220   14.2110 C.3      12 GLL5        0.0000 
     32 CA          6.6035   33.4335    8.6870 C.3       4 GLC5        0.0000 
     33 CA          6.3090   34.5660   10.5800 C.3      12 GLL5        0.0000 
     34 CA          6.8980   32.3010    6.7940 C.3       8 GLP5        0.0000 
     35 CA          8.1335   34.4535    9.5200 C.3       4 GLC5        0.0000 
     36 CA          9.9580   34.3410    8.4600 C.3       8 GLP5        0.0000 
     37 CA          7.7060   36.4075    9.0030 C.3       4 GLC5        0.0000 
     38 CA          6.0100   37.1830   10.1040 C.3      12 GLL5        0.0000 
     39 CA          9.4020   35.6320    7.9020 C.3       8 GLP5        0.0000 
     40 CA          9.2075   34.8850   10.2380 C.3       4 GLC5        0.0000 
     41 CA          8.4570   35.4290   12.0160 C.3      12 GLL5        0.0000 
     42 CA         12.9000   35.9265   13.7030 C.3       4 GLC5        0.0000 
     43 CA         12.5600   36.9660   15.3600 C.3      12 GLL5        0.0000 
     44 CA         13.2400   34.8870   12.0460 C.3       8 GLP5        0.0000 
     45 NZ         14.6595   34.3520   15.1675 N.4       3 LYC4        0.0000 
     46 NZ         13.0590   34.5940   15.2060 N.4      11 LYL4        0.0000 
     47 NZ         15.8900   32.8660   14.9260 N.4       7 LYP4        0.0000 
     48 N          13.8515   33.5315   15.2030 N.am      2 SEC2        0.0000 
     49 N          13.0590   34.5940   15.2060 N.am     10 SEL2        0.0000 
     50 N          14.6440   32.4690   15.2000 N.am      6 SEP2        0.0000 
     51 N          14.6595   34.3520   15.1675 N.am      2 SEC2        0.0000 
     52 N          16.2600   34.1100   15.1290 N.am      6 SEP2        0.0000 
     53 NZ         14.3600   35.9960   16.2190 N.4      11 LYL4        0.0000 
     54 N          15.3100   35.0530   15.6740 N.am      2 SEC2        0.0000 
     55 N          14.3600   35.9960   16.2190 N.am     10 SEL2        0.0000 
     56 CA         12.5840   35.7110   18.0130 C.3       4 GLC5        0.0000 
     57 CA         12.1670   37.3390   16.7810 C.3      12 GLL5        0.0000 
     58 CA         13.0010   34.0830   19.2450 C.3       8 GLP5        0.0000 
     59 CA          8.2812   37.4765   14.1590 C.3       4 GLC5        0.0000 
     60 CA          9.8310   37.2630   12.8180 C.3      12 GLL5        0.0000 
     61 CA         11.4527   35.7392   12.4185 C.3       4 GLC5        0.0000 
     62 CA          8.6500   36.3450    9.6113 C.3       4 GLC5        0.0000 
     63 CA          7.7780   36.3530   11.3290 C.3      12 GLL5        0.0000 
     64 CA          8.0442   36.4483   14.1300 C.3       4 GLC5        0.0000 
@<TRIPOS>BOND
@<TRIPOS>SUBSTRUCTURE
     1 ALC1       10 GROUP        1 X    ALC  0     ROOT ALC X 1
     2 SEC2       48 GROUP        1 X    SEC  0     **** SEC X 2
     3 LYC4       45 GROUP        1 X    LYC  0     **** LYC X 4
     4 GLC5        1 GROUP        1 X    GLC  0     **** GLC X 6
     5 ALP1       12 GROUP        1 Y    ALP  0     ROOT ALP Y 8
     6 SEP2       50 GROUP        1 Y    SEP  0     **** SEP Y 9
     7 LYP4       47 GROUP        1 Y    LYP  0     **** LYP Y 11
     8 GLP5        3 GROUP        1 Y    GLP  0     **** GLP Y 13
     9 ALL1       11 GROUP        1 Z    ALL  0     ROOT ALL Z 15
    10 SEL2       49 GROUP        1 Z    SEL  0     **** SEL Z 16
    11 LYL4       46 GROUP        1 Z    LYL  0     **** LYL Z 18
    12 GLL5        2 GROUP        1 Z    GLL  0     **** GLL Z 20
@<TRIPOS>SET

