#    Name: 1rb3_MTX_2_ligand
#    Modification time : Tue Mar 25 00:28:06 2014

@<TRIPOS>MOLECULE
1rb3_MTX_2_ligand
   53    55     1     0     0
SMALL
NO_CHARGES


@<TRIPOS>ATOM
      1 N1          4.3090   32.6770   15.4470 N.ar      1 MTX161      0.0000 
      2 C2          4.2880   31.3590   15.6980 C.ar      1 MTX161      0.0000 
      3 NA2         3.8980   30.8390   16.7840 N.pl3     1 MTX161      0.0000 
      4 N3          4.7260   30.4810   14.6790 N.ar      1 MTX161      0.0000 
      5 C4          5.1550   30.8920   13.4790 C.ar      1 MTX161      0.0000 
      6 NA4         5.5210   30.0900   12.5960 N.pl3     1 MTX161      0.0000 
      7 C4A         5.1510   32.3210   13.2460 C.ar      1 MTX161      0.0000 
      8 N5          5.6550   32.7520   12.0650 N.ar      1 MTX161      0.0000 
      9 C6          5.7620   34.0830   11.9060 C.ar      1 MTX161      0.0000 
     10 C7          5.3380   34.8730   12.9900 C.ar      1 MTX161      0.0000 
     11 N8          4.8520   34.4380   14.1240 N.ar      1 MTX161      0.0000 
     12 C8A         4.7530   33.1220   14.2110 C.ar      1 MTX161      0.0000 
     13 C9          6.3090   34.5660   10.5800 C.3       1 MTX161      0.0000 
     14 N10         6.7550   36.0240   10.5770 N.pl3     1 MTX161      0.0000 
     15 CM          6.0100   37.1830   10.1040 C.3       1 MTX161      0.0000 
     16 C11         9.8310   37.2630   12.8180 C.ar      1 MTX161      0.0000 
     17 C12         9.0740   38.1990   12.0780 C.ar      1 MTX161      0.0000 
     18 C13         8.0180   37.7630   11.3120 C.ar      1 MTX161      0.0000 
     19 C14         7.7780   36.3530   11.3290 C.ar      1 MTX161      0.0000 
     20 C15         8.4570   35.4290   12.0160 C.ar      1 MTX161      0.0000 
     21 C16         9.5000   35.9200   12.7640 C.ar      1 MTX161      0.0000 
     22 C          10.9610   37.5960   13.6820 C.2       1 MTX161      0.0000 
     23 O          11.5490   38.6810   13.6660 O.2       1 MTX161      0.0000 
     24 N          11.3110   36.7550   14.6170 N.am      1 MTX161      0.0000 
     25 CA         12.5600   36.9660   15.3600 C.3       1 MTX161      0.0000 
     26 CT         13.3630   35.7440   15.5850 C.2       1 MTX161      0.0000 
     27 O1         13.0590   34.5940   15.2060 O.co2     1 MTX161      0.0000 
     28 O2         14.3600   35.9960   16.2190 O.co2     1 MTX161      0.0000 
     29 CB         12.1670   37.3390   16.7810 C.3       1 MTX161      0.0000 
     30 CG         12.6090   38.8500   17.0460 C.3       1 MTX161      0.0000 
     31 CD         11.8490   39.4560   18.2480 C.2       1 MTX161      0.0000 
     32 OE1        11.9200   38.6800   19.2640 O.co2     1 MTX161      0.0000 
     33 OE2        11.2780   40.5870   18.1800 O.co2     1 MTX161      0.0000 
     34 H           3.5511   31.4726   17.4755 H         1 MTX161      0.0000 
     35 H           3.9737   29.8439   16.8476 H         1 MTX161      0.0000 
     36 H           5.8820   29.2150   12.9186 H         1 MTX161      0.0000 
     37 H           5.4181   30.3993   11.6506 H         1 MTX161      0.0000 
     38 H           5.4391   35.9414   12.8333 H         1 MTX161      0.0000 
     39 H           5.5387   34.4290    9.7982 H         1 MTX161      0.0000 
     40 H           7.1672   33.9319   10.2889 H         1 MTX161      0.0000 
     41 H           9.3233   39.1911   12.1229 H         1 MTX161      0.0000 
     42 H           7.4421   38.3678   10.7714 H         1 MTX161      0.0000 
     43 H           8.2374   34.4488   11.9995 H         1 MTX161      0.0000 
     44 H          10.0805   35.2421   13.3273 H         1 MTX161      0.0000 
     45 H          10.7636   35.9241   14.8876 H         1 MTX161      0.0000 
     46 H          13.1464   37.7426   14.9748 H         1 MTX161      0.0000 
     47 H          12.6792   36.7203   17.4914 H         1 MTX161      0.0000 
     48 H          11.1037   37.2835   16.9078 H         1 MTX161      0.0000 
     49 H          12.3963   39.4197   16.1514 H         1 MTX161      0.0000 
     50 H          13.6726   38.8549   17.2431 H         1 MTX161      0.0000 
     51 H           6.5311   38.0294   10.2134 H         1 MTX161      0.0000 
     52 H           5.7780   37.1049    9.1344 H         1 MTX161      0.0000 
     53 H           5.1511   37.3011   10.6024 H         1 MTX161      0.0000 
@<TRIPOS>BOND
     1    2    1 ar   
     2   12    1 ar   
     3    3    2 1    
     4    4    2 ar   
     5   34    3 1    
     6   35    3 1    
     7    5    4 ar   
     8    6    5 1    
     9    7    5 ar   
    10   36    6 1    
    11   37    6 1    
    12    8    7 ar   
    13   12    7 ar   
    14    9    8 ar   
    15   10    9 ar   
    16   13    9 1    
    17   11   10 ar   
    18   38   10 1    
    19   12   11 ar   
    20   14   13 1    
    21   39   13 1    
    22   40   13 1    
    23   15   14 1    
    24   19   14 1    
    25   51   15 1    
    26   52   15 1    
    27   53   15 1    
    28   17   16 ar   
    29   21   16 ar   
    30   22   16 1    
    31   18   17 ar   
    32   41   17 1    
    33   19   18 ar   
    34   42   18 1    
    35   20   19 ar   
    36   21   20 ar   
    37   43   20 1    
    38   44   21 1    
    39   23   22 2    
    40   24   22 am   
    41   25   24 1    
    42   45   24 1    
    43   26   25 1    
    44   29   25 1    
    45   46   25 1    
    46   27   26 ar   
    47   28   26 ar   
    48   30   29 1    
    49   47   29 1    
    50   48   29 1    
    51   31   30 1    
    52   49   30 1    
    53   50   30 1    
    54   32   31 ar   
    55   33   31 ar   
@<TRIPOS>SUBSTRUCTURE
     1 MTX161      1 GROUP   
@<TRIPOS>SET

