#    Name: 4li8_1XQ_1_INTS_M
#    Modification time : Tue Apr  8 00:01:34 2014

@<TRIPOS>MOLECULE
4li8_1XQ_1_INTS_M
   92     0     9     0     0
SMALL
NO_CHARGES


@<TRIPOS>ATOM
      1 CA        -26.5725  -13.5340    5.3270 C.3       3 GLC5        0.0000 
      2 CA        -26.7240  -12.6230    6.8380 C.3       9 GLL5        0.0000 
      3 CA        -26.4210  -14.4450    3.8160 C.3       6 GLP5        0.0000 
      4 CA        -28.4820  -13.6170    7.3180 C.3       3 GLC5        0.0000 
      5 CA        -30.2400  -14.6110    7.7980 C.3       6 GLP5        0.0000 
      6 CA        -24.5900  -12.5950   10.1345 C.3       3 GLC5        0.0000 
      7 CA        -24.6800  -12.5130    8.0880 C.3       9 GLL5        0.0000 
      8 CA        -24.5000  -12.6770   12.1810 C.3       6 GLP5        0.0000 
      9 CA        -24.4700  -14.2010    8.5710 C.3       3 GLC5        0.0000 
     10 CA        -24.2600  -15.8890    9.0540 C.3       6 GLP5        0.0000 
     11 CA        -24.5210  -13.8350    6.5710 C.3       3 GLC5        0.0000 
     12 CA        -24.3620  -15.1570    5.0540 C.3       6 GLP5        0.0000 
     13 CA        -24.6265  -11.5505    6.1585 C.3       3 GLC5        0.0000 
     14 CA        -24.5730  -10.5880    4.2290 C.3       6 GLP5        0.0000 
     15 O         -22.3005   -8.1345    7.9265 O.2       1 ALC1        0.0000 
     16 O         -23.5990   -8.9100    7.9370 O.2       7 ALL1        0.0000 
     17 O         -21.0020   -7.3590    7.9160 O.2       4 ALP1        0.0000 
     18 CA        -24.5505   -7.3515    5.5660 C.3       3 GLC5        0.0000 
     19 CA        -24.6680   -6.8450    7.2950 C.3       9 GLL5        0.0000 
     20 CA        -24.4330   -7.8580    3.8370 C.3       6 GLP5        0.0000 
     21 N         -21.0985  -10.0840    8.8935 N.am      2 SEC2        0.0000 
     22 N         -22.4270  -10.6910    8.5480 N.am      8 SEL2        0.0000 
     23 N         -19.7700   -9.4770    9.2390 N.am      5 SEP2        0.0000 
     24 N         -21.5340  -11.8145    8.5360 N.am      2 SEC2        0.0000 
     25 N         -20.6410  -12.9380    8.5240 N.am      5 SEP2        0.0000 
     26 N         -25.9225   -7.5750   11.2455 N.am      2 SEC2        0.0000 
     27 N         -25.0600   -6.7660   10.0420 N.am      8 SEL2        0.0000 
     28 N         -26.7850   -8.3840   12.4490 N.am      5 SEP2        0.0000 
     29 CA        -27.0710   -5.8625   12.0510 C.3       3 GLC5        0.0000 
     30 CA        -26.7040   -5.0440   10.0540 C.3       9 GLL5        0.0000 
     31 CA        -27.4380   -6.6810   14.0480 C.3       6 GLP5        0.0000 
     32 CA        -27.9060   -6.4400   10.3060 C.3       3 GLC5        0.0000 
     33 CA        -29.1080   -7.8360   10.5580 C.3       6 GLP5        0.0000 
     34 N         -23.6540   -1.8915   15.9305 N.am      2 SEC2        0.0000 
     35 N         -23.5020   -2.4920   14.5360 N.am      8 SEL2        0.0000 
     36 N         -23.8060   -1.2910   17.3250 N.am      5 SEP2        0.0000 
     37 CA        -21.9425   -1.6100   16.1600 C.3       3 GLC5        0.0000 
     38 CA        -21.7160   -0.2320   14.5040 C.3       9 GLL5        0.0000 
     39 CA        -22.1690   -2.9880   17.8160 C.3       6 GLP5        0.0000 
     40 CA        -23.5150    2.1675   12.7785 C.3       3 GLC5        0.0000 
     41 CA        -21.9820    1.5680   12.3570 C.3       9 GLL5        0.0000 
     42 CA        -25.0480    2.7670   13.2000 C.3       6 GLP5        0.0000 
     43 CA        -22.9620   -2.8165    3.8295 C.3       3 GLC5        0.0000 
     44 CA        -24.0160   -2.2490    5.6670 C.3       9 GLL5        0.0000 
     45 CA        -21.9080   -3.3840    1.9920 C.3       6 GLP5        0.0000 
     46 CA        -23.0480   -5.8795    5.2695 C.3       3 GLC5        0.0000 
     47 CA        -24.0570   -3.9740    5.9040 C.3       9 GLL5        0.0000 
     48 CA        -22.0390   -7.7850    4.6350 C.3       6 GLP5        0.0000 
     49 CA        -25.7392  -11.2400    5.6080 C.3       3 GLC5        0.0000 
     50 CA        -27.0870  -11.1610    7.1360 C.3       9 GLL5        0.0000 
     51 CA        -26.4756  -10.2819    9.0132 C.3       3 GLC5        0.0000 
     52 CA        -25.8260  -10.3820    7.4360 C.3       9 GLL5        0.0000 
     53 CA        -27.3720   -9.6750   10.4460 C.3       6 GLP5        0.0000 
     54 CA        -27.8148   -2.0907   12.2465 C.3       3 GLC5        0.0000 
     55 CA        -26.6280   -3.1120   11.5970 C.3       9 GLL5        0.0000 
     56 CA        -29.4140   -1.3400   12.3070 C.3       6 GLP5        0.0000 
     57 CA        -26.4477   -3.8398   13.8780 C.3       3 GLC5        0.0000 
     58 CA        -26.6800   -4.8380   15.5700 C.3       6 GLP5        0.0000 
     59 CA        -25.4780   -0.3490   12.5972 C.3       3 GLC5        0.0000 
     60 CA        -25.8030   -2.5710   12.7750 C.3       9 GLL5        0.0000 
     61 CA        -25.8610    1.6460   12.6310 C.3       6 GLP5        0.0000 
     62 CA        -23.3270   -5.2570   11.1350 C.3       3 GLC5        0.0000 
     63 CA        -23.7010   -3.2240   11.5170 C.3       9 GLL5        0.0000 
     64 CA        -22.4880   -7.0050   11.2930 C.3       6 GLP5        0.0000 
     65 CA        -22.9300   -2.1735    9.9250 C.3       3 GLC5        0.0000 
     66 CA        -24.6310   -3.7940   10.4370 C.3       9 GLL5        0.0000 
     67 CA        -21.6940   -0.8380    8.8730 C.3       6 GLP5        0.0000 
     68 CA        -21.1827   -0.3630   11.6235 C.3       3 GLC5        0.0000 
     69 CA        -22.7840    0.4160   12.4180 C.3       9 GLL5        0.0000 
     70 CA        -19.6400   -0.6830   10.2960 C.3       6 GLP5        0.0000 
     71 CA        -24.2933    0.8015   12.7910 C.3       3 GLC5        0.0000 
     72 CA        -22.6670   -0.5020   13.4840 C.3       9 GLL5        0.0000 
     73 CA        -22.9635    1.6767   14.4700 C.3       3 GLC5        0.0000 
     74 CA        -24.6130    3.0040   14.4610 C.3       6 GLP5        0.0000 
     75 CA        -20.5775    0.5082   11.5800 C.3       3 GLC5        0.0000 
     76 CA        -21.0480    1.8310   13.3710 C.3       9 GLL5        0.0000 
     77 CA        -22.6403    2.6973   13.8953 C.3       3 GLC5        0.0000 
     78 CA        -20.2870    2.9500   13.2880 C.3       9 GLL5        0.0000 
     79 CA        -20.2354   -1.1895   14.1700 C.3       3 GLC5        0.0000 
     80 CA        -20.9120    0.9310   14.4540 C.3       9 GLL5        0.0000 
     81 CA        -18.9190   -2.6610   14.1160 C.3       6 GLP5        0.0000 
     82 CA        -22.8759    0.7010   15.7800 C.3       3 GLC5        0.0000 
     83 CA        -24.2000    1.1200   17.3360 C.3       6 GLP5        0.0000 
     84 CA        -18.9488    2.1517   13.7506 C.3       3 GLC5        0.0000 
     85 CA        -17.2640    2.1380   13.9010 C.3       6 GLP5        0.0000 
     86 CA        -26.6875   -4.3872    5.1830 C.3       3 GLC5        0.0000 
     87 CA        -25.6560   -3.8720    6.6000 C.3       9 GLL5        0.0000 
     88 CA        -27.3680   -4.2810    3.5460 C.3       6 GLP5        0.0000 
     89 CA        -22.1283   -2.8973    5.8922 C.3       3 GLC5        0.0000 
     90 CA        -20.2200   -2.6830    5.9990 C.3       6 GLP5        0.0000 
     91 CA        -26.1031   -3.4457    4.8096 C.3       3 GLC5        0.0000 
     92 CA        -26.1120   -2.5750    6.6260 C.3       9 GLL5        0.0000 
@<TRIPOS>BOND
@<TRIPOS>SUBSTRUCTURE
     1 ALC1       15 GROUP        1 X    ALC  0     ROOT ALC X 1
     2 SEC2       21 GROUP        1 X    SEC  0     **** SEC X 2
     3 GLC5        1 GROUP        1 X    GLC  0     **** GLC X 6
     4 ALP1       17 GROUP        1 Y    ALP  0     ROOT ALP Y 8
     5 SEP2       23 GROUP        1 Y    SEP  0     **** SEP Y 9
     6 GLP5        3 GROUP        1 Y    GLP  0     **** GLP Y 13
     7 ALL1       16 GROUP        1 Z    ALL  0     ROOT ALL Z 15
     8 SEL2       22 GROUP        1 Z    SEL  0     **** SEL Z 16
     9 GLL5        2 GROUP        1 Z    GLL  0     **** GLL Z 20
@<TRIPOS>SET

