#    Name: 4li8_1XQ_1_ligand
#    Modification time : Tue Apr  8 00:01:34 2014

@<TRIPOS>MOLECULE
4li8_1XQ_1_ligand
   67    71     1     0     0
SMALL
NO_CHARGES


@<TRIPOS>ATOM
      1 O1        -25.9700  -13.1140    7.9420 O.3       1 1XQ1402     0.0000 
      2 C1        -26.7240  -12.6230    6.8380 C.3       1 1XQ1402     0.0000 
      3 C2        -27.0870  -11.1610    7.1360 C.3       1 1XQ1402     0.0000 
      4 C3        -24.6800  -12.5130    8.0880 C.3       1 1XQ1402     0.0000 
      5 C4        -24.7020  -11.0060    7.8750 C.2       1 1XQ1402     0.0000 
      6 C5        -25.8260  -10.3820    7.4360 C.2       1 1XQ1402     0.0000 
      7 N1        -25.8590   -9.0040    7.2310 N.2       1 1XQ1402     0.0000 
      8 C6        -24.7820   -8.3360    7.4830 C.2       1 1XQ1402     0.0000 
      9 N2        -23.5990   -8.9100    7.9370 N.am      1 1XQ1402     0.0000 
     10 C7        -23.4860  -10.2260    8.1490 C.2       1 1XQ1402     0.0000 
     11 C8        -24.6680   -6.8450    7.2950 C.3       1 1XQ1402     0.0000 
     12 N3        -25.6350   -5.9840    7.9860 N.am      1 1XQ1402     0.0000 
     13 O2        -22.4270  -10.6910    8.5480 O.2       1 1XQ1402     0.0000 
     14 C9        -25.7360   -6.0000    9.3410 C.2       1 1XQ1402     0.0000 
     15 O3        -25.0600   -6.7660   10.0420 O.2       1 1XQ1402     0.0000 
     16 C10       -26.7040   -5.0440   10.0540 C.3       1 1XQ1402     0.0000 
     17 N4        -25.9000   -4.2460   11.0240 N.4       1 1XQ1402     0.0000 
     18 C11       -26.6280   -3.1120   11.5970 C.3       1 1XQ1402     0.0000 
     19 C12       -25.8030   -2.5710   12.7750 C.3       1 1XQ1402     0.0000 
     20 C13       -24.3870   -2.1170   12.3520 C.3       1 1XQ1402     0.0000 
     21 C14       -23.7010   -3.2240   11.5170 C.3       1 1XQ1402     0.0000 
     22 C15       -24.6310   -3.7940   10.4370 C.3       1 1XQ1402     0.0000 
     23 C16       -23.5060   -1.7430   13.5600 C.2       1 1XQ1402     0.0000 
     24 O4        -23.5020   -2.4920   14.5360 O.2       1 1XQ1402     0.0000 
     25 C17       -22.6670   -0.5020   13.4840 C.ar      1 1XQ1402     0.0000 
     26 C18       -21.7160   -0.2320   14.5040 C.ar      1 1XQ1402     0.0000 
     27 C19       -21.0480    1.8310   13.3710 C.ar      1 1XQ1402     0.0000 
     28 C20       -21.9820    1.5680   12.3570 C.ar      1 1XQ1402     0.0000 
     29 C21       -20.9120    0.9310   14.4540 C.ar      1 1XQ1402     0.0000 
     30 C22       -22.7840    0.4160   12.4180 C.ar      1 1XQ1402     0.0000 
     31 F1        -20.2870    2.9500   13.2880 F         1 1XQ1402     0.0000 
     32 C23       -26.3580   -5.1150    7.0400 C.3       1 1XQ1402     0.0000 
     33 C24       -25.6560   -3.8720    6.6000 C.2       1 1XQ1402     0.0000 
     34 C25       -26.1120   -2.5750    6.6260 C.2       1 1XQ1402     0.0000 
     35 C26       -25.1680   -1.6440    6.0960 C.2       1 1XQ1402     0.0000 
     36 C27       -24.0160   -2.2490    5.6670 C.2       1 1XQ1402     0.0000 
     37 S1        -24.0570   -3.9740    5.9040 S.3       1 1XQ1402     0.0000 
     38 H         -27.6520  -13.1719    6.6971 H         1 1XQ1402     0.0000 
     39 H         -26.1553  -12.6401    5.9114 H         1 1XQ1402     0.0000 
     40 H         -27.7517  -11.1305    7.9912 H         1 1XQ1402     0.0000 
     41 H         -27.5846  -10.7384    6.2712 H         1 1XQ1402     0.0000 
     42 H         -23.9527  -12.9427    7.3687 H         1 1XQ1402     0.0000 
     43 H         -24.2601  -12.7029    9.0973 H         1 1XQ1402     0.0000 
     44 H         -22.7829   -8.2715    8.1119 H         1 1XQ1402     0.0000 
     45 H         -24.7027   -6.6323    6.1856 H         1 1XQ1402     0.0000 
     46 H         -23.6195   -6.5387    7.5849 H         1 1XQ1402     0.0000 
     47 H         -27.4505   -5.6255   10.5681 H         1 1XQ1402     0.0000 
     48 H         -27.1604   -4.4011    9.3204 H         1 1XQ1402     0.0000 
     49 H         -25.6350   -4.9354   11.8721 H         1 1XQ1402     0.0000 
     50 H         -27.5969   -3.4170   11.9719 H         1 1XQ1402     0.0000 
     51 H         -26.7483   -2.3166   10.8723 H         1 1XQ1402     0.0000 
     52 H         -25.7100   -3.3509   13.5362 H         1 1XQ1402     0.0000 
     53 H         -26.3273   -1.7203   13.2197 H         1 1XQ1402     0.0000 
     54 H         -24.4866   -1.2406   11.7162 H         1 1XQ1402     0.0000 
     55 H         -23.3912   -4.0284   12.1866 H         1 1XQ1402     0.0000 
     56 H         -22.8115   -2.8060   11.0422 H         1 1XQ1402     0.0000 
     57 H         -24.8052   -3.0126    9.6900 H         1 1XQ1402     0.0000 
     58 H         -24.1135   -4.6239    9.9448 H         1 1XQ1402     0.0000 
     59 H         -21.6130   -0.8886   15.2839 H         1 1XQ1402     0.0000 
     60 H         -22.0798    2.2171   11.5702 H         1 1XQ1402     0.0000 
     61 H         -20.2387    1.1194   15.1940 H         1 1XQ1402     0.0000 
     62 H         -23.4719    0.2351   11.6714 H         1 1XQ1402     0.0000 
     63 H         -27.3483   -4.8255    7.4860 H         1 1XQ1402     0.0000 
     64 H         -26.6336   -5.7101    6.1271 H         1 1XQ1402     0.0000 
     65 H         -26.9824   -2.2929    6.9645 H         1 1XQ1402     0.0000 
     66 H         -25.3519   -0.6876    6.0569 H         1 1XQ1402     0.0000 
     67 H         -23.2245   -1.9565    5.2823 H         1 1XQ1402     0.0000 
@<TRIPOS>BOND
     1    2    1 1    
     2    4    1 1    
     3    3    2 1    
     4   38    2 1    
     5   39    2 1    
     6    6    3 1    
     7   40    3 1    
     8   41    3 1    
     9    5    4 1    
    10   42    4 1    
    11   43    4 1    
    12    6    5 2    
    13   10    5 1    
    14    7    6 1    
    15    8    7 2    
    16    9    8 1    
    17   11    8 1    
    18   10    9 am   
    19   44    9 1    
    20   13   10 2    
    21   12   11 1    
    22   45   11 1    
    23   46   11 1    
    24   14   12 am   
    25   32   12 1    
    26   15   14 2    
    27   16   14 1    
    28   17   16 1    
    29   47   16 1    
    30   48   16 1    
    31   18   17 1    
    32   22   17 1    
    33   49   17 1    
    34   19   18 1    
    35   50   18 1    
    36   51   18 1    
    37   20   19 1    
    38   52   19 1    
    39   53   19 1    
    40   21   20 1    
    41   23   20 1    
    42   54   20 1    
    43   22   21 1    
    44   55   21 1    
    45   56   21 1    
    46   57   22 1    
    47   58   22 1    
    48   24   23 2    
    49   25   23 1    
    50   26   25 ar   
    51   30   25 ar   
    52   29   26 ar   
    53   59   26 1    
    54   28   27 ar   
    55   29   27 ar   
    56   31   27 1    
    57   30   28 ar   
    58   60   28 1    
    59   61   29 1    
    60   62   30 1    
    61   33   32 1    
    62   63   32 1    
    63   64   32 1    
    64   34   33 2    
    65   37   33 1    
    66   35   34 1    
    67   65   34 1    
    68   36   35 2    
    69   66   35 1    
    70   37   36 1    
    71   67   36 1    
@<TRIPOS>SUBSTRUCTURE
     1 1XQ1402     1 GROUP   
@<TRIPOS>SET

