#    Name: 4i4f_1BR_1_INTS_M
#    Modification time : Tue Mar 25 02:22:12 2014

@<TRIPOS>MOLECULE
4i4f_1BR_1_INTS_M
   83     0     6     0     0
SMALL
NO_CHARGES


@<TRIPOS>ATOM
      1 CA         -8.8785   -0.6105  -13.9580 C.3       2 GLC5        0.0000 
      2 CA        -10.3180   -1.1070  -15.5770 C.3       6 GLL5        0.0000 
      3 CA         -7.4390   -0.1140  -12.3390 C.3       4 GLP5        0.0000 
      4 CA        -10.1830   -1.6570  -17.3905 C.3       2 GLC5        0.0000 
      5 CA        -10.0480   -2.2070  -19.2040 C.3       4 GLP5        0.0000 
      6 CA         -8.9315   -0.1040  -16.3830 C.3       2 GLC5        0.0000 
      7 CA         -7.5450    0.8990  -17.1890 C.3       4 GLP5        0.0000 
      8 CA        -10.5915   -2.9395  -15.5570 C.3       2 GLC5        0.0000 
      9 CA        -10.8650   -4.7720  -15.5370 C.3       4 GLP5        0.0000 
     10 CA        -10.5580   -0.4785  -18.1885 C.3       2 GLC5        0.0000 
     11 CA        -11.0680    1.2500  -17.1730 C.3       6 GLL5        0.0000 
     12 CA         -9.0165    3.2430  -18.0040 C.3       2 GLC5        0.0000 
     13 CA        -10.9100    3.6870  -17.1760 C.3       6 GLL5        0.0000 
     14 CA         -7.1230    2.7990  -18.8320 C.3       4 GLP5        0.0000 
     15 O         -11.2765    4.3950  -19.2890 O.2       1 ALC1        0.0000 
     16 O         -10.8750    4.9040  -17.8950 O.2       5 ALL1        0.0000 
     17 O         -11.6780    3.8860  -20.6830 O.2       3 ALP1        0.0000 
     18 CA        -11.5295    7.0855  -16.3785 C.3       2 GLC5        0.0000 
     19 CA        -10.1840    6.1430  -17.4240 C.3       6 GLL5        0.0000 
     20 CA        -12.8750    8.0280  -15.3330 C.3       4 GLP5        0.0000 
     21 CA         -7.9120    4.5900  -19.1365 C.3       2 GLC5        0.0000 
     22 CA         -8.7010    6.3810  -19.4410 C.3       6 GLL5        0.0000 
     23 CA         -9.0335    9.9890  -19.7115 C.3       2 GLC5        0.0000 
     24 CA        -10.0640    8.6550  -20.3030 C.3       6 GLL5        0.0000 
     25 CA         -8.0030   11.3230  -19.1200 C.3       4 GLP5        0.0000 
     26 CA        -11.6760    8.0145  -17.2245 C.3       2 GLC5        0.0000 
     27 CA        -10.4770    8.0010  -19.1160 C.3       6 GLL5        0.0000 
     28 CA         -7.3695    6.5625  -24.1340 C.3       2 GLC5        0.0000 
     29 CA         -8.7320    7.8230  -23.5310 C.3       6 GLL5        0.0000 
     30 CA         -6.0070    5.3020  -24.7370 C.3       4 GLP5        0.0000 
     31 CA         -8.8955    8.0390  -25.7120 C.3       2 GLC5        0.0000 
     32 CA         -9.0590    8.2550  -27.8930 C.3       4 GLP5        0.0000 
     33 CA         -9.3030    5.9045  -22.9010 C.3       2 GLC5        0.0000 
     34 CA         -9.8740    3.9860  -22.2710 C.3       4 GLP5        0.0000 
     35 CA         -9.5535    6.5760  -24.9295 C.3       2 GLC5        0.0000 
     36 CA        -10.3750    5.3290  -26.3280 C.3       4 GLP5        0.0000 
     37 CA         -8.1785   11.1960  -24.0620 C.3       2 GLC5        0.0000 
     38 CA         -9.3960   10.0560  -22.6790 C.3       6 GLL5        0.0000 
     39 CA         -6.9610   12.3360  -25.4450 C.3       4 GLP5        0.0000 
     40 CA         -7.0515    9.6030  -20.3810 C.3       2 GLC5        0.0000 
     41 CA         -7.0890    9.2540  -22.2770 C.3       6 GLL5        0.0000 
     42 CA         -7.0140    9.9520  -18.4850 C.3       4 GLP5        0.0000 
     43 CA         -6.4085   10.6830  -23.4310 C.3       2 GLC5        0.0000 
     44 CA         -5.7280   12.1120  -24.5850 C.3       4 GLP5        0.0000 
     45 CA         -8.7435    3.4060  -16.1210 C.3       2 GLC5        0.0000 
     46 CA        -10.9470    3.6960  -15.7870 C.3       6 GLL5        0.0000 
     47 CA         -6.5400    3.1160  -16.4550 C.3       4 GLP5        0.0000 
     48 CA         -9.2705    1.6950  -16.1235 C.3       2 GLC5        0.0000 
     49 CA        -10.9960    2.4910  -15.0580 C.3       6 GLL5        0.0000 
     50 CA         -8.8895    3.5255  -12.8675 C.3       2 GLC5        0.0000 
     51 CA        -10.1240    4.7490  -12.8000 C.3       6 GLL5        0.0000 
     52 CA         -7.6550    2.3020  -12.9350 C.3       4 GLP5        0.0000 
     53 CA         -8.3105    5.5170  -13.8150 C.3       2 GLC5        0.0000 
     54 CA         -6.4970    6.2850  -14.8300 C.3       4 GLP5        0.0000 
     55 CA        -11.0945    6.5450  -13.4590 C.3       2 GLC5        0.0000 
     56 CA        -12.0650    8.3410  -14.1180 C.3       4 GLP5        0.0000 
     57 CA        -12.1825    1.1265  -19.2095 C.3       2 GLC5        0.0000 
     58 CA        -13.3420    0.3950  -20.8920 C.3       4 GLP5        0.0000 
     59 CA        -12.8239    2.2139  -17.1095 C.3       2 GLC5        0.0000 
     60 CA        -10.9780    2.4660  -17.8810 C.3       6 GLL5        0.0000 
     61 CA        -14.6220    2.5650  -17.0430 C.3       4 GLP5        0.0000 
     62 CA         -9.2854    1.3809  -17.1825 C.3       2 GLC5        0.0000 
     63 CA        -12.2492    5.3072  -16.0712 C.3       2 GLC5        0.0000 
     64 CA        -13.5700    6.9230  -15.6610 C.3       4 GLP5        0.0000 
     65 CA        -12.7133    3.7337  -16.3178 C.3       2 GLC5        0.0000 
     66 CA        -14.4980    3.7760  -16.1540 C.3       4 GLP5        0.0000 
     67 CA        -11.6960    7.2492  -20.1635 C.3       2 GLC5        0.0000 
     68 CA         -9.7710    6.8800  -18.6980 C.3       6 GLL5        0.0000 
     69 CA        -13.2680    7.0580  -21.4200 C.3       4 GLP5        0.0000 
     70 CA         -6.4890    6.4880  -20.0057 C.3       2 GLC5        0.0000 
     71 CA         -4.4760    6.2730  -19.9890 C.3       4 GLP5        0.0000 
     72 CA         -7.8333    8.7703  -19.6582 C.3       2 GLC5        0.0000 
     73 CA         -8.3030    7.0250  -20.6040 C.3       6 GLL5        0.0000 
     74 CA         -9.3130    5.7067  -21.4059 C.3       2 GLC5        0.0000 
     75 CA         -9.0020    8.1520  -21.0590 C.3       6 GLL5        0.0000 
     76 CA        -11.4005    7.7307  -21.0505 C.3       2 GLC5        0.0000 
     77 CA         -8.4352    8.6339  -18.7889 C.3       2 GLC5        0.0000 
     78 CA         -8.4902   10.3790  -20.8195 C.3       2 GLC5        0.0000 
     79 CA         -8.5590    8.8140  -22.3590 C.3       6 GLL5        0.0000 
     80 CA         -9.4280    2.1153  -13.2609 C.3       2 GLC5        0.0000 
     81 CA        -12.8555    2.6608  -14.1434 C.3       2 GLC5        0.0000 
     82 CA        -11.0060    2.4930  -13.5710 C.3       6 GLL5        0.0000 
     83 CA        -14.5100    3.3930  -14.7000 C.3       4 GLP5        0.0000 
@<TRIPOS>BOND
@<TRIPOS>SUBSTRUCTURE
     1 ALC1       15 GROUP        1 X    ALC  0     ROOT ALC X 1
     2 GLC5        1 GROUP        1 X    GLC  0     **** GLC X 6
     3 ALP1       17 GROUP        1 Y    ALP  0     ROOT ALP Y 8
     4 GLP5        3 GROUP        1 Y    GLP  0     **** GLP Y 13
     5 ALL1       16 GROUP        1 Z    ALL  0     ROOT ALL Z 15
     6 GLL5        2 GROUP        1 Z    GLL  0     **** GLL Z 20
@<TRIPOS>SET

