#    Name: 4i4f_1BR_1_ligand
#    Modification time : Tue Mar 25 02:22:13 2014

@<TRIPOS>MOLECULE
4i4f_1BR_1_ligand
   55    58     1     0     0
SMALL
NO_CHARGES


@<TRIPOS>ATOM
      1 C1        -10.3180   -1.1070  -15.5770 C.3       1 1BR702      0.0000 
      2 N2        -11.1020    0.0190  -15.0940 N.pl3     1 1BR702      0.0000 
      3 C3        -11.0790    1.2690  -15.7690 C.ar      1 1BR702      0.0000 
      4 C4        -11.0680    1.2500  -17.1730 C.ar      1 1BR702      0.0000 
      5 C5        -10.9780    2.4660  -17.8810 C.ar      1 1BR702      0.0000 
      6 C6        -10.9100    3.6870  -17.1760 C.ar      1 1BR702      0.0000 
      7 N7        -10.8750    4.9040  -17.8950 N.pl3     1 1BR702      0.0000 
      8 C8        -10.1840    6.1430  -17.4240 C.3       1 1BR702      0.0000 
      9 C9         -9.7710    6.8800  -18.6980 C.ar      1 1BR702      0.0000 
     10 C10        -8.7010    6.3810  -19.4410 C.ar      1 1BR702      0.0000 
     11 C11        -8.3030    7.0250  -20.6040 C.ar      1 1BR702      0.0000 
     12 C12        -9.0020    8.1520  -21.0590 C.ar      1 1BR702      0.0000 
     13 C13       -10.0640    8.6550  -20.3030 C.ar      1 1BR702      0.0000 
     14 C14       -10.4770    8.0010  -19.1160 C.ar      1 1BR702      0.0000 
     15 C15        -8.5590    8.8140  -22.3590 C.3       1 1BR702      0.0000 
     16 C16        -8.7320    7.8230  -23.5310 C.3       1 1BR702      0.0000 
     17 C17        -9.3960   10.0560  -22.6790 C.3       1 1BR702      0.0000 
     18 C18        -7.0890    9.2540  -22.2770 C.3       1 1BR702      0.0000 
     19 C19       -10.9470    3.6960  -15.7870 C.ar      1 1BR702      0.0000 
     20 C20       -10.9960    2.4910  -15.0580 C.ar      1 1BR702      0.0000 
     21 C21       -11.0060    2.4930  -13.5710 C.2       1 1BR702      0.0000 
     22 C22       -11.4010    1.3650  -12.8590 C.2       1 1BR702      0.0000 
     23 C23       -11.2890    1.6150  -11.4960 C.2       1 1BR702      0.0000 
     24 N24       -10.8120    2.8260  -11.3520 N.2       1 1BR702      0.0000 
     25 N25       -10.6370    3.3960  -12.6200 N.pl3     1 1BR702      0.0000 
     26 C26       -10.1240    4.7490  -12.8000 C.3       1 1BR702      0.0000 
     27 S27       -11.9390   -0.0720  -13.6790 S.o2      1 1BR702      0.0000 
     28 O28       -13.3140    0.1420  -14.0330 O.2       1 1BR702      0.0000 
     29 O29       -11.6000   -1.2660  -12.9940 O.2       1 1BR702      0.0000 
     30 H         -11.1244    0.3672  -17.6778 H         1 1BR702      0.0000 
     31 H         -10.9620    2.4641  -18.9016 H         1 1BR702      0.0000 
     32 H         -11.3522    4.9743  -18.8163 H         1 1BR702      0.0000 
     33 H          -9.3087    5.8946  -16.8621 H         1 1BR702      0.0000 
     34 H         -10.8559    6.7583  -16.8641 H         1 1BR702      0.0000 
     35 H          -8.2091    5.5355  -19.1241 H         1 1BR702      0.0000 
     36 H          -7.4950    6.6801  -21.1375 H         1 1BR702      0.0000 
     37 H         -10.5549    9.5056  -20.6031 H         1 1BR702      0.0000 
     38 H         -11.2705    8.3527  -18.5931 H         1 1BR702      0.0000 
     39 H         -10.9388    4.5913  -15.2752 H         1 1BR702      0.0000 
     40 H         -11.5317    0.9795  -10.8165 H         1 1BR702      0.0000 
     41 H          -9.3397   -0.9001  -15.5899 H         1 1BR702      0.0000 
     42 H         -10.4387   -1.9170  -15.0031 H         1 1BR702      0.0000 
     43 H         -10.5750   -1.3664  -16.5079 H         1 1BR702      0.0000 
     44 H          -8.4486    8.2246  -24.4019 H         1 1BR702      0.0000 
     45 H          -8.1883    6.9940  -23.3998 H         1 1BR702      0.0000 
     46 H          -9.6839    7.5355  -23.6368 H         1 1BR702      0.0000 
     47 H          -9.3251   10.7471  -21.9597 H         1 1BR702      0.0000 
     48 H          -9.1057   10.4898  -23.5320 H         1 1BR702      0.0000 
     49 H         -10.3661    9.8346  -22.7781 H         1 1BR702      0.0000 
     50 H          -6.4788    8.4805  -22.1055 H         1 1BR702      0.0000 
     51 H          -6.7829    9.6863  -23.1252 H         1 1BR702      0.0000 
     52 H          -6.9394    9.9142  -21.5409 H         1 1BR702      0.0000 
     53 H          -9.9325    5.1931  -11.9247 H         1 1BR702      0.0000 
     54 H          -9.2729    4.7567  -13.3249 H         1 1BR702      0.0000 
     55 H         -10.7746    5.3310  -13.2879 H         1 1BR702      0.0000 
@<TRIPOS>BOND
     1    2    1 1    
     2   41    1 1    
     3   42    1 1    
     4   43    1 1    
     5    3    2 1    
     6   27    2 1    
     7    4    3 ar   
     8   20    3 ar   
     9    5    4 ar   
    10   30    4 1    
    11    6    5 ar   
    12   31    5 1    
    13    7    6 1    
    14   19    6 ar   
    15    8    7 1    
    16   32    7 1    
    17    9    8 1    
    18   33    8 1    
    19   34    8 1    
    20   10    9 ar   
    21   14    9 ar   
    22   11   10 ar   
    23   35   10 1    
    24   12   11 ar   
    25   36   11 1    
    26   13   12 ar   
    27   15   12 1    
    28   14   13 ar   
    29   37   13 1    
    30   38   14 1    
    31   16   15 1    
    32   17   15 1    
    33   18   15 1    
    34   44   16 1    
    35   45   16 1    
    36   46   16 1    
    37   47   17 1    
    38   48   17 1    
    39   49   17 1    
    40   50   18 1    
    41   51   18 1    
    42   52   18 1    
    43   20   19 ar   
    44   39   19 1    
    45   21   20 1    
    46   22   21 2    
    47   25   21 1    
    48   23   22 1    
    49   27   22 1    
    50   24   23 2    
    51   40   23 1    
    52   25   24 1    
    53   26   25 1    
    54   53   26 1    
    55   54   26 1    
    56   55   26 1    
    57   28   27 2    
    58   29   27 2    
@<TRIPOS>SUBSTRUCTURE
     1 1BR702      1 GROUP   
@<TRIPOS>SET

