#    Name: 4KN1_1_CAVITY_N1_6.mol2
#    Modification time : Tue Mar 11 11:37:22 2014

@<TRIPOS>MOLECULE
4KN1_1_CAVITY_N1_6.mol2
  132     0     7     0     0
SMALL
NO_CHARGES


@<TRIPOS>ATOM
      1 O          22.3245  -36.3109    5.3392 O.2       2 ALA2        0.0000 
      2 O          21.1086  -37.6899    6.3975 O.2       2 ALA2        0.0000 
      3 O          21.9774  -37.7611    5.1768 O.2       2 ALA2        0.0000 
      4 DU         22.8463  -37.8324    3.9561 H         7 CUB7        0.0000 
      5 CZ         19.0238  -38.9976    8.6764 C.ar      5 PHE5        0.0000 
      6 CZ         19.8927  -39.0688    7.4558 C.ar      5 PHE5        0.0000 
      7 DU         20.7615  -39.1401    6.2351 H         7 CUB7        0.0000 
      8 O          21.6304  -39.2114    5.0144 O.2       2 ALA2        0.0000 
      9 O          22.4992  -39.2826    3.7938 O.2       2 ALA2        0.0000 
     10 DU         19.5456  -40.5191    7.2934 H         7 CUB7        0.0000 
     11 CA         20.4145  -40.5904    6.0727 C.3       6 GLY6        0.0000 
     12 CA         21.2833  -40.6616    4.8521 C.3       6 GLY6        0.0000 
     13 N          21.1520  -35.9344    4.4827 N.2       2 ALA2        0.0000 
     14 N          22.0209  -36.0057    3.2620 N.2       2 ALA2        0.0000 
     15 O          19.9361  -37.3134    5.5410 O.2       2 ALA2        0.0000 
     16 O          20.8050  -37.3847    4.3203 O.2       2 ALA2        0.0000 
     17 O          21.6738  -37.4559    3.0996 O.2       2 ALA2        0.0000 
     18 CZ         18.7202  -38.6924    6.5993 C.ar      5 PHE5        0.0000 
     19 O          19.5891  -38.7636    5.3786 O.2       2 ALA2        0.0000 
     20 O          20.4579  -38.8349    4.1579 O.2       2 ALA2        0.0000 
     21 N          17.5043  -40.0713    7.6576 N.2       2 ALA2        0.0000 
     22 DU         18.3732  -40.1426    6.4369 H         7 CUB7        0.0000 
     23 O          19.2420  -40.2139    5.2162 O.2       2 ALA2        0.0000 
     24 N          17.1573  -41.5216    7.4952 N.2       2 ALA2        0.0000 
     25 DU         18.0261  -41.5929    6.2745 H         7 CUB7        0.0000 
     26 CA         18.8950  -41.6641    5.0539 C.3       6 GLY6        0.0000 
     27 OD1        16.8102  -42.9718    7.3328 O.3       3 ASP3        0.0000 
     28 OD1        17.6791  -43.0431    6.1122 O.3       3 ASP3        0.0000 
     29 O          19.1107  -35.4867    4.8468 O.2       2 ALA2        0.0000 
     30 CZ         18.7637  -36.9369    4.6844 C.ar      5 PHE5        0.0000 
     31 N          19.6325  -37.0082    3.4638 N.2       2 ALA2        0.0000 
     32 CZ         20.5014  -37.0795    2.2431 C.ar      5 PHE5        0.0000 
     33 CZ         17.5478  -38.3159    5.7427 C.ar      5 PHE5        0.0000 
     34 CZ         18.4166  -38.3872    4.5221 C.ar      5 PHE5        0.0000 
     35 CZ         19.2855  -38.4584    3.3014 C.ar      5 PHE5        0.0000 
     36 N          17.2007  -39.7661    5.5804 N.2       2 ALA2        0.0000 
     37 CZ         18.0696  -39.8374    4.3597 C.ar      5 PHE5        0.0000 
     38 CZ         16.8537  -41.2164    5.4180 C.ar      5 PHE5        0.0000 
     39 CZ         16.7224  -36.4892    5.0486 C.ar      5 PHE5        0.0000 
     40 CZ         17.5912  -36.5605    3.8279 C.ar      5 PHE5        0.0000 
     41 CZ         18.4601  -36.6317    2.6073 C.ar      5 PHE5        0.0000 
     42 CA         16.3753  -37.9394    4.8862 C.3       6 GLY6        0.0000 
     43 CZ         17.2442  -38.0107    3.6656 C.ar      5 PHE5        0.0000 
     44 CA         16.0283  -39.3897    4.7239 C.3       6 GLY6        0.0000 
     45 CZ         16.8971  -39.4609    3.5032 C.ar      5 PHE5        0.0000 
     46 N          16.7658  -34.7337    3.1338 N.2       2 ALA2        0.0000 
     47 CA         17.6347  -34.8050    1.9131 C.3       6 GLY6        0.0000 
     48 CZ         15.5499  -36.1127    4.1921 C.ar      5 PHE5        0.0000 
     49 DU         16.4188  -36.1840    2.9714 H         7 CUB7        0.0000 
     50 CZ         17.2876  -36.2553    1.7508 C.ar      5 PHE5        0.0000 
     51 CA         15.2029  -37.5630    4.0297 C.3       6 GLY6        0.0000 
     52 CZ         16.0717  -37.6342    2.8091 C.ar      5 PHE5        0.0000 
     53 CZ         15.7247  -39.0845    2.6467 C.ar      5 PHE5        0.0000 
     54 CZ         14.7245  -34.2860    3.4979 C.ar      5 PHE5        0.0000 
     55 CZ         16.4622  -34.4285    1.0566 C.ar      5 PHE5        0.0000 
     56 CZ         14.3775  -35.7362    3.3356 C.ar      5 PHE5        0.0000 
     57 CZ         15.2463  -35.8075    2.1149 C.ar      5 PHE5        0.0000 
     58 CZ         16.1152  -35.8788    0.8942 C.ar      5 PHE5        0.0000 
     59 CA         16.9840  -35.9500   -0.3264 C.3       6 GLY6        0.0000 
     60 CA         13.1616  -37.1152    4.3939 C.3       6 GLY6        0.0000 
     61 CZ         14.0304  -37.1865    3.1732 C.ar      5 PHE5        0.0000 
     62 CZ         14.8993  -37.2577    1.9525 C.ar      5 PHE5        0.0000 
     63 CZ         14.5522  -38.7080    1.7902 C.ar      5 PHE5        0.0000 
     64 CZ         12.3362  -35.2885    3.6997 C.ar      5 PHE5        0.0000 
     65 CZ         13.2050  -35.3598    2.4790 C.ar      5 PHE5        0.0000 
     66 CZ         14.0739  -35.4310    1.2584 C.ar      5 PHE5        0.0000 
     67 CZ         14.9427  -35.5023    0.0377 C.ar      5 PHE5        0.0000 
     68 CZ         15.8116  -35.5736   -1.1829 C.ar      5 PHE5        0.0000 
     69 CA         11.1203  -36.6675    4.7580 C.3       6 GLY6        0.0000 
     70 CZ         11.9891  -36.7387    3.5374 C.ar      5 PHE5        0.0000 
     71 CZ         12.8580  -36.8100    2.3167 C.ar      5 PHE5        0.0000 
     72 DU         13.7268  -36.8813    1.0960 H         7 CUB7        0.0000 
     73 CZ         14.5957  -36.9525   -0.1246 C.ar      5 PHE5        0.0000 
     74 O          15.4645  -37.0238   -1.3453 O.2       2 ALA2        0.0000 
     75 CZ         13.3797  -38.3315    0.9337 C.ar      5 PHE5        0.0000 
     76 CZ         14.2486  -38.4028   -0.2870 C.ar      5 PHE5        0.0000 
     77 CZ         10.2949  -34.8408    4.0639 C.ar      5 PHE5        0.0000 
     78 CZ         11.1637  -34.9120    2.8432 C.ar      5 PHE5        0.0000 
     79 CZ         12.0326  -34.9833    1.6225 C.ar      5 PHE5        0.0000 
     80 CZ         12.9014  -35.0546    0.4019 C.ar      5 PHE5        0.0000 
     81 CZ         13.7703  -35.1258   -0.8188 C.ar      5 PHE5        0.0000 
     82 CZ         14.6391  -35.1971   -2.0395 C.ar      5 PHE5        0.0000 
     83 CA         15.5080  -35.2684   -3.2601 C.3       6 GLY6        0.0000 
     84 CZ          9.0790  -36.2197    5.1222 C.ar      5 PHE5        0.0000 
     85 CA          9.9478  -36.2910    3.9015 C.3       6 GLY6        0.0000 
     86 CZ         10.8167  -36.3623    2.6808 C.ar      5 PHE5        0.0000 
     87 CZ         11.6855  -36.4335    1.4602 C.ar      5 PHE5        0.0000 
     88 DU         12.5544  -36.5048    0.2395 H         7 CUB7        0.0000 
     89 CZ         13.4232  -36.5761   -0.9812 C.ar      5 PHE5        0.0000 
     90 O          14.2921  -36.6473   -2.2018 O.2       2 ALA2        0.0000 
     91 OG          8.7319  -37.6700    4.9598 O.2       1 SER1        0.0000 
     92 CZ          9.6007  -37.7412    3.7391 C.ar      5 PHE5        0.0000 
     93 CZ         10.4696  -37.8125    2.5185 C.ar      5 PHE5        0.0000 
     94 CZ         11.3384  -37.8838    1.2978 C.ar      5 PHE5        0.0000 
     95 CZ         12.2073  -37.9550    0.0771 C.ar      5 PHE5        0.0000 
     96 CZ         13.0761  -38.0263   -1.1435 C.ar      5 PHE5        0.0000 
     97 O           9.1224  -34.4643    3.2073 O.2       2 ALA2        0.0000 
     98 OG          9.9913  -34.5356    1.9867 O.2       1 SER1        0.0000 
     99 CZ         10.8601  -34.6068    0.7660 C.ar      5 PHE5        0.0000 
    100 CZ         11.7290  -34.6781   -0.4546 C.ar      5 PHE5        0.0000 
    101 CZ         12.5978  -34.7494   -1.6753 C.ar      5 PHE5        0.0000 
    102 CA         13.4667  -34.8206   -2.8960 C.3       6 GLY6        0.0000 
    103 CA         14.3355  -34.8919   -4.1166 C.3       6 GLY6        0.0000 
    104 CA         15.2044  -34.9632   -5.3373 C.3       6 GLY6        0.0000 
    105 OG          8.7753  -35.9145    3.0450 O.2       1 SER1        0.0000 
    106 OG          9.6442  -35.9858    1.8243 O.2       1 SER1        0.0000 
    107 OG         10.5130  -36.0571    0.6037 O.2       1 SER1        0.0000 
    108 DU         11.3819  -36.1283   -0.6170 H         7 CUB7        0.0000 
    109 CZ         12.2507  -36.1996   -1.8377 C.ar      5 PHE5        0.0000 
    110 CZ         13.1196  -36.2709   -3.0583 C.ar      5 PHE5        0.0000 
    111 CZ         13.9884  -36.3421   -4.2790 C.ar      5 PHE5        0.0000 
    112 CZ         14.8573  -36.4134   -5.4997 C.ar      5 PHE5        0.0000 
    113 CA          8.4283  -37.3648    2.8826 C.3       6 GLY6        0.0000 
    114 CA          9.2971  -37.4360    1.6620 C.3       6 GLY6        0.0000 
    115 CA         10.1660  -37.5073    0.4413 C.3       6 GLY6        0.0000 
    116 NZ          9.6877  -34.2304   -0.0905 N.2       4 LYS4        0.0000 
    117 NZ         10.5565  -34.3016   -1.3112 N.2       4 LYS4        0.0000 
    118 O          11.4254  -34.3729   -2.5318 O.2       2 ALA2        0.0000 
    119 CA         12.2942  -34.4442   -3.7525 C.3       6 GLY6        0.0000 
    120 OG         13.1631  -34.5154   -4.9732 O.2       1 SER1        0.0000 
    121 OG          9.3406  -35.6806   -0.2529 O.2       1 SER1        0.0000 
    122 CA         10.2094  -35.7519   -1.4735 C.3       6 GLY6        0.0000 
    123 CZ         11.0783  -35.8231   -2.6942 C.ar      5 PHE5        0.0000 
    124 CZ         12.8160  -35.9657   -5.1355 C.ar      5 PHE5        0.0000 
    125 CZ         13.6848  -36.0369   -6.3562 C.ar      5 PHE5        0.0000 
    126 CA          8.9935  -37.1308   -0.4152 C.3       6 GLY6        0.0000 
    127 CA         11.1217  -34.0677   -4.6090 C.3       6 GLY6        0.0000 
    128 OG         11.9906  -34.1389   -5.8297 O.2       1 SER1        0.0000 
    129 CZ         10.7747  -35.5179   -4.7714 C.ar      5 PHE5        0.0000 
    130 CZ         11.6435  -35.5892   -5.9920 C.ar      5 PHE5        0.0000 
    131 CZ         12.5124  -35.6604   -7.2127 C.ar      5 PHE5        0.0000 
    132 CZ         10.8181  -33.7625   -6.6862 C.ar      5 PHE5        0.0000 
@<TRIPOS>BOND
@<TRIPOS>SUBSTRUCTURE
     1 SER1       91 GROUP   
     2 ALA2        1 GROUP   
     3 ASP3       27 GROUP   
     4 LYS4      116 GROUP   
     5 PHE5        5 GROUP   
     6 GLY6       11 GROUP   
     7 CUB7        4 GROUP   
@<TRIPOS>SET

