#    Name: 4kn1_04J_1_INTS_M
#    Modification time : Tue Mar 25 08:04:46 2014

@<TRIPOS>MOLECULE
4kn1_04J_1_INTS_M
   54     0     9     0     0
SMALL
NO_CHARGES


@<TRIPOS>ATOM
      1 O          20.4395  -34.7880    3.0980 O.2       1 ALC1        0.0000 
      2 O          20.5710  -35.7250    4.0080 O.2       7 ALL1        0.0000 
      3 O          20.3080  -33.8510    2.1880 O.2       4 ALP1        0.0000 
      4 N          23.4030  -32.6310    4.6360 N.am      2 SEC2        0.0000 
      5 N          23.5810  -33.9760    4.8250 N.am      8 SEL2        0.0000 
      6 N          23.2250  -31.2860    4.4470 N.am      5 SEP2        0.0000 
      7 CA         14.0540  -33.7345   -3.6475 C.3       3 GLC5        0.0000 
      8 CA         13.0130  -35.2780   -3.7760 C.3       9 GLL5        0.0000 
      9 CA         15.0950  -32.1910   -3.5190 C.3       6 GLP5        0.0000 
     10 CA         13.7540  -34.2120   -5.5665 C.3       3 GLC5        0.0000 
     11 CA         14.4950  -33.1460   -7.3570 C.3       6 GLP5        0.0000 
     12 N          22.4140  -32.5215    5.0430 N.am      2 SEC2        0.0000 
     13 N          21.6030  -33.7570    5.6390 N.am      8 SEL2        0.0000 
     14 N          21.8170  -32.4325    6.3285 N.am      2 SEC2        0.0000 
     15 N          22.0310  -31.1080    7.0180 N.am      5 SEP2        0.0000 
     16 N          20.9025  -34.5670    6.6150 N.am      2 SEC2        0.0000 
     17 N          20.2020  -35.3770    7.5910 N.am      5 SEP2        0.0000 
     18 CA         10.4085  -36.4485   -2.8910 C.3       3 GLC5        0.0000 
     19 CA         11.6300  -35.1490   -1.8210 C.3       9 GLL5        0.0000 
     20 CA          9.1870  -37.7480   -3.9610 C.3       6 GLP5        0.0000 
     21 CA         12.6620  -38.0490    3.0670 C.3       3 GLC5        0.0000 
     22 CA         13.4360  -36.3020    2.5870 C.3       9 GLL5        0.0000 
     23 CA         11.8880  -39.7960    3.5470 C.3       6 GLP5        0.0000 
     24 CA         13.8180  -35.1920    4.3470 C.3       3 GLC5        0.0000 
     25 CA         14.2000  -34.0820    6.1070 C.3       6 GLP5        0.0000 
     26 CA         13.2115  -34.4290    1.9995 C.3       3 GLC5        0.0000 
     27 CA         12.9870  -32.5560    1.4120 C.3       6 GLP5        0.0000 
     28 CA         22.1290  -33.8015    3.2985 C.3       3 GLC5        0.0000 
     29 CA         21.9940  -35.6970    4.2890 C.3       9 GLL5        0.0000 
     30 CA         22.2640  -31.9060    2.3080 C.3       6 GLP5        0.0000 
     31 CA         21.6070  -35.6420    6.3890 C.3       3 GLC5        0.0000 
     32 CA         21.2200  -35.5870    8.4890 C.3       6 GLP5        0.0000 
     33 CA         21.3870  -35.4860    1.2990 C.3       3 GLC5        0.0000 
     34 CA         22.7840  -35.9300    3.0010 C.3       9 GLL5        0.0000 
     35 CA         19.9900  -35.0420   -0.4030 C.3       6 GLP5        0.0000 
     36 CA         23.0315  -34.4735    1.6200 C.3       3 GLC5        0.0000 
     37 CA         23.2790  -33.0170    0.2390 C.3       6 GLP5        0.0000 
     38 CA         18.1815  -34.1325    2.3615 C.3       3 GLC5        0.0000 
     39 CA         17.6140  -35.7300    3.8170 C.3       9 GLL5        0.0000 
     40 CA         18.7490  -32.5350    0.9060 C.3       6 GLP5        0.0000 
     41 CA         14.5065  -34.0230   -2.5840 C.3       3 GLC5        0.0000 
     42 CA         13.9180  -35.8550   -1.6490 C.3       9 GLL5        0.0000 
     43 O          13.5130  -33.6630   -5.8050 O.2       1 ALC1        0.0000 
     44 O          13.1530  -35.1350   -5.0890 O.2       7 ALL1        0.0000 
     45 O          13.8730  -32.1910   -6.5210 O.2       4 ALP1        0.0000 
     46 O           9.6445  -33.7715   -1.6815 O.2       1 ALC1        0.0000 
     47 O          10.4560  -34.8800   -1.2520 O.2       7 ALL1        0.0000 
     48 O           8.8330  -32.6630   -2.1110 O.2       4 ALP1        0.0000 
     49 N          21.6725  -39.5870    1.8155 N.am      2 SEC2        0.0000 
     50 N          22.9820  -38.6680    1.6950 N.am      8 SEL2        0.0000 
     51 N          20.3630  -40.5060    1.9360 N.am      5 SEP2        0.0000 
     52 CA         14.7310  -38.6482    4.5590 C.3       3 GLC5        0.0000 
     53 CA         16.4660  -38.2600    3.6630 C.3       9 GLL5        0.0000 
     54 CA         13.3870  -39.5990    5.5730 C.3       6 GLP5        0.0000 
@<TRIPOS>BOND
@<TRIPOS>SUBSTRUCTURE
     1 ALC1        1 GROUP        1 X    ALC  0     ROOT ALC X 1
     2 SEC2        4 GROUP        1 X    SEC  0     **** SEC X 2
     3 GLC5        7 GROUP        1 X    GLC  0     **** GLC X 6
     4 ALP1        3 GROUP        1 Y    ALP  0     ROOT ALP Y 8
     5 SEP2        6 GROUP        1 Y    SEP  0     **** SEP Y 9
     6 GLP5        9 GROUP        1 Y    GLP  0     **** GLP Y 13
     7 ALL1        2 GROUP        1 Z    ALL  0     ROOT ALL Z 15
     8 SEL2        5 GROUP        1 Z    SEL  0     **** SEL Z 16
     9 GLL5        8 GROUP        1 Z    GLL  0     **** GLL Z 20
@<TRIPOS>SET

