#    Name: 4kn1_04J_1_ligand
#    Modification time : Tue Mar 25 08:04:46 2014

@<TRIPOS>MOLECULE
4kn1_04J_1_ligand
   50    52     1     0     0
SMALL
NO_CHARGES


@<TRIPOS>ATOM
      1 C          19.8560  -36.7780    4.3790 C.2       1 04J301      0.0000 
      2 N          20.5710  -35.7250    4.0080 N.am      1 04J301      0.0000 
      3 O          20.4610  -37.8390    5.0780 O.2       1 04J301      0.0000 
      4 N1         14.0760  -35.7080   -3.0120 N.ar      1 04J301      0.0000 
      5 O1         23.5810  -33.9760    4.8250 O.co2     1 04J301      0.0000 
      6 C2         13.0130  -35.2780   -3.7760 C.ar      1 04J301      0.0000 
      7 O2         21.6030  -33.7570    5.6390 O.co2     1 04J301      0.0000 
      8 N3         11.7990  -34.9990   -3.1840 N.ar      1 04J301      0.0000 
      9 C4         11.6300  -35.1490   -1.8210 C.ar      1 04J301      0.0000 
     10 N5         12.5430  -35.7180    0.3200 N.ar      1 04J301      0.0000 
     11 C6         13.6070  -36.1460    1.0920 C.ar      1 04J301      0.0000 
     12 C7         14.8250  -36.4300    0.4860 C.ar      1 04J301      0.0000 
     13 N8         14.9780  -36.2800   -0.8790 N.ar      1 04J301      0.0000 
     14 C9         13.4360  -36.3020    2.5870 C.3       1 04J301      0.0000 
     15 CA         21.9940  -35.6970    4.2890 C.3       1 04J301      0.0000 
     16 CB         22.7840  -35.9300    3.0010 C.3       1 04J301      0.0000 
     17 CD         23.2950  -38.3760    2.8690 C.2       1 04J301      0.0000 
     18 CG         23.8480  -37.0080    3.1930 C.3       1 04J301      0.0000 
     19 CT         22.4160  -34.4120    4.9510 C.2       1 04J301      0.0000 
     20 N10        14.3090  -37.3320    3.1210 N.pl3     1 04J301      0.0000 
     21 C11        18.3940  -36.8660    4.0450 C.ar      1 04J301      0.0000 
     22 C12        17.8150  -38.1270    3.9670 C.ar      1 04J301      0.0000 
     23 C13        16.4660  -38.2600    3.6630 C.ar      1 04J301      0.0000 
     24 C14        15.6840  -37.1350    3.4270 C.ar      1 04J301      0.0000 
     25 C15        16.2580  -35.8670    3.5100 C.ar      1 04J301      0.0000 
     26 C16        17.6140  -35.7300    3.8170 C.ar      1 04J301      0.0000 
     27 C4A        12.6980  -35.5750   -1.0450 C.ar      1 04J301      0.0000 
     28 C8A        13.9180  -35.8550   -1.6490 C.ar      1 04J301      0.0000 
     29 NA2        13.1530  -35.1350   -5.0890 N.pl3     1 04J301      0.0000 
     30 NA4        10.4560  -34.8800   -1.2520 N.pl3     1 04J301      0.0000 
     31 OE1        22.9820  -38.6680    1.6950 O.co2     1 04J301      0.0000 
     32 OE2        23.1410  -39.2300    3.7690 O.co2     1 04J301      0.0000 
     33 H          20.1756  -34.9108    3.5247 H         1 04J301      0.0000 
     34 H          15.6179  -36.7547    1.0621 H         1 04J301      0.0000 
     35 H          12.3794  -36.5411    2.7916 H         1 04J301      0.0000 
     36 H          13.6434  -35.3292    3.0627 H         1 04J301      0.0000 
     37 H          22.2475  -36.5261    4.9683 H         1 04J301      0.0000 
     38 H          23.2655  -34.9984    2.7025 H         1 04J301      0.0000 
     39 H          22.0985  -36.2378    2.2109 H         1 04J301      0.0000 
     40 H          24.1921  -36.9872    4.2283 H         1 04J301      0.0000 
     41 H          24.6954  -36.7910    2.5407 H         1 04J301      0.0000 
     42 H          13.8896  -38.2731    3.2868 H         1 04J301      0.0000 
     43 H          18.3886  -38.9662    4.1353 H         1 04J301      0.0000 
     44 H          16.0417  -39.1986    3.6120 H         1 04J301      0.0000 
     45 H          15.6837  -35.0311    3.3453 H         1 04J301      0.0000 
     46 H          18.0357  -34.7972    3.8748 H         1 04J301      0.0000 
     47 H          12.9461  -35.9407   -5.6439 H         1 04J301      0.0000 
     48 H          13.4527  -34.2345   -5.4040 H         1 04J301      0.0000 
     49 H           9.9288  -34.1355   -1.6616 H         1 04J301      0.0000 
     50 H          10.2076  -35.4467   -0.4665 H         1 04J301      0.0000 
@<TRIPOS>BOND
     1    2    1 am   
     2    3    1 2    
     3   21    1 1    
     4   15    2 1    
     5   33    2 1    
     6    6    4 ar   
     7   28    4 ar   
     8   19    5 ar   
     9    8    6 ar   
    10   29    6 1    
    11   19    7 ar   
    12    9    8 ar   
    13   27    9 ar   
    14   30    9 1    
    15   11   10 ar   
    16   27   10 ar   
    17   12   11 ar   
    18   14   11 1    
    19   13   12 ar   
    20   34   12 1    
    21   28   13 ar   
    22   20   14 1    
    23   35   14 1    
    24   36   14 1    
    25   16   15 1    
    26   19   15 1    
    27   37   15 1    
    28   18   16 1    
    29   38   16 1    
    30   39   16 1    
    31   18   17 1    
    32   31   17 ar   
    33   32   17 ar   
    34   40   18 1    
    35   41   18 1    
    36   24   20 1    
    37   42   20 1    
    38   22   21 ar   
    39   26   21 ar   
    40   23   22 ar   
    41   43   22 1    
    42   24   23 ar   
    43   44   23 1    
    44   25   24 ar   
    45   26   25 ar   
    46   45   25 1    
    47   46   26 1    
    48   28   27 ar   
    49   47   29 1    
    50   48   29 1    
    51   49   30 1    
    52   50   30 1    
@<TRIPOS>SUBSTRUCTURE
     1 04J301      1 GROUP   
@<TRIPOS>SET

