#    Name: 1jha_AAM_1_INTS_M
#    Modification time : Tue Mar 25 08:55:18 2014

@<TRIPOS>MOLECULE
1jha_AAM_1_INTS_M
   48     0     9     0     0
SMALL
NO_CHARGES


@<TRIPOS>ATOM
      1 CA         55.6455   43.1055   13.5965 C.3       3 GLC5        0.0000 
      2 CA         57.4330   42.1060   13.7830 C.3       9 GLL5        0.0000 
      3 CA         53.8580   44.1050   13.4100 C.3       6 GLP5        0.0000 
      4 N          58.1570   43.1145   16.0970 N.am      2 SEC2        0.0000 
      5 N          58.1390   42.9020   14.6200 N.am      8 SEL2        0.0000 
      6 N          58.1750   43.3270   17.5740 N.am      5 SEP2        0.0000 
      7 CA         60.9275   42.6280   14.3620 C.3       3 GLC5        0.0000 
      8 CA         59.2640   43.3490   14.0270 C.3       9 GLL5        0.0000 
      9 CA         62.5910   41.9070   14.6970 C.3       6 GLP5        0.0000 
     10 CA         59.6810   42.5935   15.7925 C.3       3 GLC5        0.0000 
     11 CA         60.0980   41.8380   17.5580 C.3       6 GLP5        0.0000 
     12 CA         58.7615   42.7450    9.7720 C.3       3 GLC5        0.0000 
     13 CA         58.9920   42.2580   11.9500 C.3       9 GLL5        0.0000 
     14 CA         58.5310   43.2320    7.5940 C.3       6 GLP5        0.0000 
     15 N          58.3370   36.7405    5.1975 N.am      2 SEC2        0.0000 
     16 N          59.1570   38.0420    5.2480 N.am      8 SEL2        0.0000 
     17 N          57.5170   35.4390    5.1470 N.am      5 SEP2        0.0000 
     18 N          58.2930   37.9490    4.3105 N.am      2 SEC2        0.0000 
     19 N          57.4290   37.8560    3.3730 N.am      5 SEP2        0.0000 
     20 N          58.6395   41.5115    5.2375 N.am      2 SEC2        0.0000 
     21 N          59.5570   40.4450    5.1260 N.am      8 SEL2        0.0000 
     22 N          57.7220   42.5780    5.3490 N.am      5 SEP2        0.0000 
     23 N          59.8000   40.4460    3.8530 N.am      2 SEC2        0.0000 
     24 N          60.0430   40.4470    2.5800 N.am      5 SEP2        0.0000 
     25 N          61.1890   37.9500    7.1540 N.am      2 SEC2        0.0000 
     26 N          60.6720   39.1230    6.8280 N.am      8 SEL2        0.0000 
     27 N          61.7060   36.7770    7.4800 N.am      5 SEP2        0.0000 
     28 CA         56.7070   38.1565    6.5130 C.3       3 GLC5        0.0000 
     29 CA         57.6720   38.5180    7.8920 C.3       9 GLL5        0.0000 
     30 CA         55.7420   37.7950    5.1340 C.3       6 GLP5        0.0000 
     31 CA         58.5690   36.4390   11.1885 C.3       3 GLC5        0.0000 
     32 CA         57.2380   38.0310   10.3560 C.3       9 GLL5        0.0000 
     33 CA         59.9000   34.8470   12.0210 C.3       6 GLP5        0.0000 
     34 N          58.3365   36.7565   12.1395 N.am      2 SEC2        0.0000 
     35 N          57.9180   38.0320   11.6110 N.am      8 SEL2        0.0000 
     36 N          58.7550   35.4810   12.6680 N.am      5 SEP2        0.0000 
     37 O          55.1035   37.1650   11.5215 O.2       1 ALC1        0.0000 
     38 O          55.4400   38.4490   11.7470 O.2       7 ALL1        0.0000 
     39 O          54.7670   35.8810   11.2960 O.2       4 ALP1        0.0000 
     40 O          54.0445   37.4215   11.7610 O.2       1 ALC1        0.0000 
     41 O          52.6490   36.3940   11.7750 O.2       4 ALP1        0.0000 
     42 CA         57.5957   40.2583   14.3558 C.3       3 GLC5        0.0000 
     43 CA         57.7740   41.7210   12.4880 C.3       9 GLL5        0.0000 
     44 CA         57.5880   38.6030   15.5760 C.3       6 GLP5        0.0000 
     45 CA         59.6085   40.5742   12.4765 C.3       3 GLC5        0.0000 
     46 CA         60.8340   39.1590   12.7340 C.3       6 GLP5        0.0000 
     47 CA         59.2223   38.7922   11.2875 C.3       3 GLC5        0.0000 
     48 CA         57.9830   38.8200    9.3260 C.3       9 GLL5        0.0000 
@<TRIPOS>BOND
@<TRIPOS>SUBSTRUCTURE
     1 ALC1       37 GROUP        1 X    ALC  0     ROOT ALC X 1
     2 SEC2        4 GROUP        1 X    SEC  0     **** SEC X 2
     3 GLC5        1 GROUP        1 X    GLC  0     **** GLC X 6
     4 ALP1       39 GROUP        1 Y    ALP  0     ROOT ALP Y 8
     5 SEP2        6 GROUP        1 Y    SEP  0     **** SEP Y 9
     6 GLP5        3 GROUP        1 Y    GLP  0     **** GLP Y 13
     7 ALL1       38 GROUP        1 Z    ALL  0     ROOT ALL Z 15
     8 SEL2        5 GROUP        1 Z    SEL  0     **** SEL Z 16
     9 GLL5        2 GROUP        1 Z    GLL  0     **** GLL Z 20
@<TRIPOS>SET

