#    Name: 1jha_AAM_1_ligand
#    Modification time : Tue Mar 25 08:55:18 2014

@<TRIPOS>MOLECULE
1jha_AAM_1_ligand
   34    36     1     0     0
SMALL
NO_CHARGES


@<TRIPOS>ATOM
      1 C8A        55.9160   40.7670   12.9740 C.2       1 AAM990      0.0000 
      2 N9A        56.2480   41.4700   14.0790 N.2       1 AAM990      0.0000 
      3 C4A        57.4330   42.1060   13.7830 C.ar      1 AAM990      0.0000 
      4 C5A        57.7740   41.7210   12.4880 C.ar      1 AAM990      0.0000 
      5 N7A        56.7730   40.8930   11.9410 N.pl3     1 AAM990      0.0000 
      6 N3A        58.1390   42.9020   14.6200 N.ar      1 AAM990      0.0000 
      7 C2A        59.2640   43.3490   14.0270 C.ar      1 AAM990      0.0000 
      8 N1A        59.7050   43.0900   12.7530 N.ar      1 AAM990      0.0000 
      9 C6A        58.9920   42.2580   11.9500 C.ar      1 AAM990      0.0000 
     10 N6A        59.5290   42.0310   10.6440 N.pl3     1 AAM990      0.0000 
     11 P          59.4200   39.2830    6.0500 P.3       1 AAM990      0.0000 
     12 O1P        59.1570   38.0420    5.2480 O.co2     1 AAM990      0.0000 
     13 O2P        59.5570   40.4450    5.1260 O.co2     1 AAM990      0.0000 
     14 O3P        60.6720   39.1230    6.8280 O.co2     1 AAM990      0.0000 
     15 O6'        58.2460   39.5610    7.1020 O.3       1 AAM990      0.0000 
     16 C5'        57.6720   38.5180    7.8920 C.3       1 AAM990      0.0000 
     17 C4'        57.9830   38.8200    9.3260 C.3       1 AAM990      0.0000 
     18 O5'        57.7060   40.2060    9.6500 O.3       1 AAM990      0.0000 
     19 C3'        57.2380   38.0310   10.3560 C.3       1 AAM990      0.0000 
     20 O3'        57.9180   38.0320   11.6110 O.3       1 AAM990      0.0000 
     21 C2'        56.0000   38.8780   10.4930 C.3       1 AAM990      0.0000 
     22 O2'        55.4400   38.4490   11.7470 O.3       1 AAM990      0.0000 
     23 C1'        56.5720   40.3010   10.5490 C.3       1 AAM990      0.0000 
     24 H          55.0894   40.1920   12.9270 H         1 AAM990      0.0000 
     25 H          59.9097   43.9970   14.6257 H         1 AAM990      0.0000 
     26 H          58.0947   37.5461    7.6397 H         1 AAM990      0.0000 
     27 H          56.5903   38.4733    7.7707 H         1 AAM990      0.0000 
     28 H          59.0621   38.6515    9.5022 H         1 AAM990      0.0000 
     29 H          56.9795   37.1031    9.9872 H         1 AAM990      0.0000 
     30 H          55.3992   38.7478    9.6772 H         1 AAM990      0.0000 
     31 H          55.7891   40.9224   10.0128 H         1 AAM990      0.0000 
     32 H          58.8935   41.3921   10.2105 H         1 AAM990      0.0000 
     33 H          57.2178   38.2689   12.2845 H         1 AAM990      0.0000 
     34 H          55.1772   37.4954   11.6002 H         1 AAM990      0.0000 
@<TRIPOS>BOND
     1    2    1 2    
     2    5    1 1    
     3   24    1 1    
     4    3    2 1    
     5    4    3 ar   
     6    6    3 ar   
     7    5    4 1    
     8    9    4 ar   
     9   23    5 1    
    10    7    6 ar   
    11    8    7 ar   
    12   25    7 1    
    13    9    8 ar   
    14   10    9 1    
    15   32   10 1    
    16   12   11 ar   
    17   13   11 ar   
    18   14   11 ar   
    19   15   11 1    
    20   16   15 1    
    21   17   16 1    
    22   26   16 1    
    23   27   16 1    
    24   18   17 1    
    25   19   17 1    
    26   28   17 1    
    27   23   18 1    
    28   20   19 1    
    29   21   19 1    
    30   29   19 1    
    31   33   20 1    
    32   22   21 1    
    33   23   21 1    
    34   30   21 1    
    35   34   22 1    
    36   31   23 1    
@<TRIPOS>SUBSTRUCTURE
     1 AAM990      1 GROUP   
@<TRIPOS>SET

