#    Name: 1b6p_PI7_1_INTS_M
#    Modification time : Mon Mar 24 19:26:06 2014

@<TRIPOS>MOLECULE
1b6p_PI7_1_INTS_M
  106     0    12     0     0
SMALL
NO_CHARGES


@<TRIPOS>ATOM
      1 CA          2.4550    5.9840   10.4385 C.3       4 GLC5        0.0000 
      2 CA          3.4360    4.5310    9.1740 C.3      12 GLL5        0.0000 
      3 CA          1.4740    7.4370   11.7030 C.3       8 GLP5        0.0000 
      4 N           2.7730    5.1445   12.5650 N.am      2 SEC2        0.0000 
      5 N           3.7610    4.4410   11.5530 N.am     10 SEL2        0.0000 
      6 N           1.7850    5.8480   13.5770 N.am      6 SEP2        0.0000 
      7 O           3.1125    1.6895    9.3545 O.2       1 ALC1        0.0000 
      8 O           2.9830    2.5800   10.5530 O.2       9 ALL1        0.0000 
      9 O           3.2420    0.7990    8.1560 O.2       5 ALP1        0.0000 
     10 CA          2.6595    2.9575   13.4675 C.3       4 GLC5        0.0000 
     11 CA          2.8660    1.8050   11.8030 C.3      12 GLL5        0.0000 
     12 CA          2.4530    4.1100   15.1320 C.3       8 GLP5        0.0000 
     13 CA         -0.7255    0.1965   12.6170 C.3       4 GLC5        0.0000 
     14 CA          1.4310    0.1730   13.0840 C.3      12 GLL5        0.0000 
     15 CA         -2.8820    0.2200   12.1500 C.3       8 GLP5        0.0000 
     16 CA          0.5650   -1.1440   14.3775 C.3       4 GLC5        0.0000 
     17 CA         -0.3010   -2.4610   15.6710 C.3       8 GLP5        0.0000 
     18 CA         -1.1355    3.3970   11.4645 C.3       4 GLC5        0.0000 
     19 CA          0.3740    1.8040   11.5190 C.3      12 GLL5        0.0000 
     20 CA         -2.6450    4.9900   11.4100 C.3       8 GLP5        0.0000 
     21 CA         -1.2540    1.0120   11.8345 C.3       4 GLC5        0.0000 
     22 CA         -0.7310    0.9410   10.0785 C.3       4 GLC5        0.0000 
     23 CA         -1.8360    0.0780    8.6380 C.3       8 GLP5        0.0000 
     24 O           5.0825    2.5995   13.8965 O.2       1 ALC1        0.0000 
     25 O           4.9680    1.4910   12.9750 O.2       9 ALL1        0.0000 
     26 O           5.1970    3.7080   14.8180 O.2       5 ALP1        0.0000 
     27 CA          8.1535    3.5075   14.0670 C.3       4 GLC5        0.0000 
     28 CA          7.4100    1.6560   13.1960 C.3      12 GLL5        0.0000 
     29 CA          8.8970    5.3590   14.9380 C.3       8 GLP5        0.0000 
     30 CA          9.0960    0.7575   13.7510 C.3       4 GLC5        0.0000 
     31 CA         10.7820   -0.1410   14.3060 C.3       8 GLP5        0.0000 
     32 CA          8.3550   -0.6065   11.1670 C.3       4 GLC5        0.0000 
     33 CA          7.6380    1.4560   10.6930 C.3      12 GLL5        0.0000 
     34 CA          9.0720   -2.6690   11.6410 C.3       8 GLP5        0.0000 
     35 CA          8.1400    4.4980   13.2895 C.3       4 GLC5        0.0000 
     36 CA          7.3830    3.6370   11.6410 C.3      12 GLL5        0.0000 
     37 O           7.5145    0.2700   16.2900 O.2       1 ALC1        0.0000 
     38 O           7.2830   -0.3770   15.2120 O.2       9 ALL1        0.0000 
     39 O           7.7460    0.9170   17.3680 O.2       5 ALP1        0.0000 
     40 OD1         4.3190    0.3770   17.4700 O.co2     3 ASC3        0.0000 
     41 OD1         4.8820   -0.9670   16.5060 O.co2    11 ASL3        0.0000 
     42 OD1         3.7560    1.7210   18.4340 O.co2     7 ASP3        0.0000 
     43 OD1         3.7260   -0.4730   17.1145 O.co2     3 ASC3        0.0000 
     44 OD1         2.5700    0.0210   17.7230 O.co2     7 ASP3        0.0000 
     45 OD1         5.6630    0.1560   17.7955 O.co2     3 ASC3        0.0000 
     46 OD1         6.4440    1.2790   19.0850 O.co2     7 ASP3        0.0000 
     47 OD1         6.3140   -0.0250   16.9370 O.co2     3 ASC3        0.0000 
     48 OD1         7.7460    0.9170   17.3680 O.co2     7 ASP3        0.0000 
     49 CA          4.6660   -1.6630   18.8050 C.3       4 GLC5        0.0000 
     50 CA          4.6710   -2.4110   16.8090 C.3      12 GLL5        0.0000 
     51 CA          4.6610   -0.9150   20.8010 C.3       8 GLP5        0.0000 
     52 CA          2.4270   -2.8380   18.5860 C.3       4 GLC5        0.0000 
     53 CA          3.2320   -2.8410   16.5010 C.3      12 GLL5        0.0000 
     54 CA          1.6220   -2.8350   20.6710 C.3       8 GLP5        0.0000 
     55 CA          2.3310   -3.8860   19.2850 C.3       4 GLC5        0.0000 
     56 CA          3.0400   -4.9370   17.8990 C.3      12 GLL5        0.0000 
     57 CA          1.7095   -4.4630   13.8995 C.3       4 GLC5        0.0000 
     58 CA          3.0330   -5.1550   15.5170 C.3      12 GLL5        0.0000 
     59 CA          0.3860   -3.7710   12.2820 C.3       8 GLP5        0.0000 
     60 O           5.7630   -3.5865   18.4245 O.2       1 ALC1        0.0000 
     61 O           6.2620   -4.2000   17.1120 O.2       9 ALL1        0.0000 
     62 O           5.2640   -2.9730   19.7370 O.2       5 ALP1        0.0000 
     63 CA          7.5925   -3.9570   18.4370 C.3       4 GLC5        0.0000 
     64 CA          7.1980   -5.2890   16.7830 C.3      12 GLL5        0.0000 
     65 CA          7.9870   -2.6250   20.0910 C.3       8 GLP5        0.0000 
     66 N           7.8325   -5.4070   20.1285 N.am      2 SEC2        0.0000 
     67 N           7.1020   -6.1210   19.0450 N.am     10 SEL2        0.0000 
     68 N           8.5630   -4.6930   21.2120 N.am      6 SEP2        0.0000 
     69 CA         10.5440   -7.5870   15.6645 C.3       4 GLC5        0.0000 
     70 CA          9.6070   -6.0200   16.5900 C.3      12 GLL5        0.0000 
     71 CA         11.4810   -9.1540   14.7390 C.3       8 GLP5        0.0000 
     72 CA         11.9545   -3.5940   15.6790 C.3       4 GLC5        0.0000 
     73 CA         10.2840   -3.2030   15.6970 C.3      12 GLL5        0.0000 
     74 CA         13.6250   -3.9850   15.6610 C.3       8 GLP5        0.0000 
     75 O           6.6610   -7.6845   16.0050 O.2       1 ALC1        0.0000 
     76 O           6.5130   -7.5330   17.3840 O.2       9 ALL1        0.0000 
     77 O           6.8090   -7.8360   14.6260 O.2       5 ALP1        0.0000 
     78 CA          1.5400   -1.2620   12.0282 C.3       4 GLC5        0.0000 
     79 CA          1.5690   -3.0760   11.6260 C.3       8 GLP5        0.0000 
     80 CA          1.1812    2.1295   13.7834 C.3       4 GLC5        0.0000 
     81 CA          1.4200    3.0810   15.5920 C.3       8 GLP5        0.0000 
     82 CA          9.3398    2.6608   12.0850 C.3       4 GLC5        0.0000 
     83 CA         11.2300    3.3630   11.6620 C.3       8 GLP5        0.0000 
     84 CA          6.3078    0.2343    9.4455 C.3       4 GLC5        0.0000 
     85 CA          4.9580   -1.2630    8.8340 C.3       8 GLP5        0.0000 
     86 CA          9.2556    1.8501    8.7787 C.3       4 GLC5        0.0000 
     87 CA          7.5670    3.3770    9.2680 C.3      12 GLL5        0.0000 
     88 CA         10.8990    1.1460    7.8950 C.3       8 GLP5        0.0000 
     89 CA          1.2898   -5.2572   17.6275 C.3       4 GLC5        0.0000 
     90 CA          3.0550   -4.3340   16.6410 C.3      12 GLL5        0.0000 
     91 CA         -0.4680   -5.8790   17.9850 C.3       8 GLP5        0.0000 
     92 CA          1.2765   -6.2970   17.7220 C.3       4 GLC5        0.0000 
     93 CA          3.0240   -6.3180   18.0300 C.3      12 GLL5        0.0000 
     94 CA          1.2782   -5.8613   16.7805 C.3       4 GLC5        0.0000 
     95 CA          3.0160   -6.5320   15.6350 C.3      12 GLL5        0.0000 
     96 CA          1.3936   -3.4161   15.8575 C.3       4 GLC5        0.0000 
     97 CA          4.1843   -6.1303   14.1620 C.3       4 GLC5        0.0000 
     98 CA          5.3440   -6.4170   12.7480 C.3       8 GLP5        0.0000 
     99 CA          1.7511   -7.3799   15.2545 C.3       4 GLC5        0.0000 
    100 CA          0.4810   -8.2820   14.2770 C.3       8 GLP5        0.0000 
    101 CA          9.3340   -3.0833   13.6692 C.3       4 GLC5        0.0000 
    102 CA          8.9080   -3.7920   15.6980 C.3      12 GLL5        0.0000 
    103 CA         10.1890   -1.8192   15.0017 C.3       4 GLC5        0.0000 
    104 CA          9.3159   -2.8123   17.6716 C.3       4 GLC5        0.0000 
    105 CA          9.0940   -1.8680   19.3700 C.3       8 GLP5        0.0000 
    106 CA          9.3687    3.2996   10.9984 C.3       4 GLC5        0.0000 
@<TRIPOS>BOND
@<TRIPOS>SUBSTRUCTURE
     1 ALC1        7 GROUP        1 X    ALC  0     ROOT ALC X 1
     2 SEC2        4 GROUP        1 X    SEC  0     **** SEC X 2
     3 ASC3       40 GROUP        1 X    ASC  0     **** ASC X 3
     4 GLC5        1 GROUP        1 X    GLC  0     **** GLC X 6
     5 ALP1        9 GROUP        1 Y    ALP  0     ROOT ALP Y 8
     6 SEP2        6 GROUP        1 Y    SEP  0     **** SEP Y 9
     7 ASP3       42 GROUP        1 Y    ASP  0     **** ASP Y 10
     8 GLP5        3 GROUP        1 Y    GLP  0     **** GLP Y 13
     9 ALL1        8 GROUP        1 Z    ALL  0     ROOT ALL Z 15
    10 SEL2        5 GROUP        1 Z    SEL  0     **** SEL Z 16
    11 ASL3       41 GROUP        1 Z    ASL  0     **** ASL Z 17
    12 GLL5        2 GROUP        1 Z    GLL  0     **** GLL Z 20
@<TRIPOS>SET

