#    Name: 1b6p_PI7_1_ligand
#    Modification time : Mon Mar 24 19:26:06 2014

@<TRIPOS>MOLECULE
1b6p_PI7_1_ligand
  100   102     1     0     0
SMALL
NO_CHARGES


@<TRIPOS>ATOM
      1 C1          4.5630    4.0010    8.3210 C.3       1 PI7201      0.0000 
      2 C2          3.4360    4.5310    9.1740 C.3       1 PI7201      0.0000 
      3 C3          3.4030    3.8420   10.5380 C.2       1 PI7201      0.0000 
      4 O4          3.7610    4.4410   11.5530 O.2       1 PI7201      0.0000 
      5 N5          2.9830    2.5800   10.5530 N.am      1 PI7201      0.0000 
      6 C6          2.8660    1.8050   11.8030 C.3       1 PI7201      0.0000 
      7 C7          4.0830    0.9430   12.1490 C.2       1 PI7201      0.0000 
      8 O8          4.1980   -0.2060   11.7110 O.2       1 PI7201      0.0000 
      9 C9          1.5910    0.9310   11.7770 C.3       1 PI7201      0.0000 
     10 C10         1.4310    0.1730   13.0840 C.3       1 PI7201      0.0000 
     11 C11         0.3740    1.8040   11.5190 C.3       1 PI7201      0.0000 
     12 N12         4.9680    1.4910   12.9750 N.am      1 PI7201      0.0000 
     13 C13         6.1810    0.7720   13.3940 C.3       1 PI7201      0.0000 
     14 C14         7.4100    1.6560   13.1960 C.3       1 PI7201      0.0000 
     15 C15         7.4890    2.2610   11.8200 C.ar      1 PI7201      0.0000 
     16 C16         7.6380    1.4560   10.6930 C.ar      1 PI7201      0.0000 
     17 C17         7.3830    3.6370   11.6410 C.ar      1 PI7201      0.0000 
     18 C18         7.6770    2.0070    9.4210 C.ar      1 PI7201      0.0000 
     19 C19         7.4220    4.1990   10.3730 C.ar      1 PI7201      0.0000 
     20 C20         7.5670    3.3770    9.2680 C.ar      1 PI7201      0.0000 
     21 C21         6.0910    0.3320   14.8580 C.3       1 PI7201      0.0000 
     22 C22         4.8840   -0.5730   15.0820 C.3       1 PI7201      0.0000 
     23 O23         7.2830   -0.3770   15.2120 O.3       1 PI7201      0.0000 
     24 O24         7.5850    3.9280    8.0080 O.3       1 PI7201      0.0000 
     25 N25         4.8820   -0.9670   16.5060 N.4       1 PI7201      0.0000 
     26 C26         4.6710   -2.4110   16.8090 C.3       1 PI7201      0.0000 
     27 C27         3.2320   -2.8410   16.5010 C.3       1 PI7201      0.0000 
     28 C28         3.0550   -4.3340   16.6410 C.ar      1 PI7201      0.0000 
     29 C29         3.0400   -4.9370   17.8990 C.ar      1 PI7201      0.0000 
     30 C30         3.0240   -6.3180   18.0300 C.ar      1 PI7201      0.0000 
     31 C31         3.0330   -5.1550   15.5170 C.ar      1 PI7201      0.0000 
     32 C32         3.0160   -6.5320   15.6350 C.ar      1 PI7201      0.0000 
     33 C33         3.0180   -7.1120   16.8880 C.ar      1 PI7201      0.0000 
     34 O34         3.0420   -8.4890   16.9630 O.3       1 PI7201      0.0000 
     35 C35         3.7280   -8.9520   18.1170 C.3       1 PI7201      0.0000 
     36 C36         5.6430   -3.4390   16.2130 C.2       1 PI7201      0.0000 
     37 O37         5.7940   -3.5610   14.9950 O.2       1 PI7201      0.0000 
     38 N38         6.2620   -4.2000   17.1120 N.am      1 PI7201      0.0000 
     39 C39         7.1980   -5.2890   16.7830 C.3       1 PI7201      0.0000 
     40 C40         6.9550   -6.3660   17.8430 C.2       1 PI7201      0.0000 
     41 O41         7.1020   -6.1210   19.0450 O.2       1 PI7201      0.0000 
     42 C42         8.6750   -4.8280   16.8010 C.3       1 PI7201      0.0000 
     43 C43         8.9080   -3.7920   15.6980 C.3       1 PI7201      0.0000 
     44 C44         9.6070   -6.0200   16.5900 C.3       1 PI7201      0.0000 
     45 C45        10.2840   -3.2030   15.6970 C.3       1 PI7201      0.0000 
     46 N46         6.5130   -7.5330   17.3840 N.am      1 PI7201      0.0000 
     47 C47         6.2380   -8.6400   18.2810 C.3       1 PI7201      0.0000 
     48 C48         5.1030   -9.5230   17.7730 C.3       1 PI7201      0.0000 
     49 H           2.4820    4.3625    8.6691 H         1 PI7201      0.0000 
     50 H           3.5619    5.6058    9.3232 H         1 PI7201      0.0000 
     51 H           2.7134    2.0676    9.6868 H         1 PI7201      0.0000 
     52 H           2.7193    2.5136   12.6501 H         1 PI7201      0.0000 
     53 H           1.6877    0.2218   10.9676 H         1 PI7201      0.0000 
     54 H           4.8561    2.4462   13.3675 H         1 PI7201      0.0000 
     55 H           6.3124   -0.1186   12.7848 H         1 PI7201      0.0000 
     56 H           8.3122    1.0531   13.3854 H         1 PI7201      0.0000 
     57 H           7.3924    2.4584   13.9504 H         1 PI7201      0.0000 
     58 H           7.7207    0.4302   10.8097 H         1 PI7201      0.0000 
     59 H           7.2733    4.2501   12.4689 H         1 PI7201      0.0000 
     60 H           7.7868    1.4005    8.5996 H         1 PI7201      0.0000 
     61 H           7.3440    5.2153   10.2563 H         1 PI7201      0.0000 
     62 H           5.9723    1.2140   15.4679 H         1 PI7201      0.0000 
     63 H           4.9757   -1.4412   14.4443 H         1 PI7201      0.0000 
     64 H           3.9859   -0.0243   14.8350 H         1 PI7201      0.0000 
     65 H           4.7540   -2.5354   17.9411 H         1 PI7201      0.0000 
     66 H           2.9839   -2.5346   15.4809 H         1 PI7201      0.0000 
     67 H           2.5557   -2.3238   17.1874 H         1 PI7201      0.0000 
     68 H           3.0409   -4.3416   18.7460 H         1 PI7201      0.0000 
     69 H           3.0167   -6.7507   18.9586 H         1 PI7201      0.0000 
     70 H           3.0294   -4.7205   14.5741 H         1 PI7201      0.0000 
     71 H           3.0019   -7.1223   14.7917 H         1 PI7201      0.0000 
     72 H           3.1613   -9.7462   18.6386 H         1 PI7201      0.0000 
     73 H           3.8816   -8.1416   18.8542 H         1 PI7201      0.0000 
     74 H           6.1091   -4.0580   18.1502 H         1 PI7201      0.0000 
     75 H           6.9648   -5.7056   15.8266 H         1 PI7201      0.0000 
     76 H           8.8836   -4.3793   17.7511 H         1 PI7201      0.0000 
     77 H           8.1585   -2.9874   15.8127 H         1 PI7201      0.0000 
     78 H           8.7075   -4.2717   14.7223 H         1 PI7201      0.0000 
     79 H           6.3448   -7.7081   16.3741 H         1 PI7201      0.0000 
     80 H           5.9609   -8.2740   19.2845 H         1 PI7201      0.0000 
     81 H           7.1317   -9.2748   18.4083 H         1 PI7201      0.0000 
     82 H           5.1859   -9.6257   16.6860 H         1 PI7201      0.0000 
     83 H           5.1972  -10.5202   18.2156 H         1 PI7201      0.0000 
     84 H           5.4543    4.1483    8.7498 H         1 PI7201      0.0000 
     85 H           4.4750    3.0183    8.1580 H         1 PI7201      0.0000 
     86 H           4.5916    4.4452    7.4255 H         1 PI7201      0.0000 
     87 H           2.2062   -0.4341   13.2585 H         1 PI7201      0.0000 
     88 H           1.3616    0.7921   13.8663 H         1 PI7201      0.0000 
     89 H           0.6078   -0.3948   13.0857 H         1 PI7201      0.0000 
     90 H           0.2621    2.5032   12.2251 H         1 PI7201      0.0000 
     91 H           0.4379    2.2805   10.6422 H         1 PI7201      0.0000 
     92 H          -0.4702    1.2683   11.5006 H         1 PI7201      0.0000 
     93 H          10.5686   -5.7459   16.6001 H         1 PI7201      0.0000 
     94 H           9.4920   -6.7121   17.3026 H         1 PI7201      0.0000 
     95 H           9.4400   -6.4714   15.7134 H         1 PI7201      0.0000 
     96 H          10.9873   -3.9024   15.5694 H         1 PI7201      0.0000 
     97 H          10.4006   -2.5329   14.9640 H         1 PI7201      0.0000 
     98 H          10.4884   -2.7353   16.5569 H         1 PI7201      0.0000 
     99 H           7.2991   -0.3730   16.2118 H         1 PI7201      0.0000 
    100 H           8.1624    4.5054    8.5854 H         1 PI7201      0.0000 
@<TRIPOS>BOND
     1    2    1 1    
     2   84    1 1    
     3   85    1 1    
     4   86    1 1    
     5    3    2 1    
     6   49    2 1    
     7   50    2 1    
     8    4    3 2    
     9    5    3 am   
    10    6    5 1    
    11   51    5 1    
    12    7    6 1    
    13    9    6 1    
    14   52    6 1    
    15    8    7 2    
    16   12    7 am   
    17   10    9 1    
    18   11    9 1    
    19   53    9 1    
    20   87   10 1    
    21   88   10 1    
    22   89   10 1    
    23   90   11 1    
    24   91   11 1    
    25   92   11 1    
    26   13   12 1    
    27   54   12 1    
    28   14   13 1    
    29   21   13 1    
    30   55   13 1    
    31   15   14 1    
    32   56   14 1    
    33   57   14 1    
    34   16   15 ar   
    35   17   15 ar   
    36   18   16 ar   
    37   58   16 1    
    38   19   17 ar   
    39   59   17 1    
    40   20   18 ar   
    41   60   18 1    
    42   20   19 ar   
    43   61   19 1    
    44   24   20 1    
    45   22   21 1    
    46   23   21 1    
    47   62   21 1    
    48   25   22 1    
    49   63   22 1    
    50   64   22 1    
    51   99   23 1    
    52  100   24 1    
    53   26   25 1    
    54   27   26 1    
    55   36   26 1    
    56   65   26 1    
    57   28   27 1    
    58   66   27 1    
    59   67   27 1    
    60   29   28 ar   
    61   31   28 ar   
    62   30   29 ar   
    63   68   29 1    
    64   33   30 ar   
    65   69   30 1    
    66   32   31 ar   
    67   70   31 1    
    68   33   32 ar   
    69   71   32 1    
    70   34   33 1    
    71   35   34 1    
    72   48   35 1    
    73   72   35 1    
    74   73   35 1    
    75   37   36 2    
    76   38   36 am   
    77   39   38 1    
    78   74   38 1    
    79   40   39 1    
    80   42   39 1    
    81   75   39 1    
    82   41   40 2    
    83   46   40 am   
    84   43   42 1    
    85   44   42 1    
    86   76   42 1    
    87   45   43 1    
    88   77   43 1    
    89   78   43 1    
    90   93   44 1    
    91   94   44 1    
    92   95   44 1    
    93   96   45 1    
    94   97   45 1    
    95   98   45 1    
    96   47   46 1    
    97   79   46 1    
    98   48   47 1    
    99   80   47 1    
   100   81   47 1    
   101   82   48 1    
   102   83   48 1    
@<TRIPOS>SUBSTRUCTURE
     1 PI7201      1 GROUP   
@<TRIPOS>SET

