#    Name: 3zon_IK1_1_INTS_M
#    Modification time : Tue Mar 25 03:45:37 2014

@<TRIPOS>MOLECULE
3zon_IK1_1_INTS_M
   51     0     9     0     0
SMALL
NO_CHARGES


@<TRIPOS>ATOM
      1 O          17.7365   24.7950    4.6035 O.2       1 ALC1        0.0000 
      2 O          17.8830   24.3540    6.1030 O.2       7 ALL1        0.0000 
      3 O          17.5900   25.2360    3.1040 O.2       4 ALP1        0.0000 
      4 O          13.4065   22.1715    1.4845 O.2       1 ALC1        0.0000 
      5 O          12.7360   22.8230    2.7560 O.2       7 ALL1        0.0000 
      6 O          14.0770   21.5200    0.2130 O.2       4 ALP1        0.0000 
      7 N          16.7140   24.1875    8.8660 N.am      2 SEC2        0.0000 
      8 N          16.4510   23.5140    7.5960 N.am      8 SEL2        0.0000 
      9 N          16.9770   24.8610   10.1360 N.am      5 SEP2        0.0000 
     10 N          15.5275   23.3625    1.9140 N.am      2 SEC2        0.0000 
     11 N          14.8720   23.3260    3.2100 N.am      8 SEL2        0.0000 
     12 N          16.1830   23.3990    0.6180 N.am      5 SEP2        0.0000 
     13 CA         10.8505   24.6345   10.4640 C.3       3 GLC5        0.0000 
     14 CA         10.3890   22.7230    9.9660 C.3       9 GLL5        0.0000 
     15 CA         11.3120   26.5460   10.9620 C.3       6 GLP5        0.0000 
     16 CA         11.1550   24.5700    5.0565 C.3       3 GLC5        0.0000 
     17 CA         12.2660   22.9100    5.5440 C.3       9 GLL5        0.0000 
     18 CA         10.0440   26.2300    4.5690 C.3       6 GLP5        0.0000 
     19 CA         11.4425   20.8785    5.2560 C.3       3 GLC5        0.0000 
     20 CA         10.6190   18.8470    4.9680 C.3       6 GLP5        0.0000 
     21 O          16.6460   24.5725    4.3045 O.2       1 ALC1        0.0000 
     22 O          15.7020   23.9090    5.5050 O.2       7 ALL1        0.0000 
     23 CA         13.8795   25.4840    6.8765 C.3       3 GLC5        0.0000 
     24 CA         13.7830   23.4250    7.3620 C.3       9 GLL5        0.0000 
     25 CA         13.9760   27.5430    6.3910 C.3       6 GLP5        0.0000 
     26 CA         14.8975   24.6760    8.5900 C.3       3 GLC5        0.0000 
     27 CA         16.0120   25.9270    9.8180 C.3       6 GLP5        0.0000 
     28 CA          9.9790   20.2290    9.9805 C.3       3 GLC5        0.0000 
     29 CA          9.1630   22.2660    9.4960 C.3       9 GLL5        0.0000 
     30 CA         10.7950   18.1920   10.4650 C.3       6 GLP5        0.0000 
     31 CA         15.7745   22.2670    5.4425 C.3       3 GLC5        0.0000 
     32 CA         14.4460   23.5340    5.8070 C.3       9 GLL5        0.0000 
     33 CA         17.1030   21.0000    5.0780 C.3       6 GLP5        0.0000 
     34 CA          8.7967   23.9530    6.8993 C.3       3 GLC5        0.0000 
     35 CA         10.0150   22.3140    7.2460 C.3       9 GLL5        0.0000 
     36 CA          8.0950   25.7220    6.1090 C.3       6 GLP5        0.0000 
     37 CA          7.6302   23.4160    9.4713 C.3       3 GLC5        0.0000 
     38 CA          8.9820   22.0540    8.1330 C.3       9 GLL5        0.0000 
     39 CA          6.1880   24.6720   10.1280 C.3       6 GLP5        0.0000 
     40 CA         11.3735   24.7970    8.4307 C.3       3 GLC5        0.0000 
     41 CA         11.2580   22.7720    7.7060 C.3       9 GLL5        0.0000 
     42 CA         11.4060   26.7210    8.4670 C.3       6 GLP5        0.0000 
     43 CA         12.2188   24.9713    7.7925 C.3       3 GLC5        0.0000 
     44 CA         12.2800   23.0180    6.8740 C.3       9 GLL5        0.0000 
     45 CA         10.5456   20.6020    7.0749 C.3       3 GLC5        0.0000 
     46 CA         10.7130   18.7260    6.4520 C.3       6 GLP5        0.0000 
     47 CA         14.0237   25.0760    4.7010 C.3       3 GLC5        0.0000 
     48 CA         13.4550   23.2060    4.9430 C.3       9 GLL5        0.0000 
     49 CA         14.0970   26.7820    4.0270 C.3       6 GLP5        0.0000 
     50 CA         14.0678   21.5256    5.5506 C.3       3 GLC5        0.0000 
     51 CA         14.8940   19.8510    5.2370 C.3       6 GLP5        0.0000 
@<TRIPOS>BOND
@<TRIPOS>SUBSTRUCTURE
     1 ALC1        1 GROUP        1 X    ALC  0     ROOT ALC X 1
     2 SEC2        7 GROUP        1 X    SEC  0     **** SEC X 2
     3 GLC5       13 GROUP        1 X    GLC  0     **** GLC X 6
     4 ALP1        3 GROUP        1 Y    ALP  0     ROOT ALP Y 8
     5 SEP2        9 GROUP        1 Y    SEP  0     **** SEP Y 9
     6 GLP5       15 GROUP        1 Y    GLP  0     **** GLP Y 13
     7 ALL1        2 GROUP        1 Z    ALL  0     ROOT ALL Z 15
     8 SEL2        8 GROUP        1 Z    SEL  0     **** SEL Z 16
     9 GLL5       14 GROUP        1 Z    GLL  0     **** GLL Z 20
@<TRIPOS>SET

