#    Name: 3zon_IK1_1_ligand
#    Modification time : Tue Mar 25 03:45:37 2014

@<TRIPOS>MOLECULE
3zon_IK1_1_ligand
   29    30     1     0     0
SMALL
NO_CHARGES


@<TRIPOS>ATOM
      1 NAA        17.8830   24.3540    6.1030 N.am      1 IK11871     0.0000 
      2 NAB        12.7360   22.8230    2.7560 N.am      1 IK11871     0.0000 
      3 OAC        16.4510   23.5140    7.5960 O.2       1 IK11871     0.0000 
      4 OAD        14.8720   23.3260    3.2100 O.2       1 IK11871     0.0000 
      5 CAG         8.9820   22.0540    8.1330 C.ar      1 IK11871     0.0000 
      6 CAF        10.3890   22.7230    9.9660 C.ar      1 IK11871     0.0000 
      7 CAI        10.0150   22.3140    7.2460 C.ar      1 IK11871     0.0000 
      8 CAH        11.4240   22.9740    9.0830 C.ar      1 IK11871     0.0000 
      9 CAJ        12.2660   22.9100    5.5440 C.2       1 IK11871     0.0000 
     10 NAK        15.7020   23.9090    5.5050 N.am      1 IK11871     0.0000 
     11 SAL        13.7830   23.4250    7.3620 S.3       1 IK11871     0.0000 
     12 CAM        16.6590   23.9370    6.4640 C.2       1 IK11871     0.0000 
     13 CAN        13.7130   23.1640    3.6040 C.2       1 IK11871     0.0000 
     14 CAO         9.1630   22.2660    9.4960 C.ar      1 IK11871     0.0000 
     15 CAP        11.2580   22.7720    7.7060 C.ar      1 IK11871     0.0000 
     16 CAQ        12.2800   23.0180    6.8740 C.2       1 IK11871     0.0000 
     17 CAR        13.4550   23.2060    4.9430 C.2       1 IK11871     0.0000 
     18 CAS        14.4460   23.5340    5.8070 C.2       1 IK11871     0.0000 
     19 H          18.5946   24.2874    6.8024 H         1 IK11871     0.0000 
     20 H          17.9737   24.6940    5.1669 H         1 IK11871     0.0000 
     21 H          12.9969   22.7414    1.7941 H         1 IK11871     0.0000 
     22 H          11.8325   22.6803    3.1601 H         1 IK11871     0.0000 
     23 H           8.0787   21.7035    7.7849 H         1 IK11871     0.0000 
     24 H          10.5243   22.8745   10.9770 H         1 IK11871     0.0000 
     25 H           9.8746   22.1709    6.2330 H         1 IK11871     0.0000 
     26 H          12.3338   23.3148    9.4351 H         1 IK11871     0.0000 
     27 H          11.4573   22.6354    5.0158 H         1 IK11871     0.0000 
     28 H          15.9457   24.1812    4.5263 H         1 IK11871     0.0000 
     29 H           8.3942   22.0856   10.1517 H         1 IK11871     0.0000 
@<TRIPOS>BOND
     1   12    1 am   
     2   19    1 1    
     3   20    1 1    
     4   13    2 am   
     5   21    2 1    
     6   22    2 1    
     7   12    3 2    
     8   13    4 2    
     9    7    5 ar   
    10   14    5 ar   
    11   23    5 1    
    12    8    6 ar   
    13   14    6 ar   
    14   24    6 1    
    15   15    7 ar   
    16   25    7 1    
    17   15    8 ar   
    18   26    8 1    
    19   16    9 2    
    20   17    9 1    
    21   27    9 1    
    22   12   10 am   
    23   18   10 1    
    24   28   10 1    
    25   16   11 1    
    26   18   11 1    
    27   17   13 1    
    28   29   14 1    
    29   16   15 1    
    30   18   17 2    
@<TRIPOS>SUBSTRUCTURE
     1 IK11871     1 GROUP   
@<TRIPOS>SET

