#    Name: 2ewm_NAD_2_INTS_M
#    Modification time : Tue Mar 25 12:07:47 2014

@<TRIPOS>MOLECULE
2ewm_NAD_2_INTS_M
   75     0     9     0     0
SMALL
NO_CHARGES


@<TRIPOS>ATOM
      1 N          82.3470  -58.2645 -131.2765 N.am      2 SEC2        0.0000 
      2 N          81.7620  -57.5870 -132.4790 N.am      8 SEL2        0.0000 
      3 N          82.9320  -58.9420 -130.0740 N.am      5 SEP2        0.0000 
      4 CA         80.3130  -51.5830 -133.8790 C.3       3 GLC5        0.0000 
      5 CA         81.3910  -52.9030 -132.7370 C.3       9 GLL5        0.0000 
      6 CA         79.2350  -50.2630 -135.0210 C.3       6 GLP5        0.0000 
      7 O          82.4255  -51.5235 -135.5185 O.2       1 ALC1        0.0000 
      8 O          82.7190  -52.6980 -134.7770 O.2       7 ALL1        0.0000 
      9 O          82.1320  -50.3490 -136.2600 O.2       4 ALP1        0.0000 
     10 O          84.1720  -50.1060 -134.4895 O.2       1 ALC1        0.0000 
     11 O          84.3960  -50.9010 -133.4000 O.2       7 ALL1        0.0000 
     12 O          83.9480  -49.3110 -135.5790 O.2       4 ALP1        0.0000 
     13 CA         80.6825  -50.4930 -133.7560 C.3       3 GLC5        0.0000 
     14 CA         82.1300  -50.7230 -132.4910 C.3       9 GLL5        0.0000 
     15 CA         84.0805  -47.1755 -130.7005 C.3       3 GLC5        0.0000 
     16 CA         82.3180  -47.5810 -130.6450 C.3       9 GLL5        0.0000 
     17 CA         85.8430  -46.7700 -130.7560 C.3       6 GLP5        0.0000 
     18 CA         83.8925  -46.1540 -131.4195 C.3       3 GLC5        0.0000 
     19 CA         82.2880  -46.1730 -130.7450 C.3       9 GLL5        0.0000 
     20 CA         85.4970  -46.1350 -132.0940 C.3       6 GLP5        0.0000 
     21 CA         82.7620  -44.1190 -131.3655 C.3       3 GLC5        0.0000 
     22 CA         83.2360  -42.0650 -131.9860 C.3       6 GLP5        0.0000 
     23 O          82.8145  -43.9920 -129.4790 O.2       1 ALC1        0.0000 
     24 O          82.5090  -45.4020 -129.6910 O.2       7 ALL1        0.0000 
     25 O          83.1200  -42.5820 -129.2670 O.2       4 ALP1        0.0000 
     26 N          81.4485  -44.0535 -131.9005 N.am      2 SEC2        0.0000 
     27 N          82.0290  -45.5740 -131.9790 N.am      8 SEL2        0.0000 
     28 N          80.8680  -42.5330 -131.8220 N.am      5 SEP2        0.0000 
     29 CA         82.1395  -46.6095 -134.7750 C.3       3 GLC5        0.0000 
     30 CA         81.7890  -46.3590 -133.1040 C.3       9 GLL5        0.0000 
     31 CA         82.4900  -46.8600 -136.4460 C.3       6 GLP5        0.0000 
     32 CA         83.6430  -46.2470 -132.5990 C.3       3 GLC5        0.0000 
     33 CA         80.4490  -45.4995 -132.0140 C.3       3 GLC5        0.0000 
     34 CA         79.1090  -44.6400 -130.9240 C.3       6 GLP5        0.0000 
     35 CA         79.9700  -47.2965 -132.2630 C.3       3 GLC5        0.0000 
     36 CA         78.1510  -48.2340 -131.4220 C.3       6 GLP5        0.0000 
     37 N          83.1605  -47.3120 -134.0340 N.am      2 SEC2        0.0000 
     38 N          81.8370  -47.7440 -133.0230 N.am      8 SEL2        0.0000 
     39 N          84.4840  -46.8800 -135.0450 N.am      5 SEP2        0.0000 
     40 CA         83.7955  -47.2330 -131.9525 C.3       3 GLC5        0.0000 
     41 CA         82.0940  -48.3310 -131.8110 C.3       9 GLL5        0.0000 
     42 N          80.2255  -58.1825 -129.5060 N.am      2 SEC2        0.0000 
     43 N          79.3730  -57.9630 -130.8280 N.am      8 SEL2        0.0000 
     44 N          81.0780  -58.4020 -128.1840 N.am      5 SEP2        0.0000 
     45 N          77.8235  -58.2650 -134.2865 N.am      2 SEC2        0.0000 
     46 N          78.2740  -58.2440 -132.9620 N.am      8 SEL2        0.0000 
     47 N          77.3730  -58.2860 -135.6110 N.am      5 SEP2        0.0000 
     48 CA         77.4600  -52.4090 -128.1855 C.3       3 GLC5        0.0000 
     49 CA         76.4740  -54.0030 -128.7260 C.3       9 GLL5        0.0000 
     50 CA         78.4460  -50.8150 -127.6450 C.3       6 GLP5        0.0000 
     51 CA         77.9555  -55.5850 -126.6445 C.3       3 GLC5        0.0000 
     52 CA         76.2690  -55.0040 -127.6080 C.3       9 GLL5        0.0000 
     53 CA         79.6420  -56.1660 -125.6810 C.3       6 GLP5        0.0000 
     54 N          75.8205  -55.3850 -125.3800 N.am      2 SEC2        0.0000 
     55 N          75.9040  -54.3990 -126.3920 N.am      8 SEL2        0.0000 
     56 N          75.7370  -56.3710 -124.3680 N.am      5 SEP2        0.0000 
     57 N          74.9080  -53.3490 -126.0020 N.am      2 SEC2        0.0000 
     58 N          73.9120  -52.2990 -125.6120 N.am      5 SEP2        0.0000 
     59 CA         75.3120  -58.7050 -130.3285 C.3       3 GLC5        0.0000 
     60 CA         76.0570  -58.2300 -128.2740 C.3       9 GLL5        0.0000 
     61 CA         74.5670  -59.1800 -132.3830 C.3       6 GLP5        0.0000 
     62 N          76.5055  -63.0310 -128.5895 N.am      2 SEC2        0.0000 
     63 N          76.9130  -61.8570 -128.1040 N.am      8 SEL2        0.0000 
     64 N          76.0980  -64.2050 -129.0750 N.am      5 SEP2        0.0000 
     65 CA         80.7060  -45.7585 -130.8095 C.3       3 GLC5        0.0000 
     66 CA         80.1785  -48.0950 -131.3250 C.3       3 GLC5        0.0000 
     67 CA         81.4520  -47.1105 -128.7420 C.3       3 GLC5        0.0000 
     68 CA         80.6010  -47.3440 -126.7890 C.3       6 GLP5        0.0000 
     69 CA         73.9935  -59.1797 -128.7295 C.3       3 GLC5        0.0000 
     70 CA         71.9520  -59.4560 -129.3760 C.3       6 GLP5        0.0000 
     71 CA         73.2828  -57.9700 -125.1857 C.3       3 GLC5        0.0000 
     72 CA         74.1010  -59.0660 -126.4290 C.3       9 GLL5        0.0000 
     73 CA         72.4370  -57.5430 -123.7320 C.3       6 GLP5        0.0000 
     74 CA         73.1568  -59.0421 -128.0731 C.3       3 GLC5        0.0000 
     75 CA         74.1560  -57.7280 -126.8500 C.3       9 GLL5        0.0000 
@<TRIPOS>BOND
@<TRIPOS>SUBSTRUCTURE
     1 ALC1        7 GROUP        1 X    ALC  0     ROOT ALC X 1
     2 SEC2        1 GROUP        1 X    SEC  0     **** SEC X 2
     3 GLC5        4 GROUP        1 X    GLC  0     **** GLC X 6
     4 ALP1        9 GROUP        1 Y    ALP  0     ROOT ALP Y 8
     5 SEP2        3 GROUP        1 Y    SEP  0     **** SEP Y 9
     6 GLP5        6 GROUP        1 Y    GLP  0     **** GLP Y 13
     7 ALL1        8 GROUP        1 Z    ALL  0     ROOT ALL Z 15
     8 SEL2        2 GROUP        1 Z    SEL  0     **** SEL Z 16
     9 GLL5        5 GROUP        1 Z    GLL  0     **** GLL Z 20
@<TRIPOS>SET

