#    Name: 2ewm_NAD_2_ligand
#    Modification time : Tue Mar 25 12:07:47 2014

@<TRIPOS>MOLECULE
2ewm_NAD_2_ligand
   70    74     1     0     0
SMALL
NO_CHARGES


@<TRIPOS>ATOM
      1 PA         81.2730  -56.2640 -132.8940 P.3       1 NAD256      0.0000 
      2 O1A        81.7620  -57.5870 -132.4790 O.co2     1 NAD256      0.0000 
      3 O2A        81.5110  -55.8160 -134.3320 O.co2     1 NAD256      0.0000 
      4 O5B        81.8620  -55.1560 -131.9010 O.3       1 NAD256      0.0000 
      5 C5B        81.2040  -53.9260 -131.6070 C.3       1 NAD256      0.0000 
      6 C4B        81.3910  -52.9030 -132.7370 C.3       1 NAD256      0.0000 
      7 O4B        81.1000  -51.6420 -132.1420 O.3       1 NAD256      0.0000 
      8 C3B        82.7900  -52.8040 -133.3560 C.3       1 NAD256      0.0000 
      9 O3B        82.7190  -52.6980 -134.7770 O.3       1 NAD256      0.0000 
     10 C2B        83.3810  -51.5720 -132.6840 C.3       1 NAD256      0.0000 
     11 O2B        84.3960  -50.9010 -133.4000 O.3       1 NAD256      0.0000 
     12 C1B        82.1300  -50.7230 -132.4910 C.3       1 NAD256      0.0000 
     13 N9A        82.2060  -49.6480 -131.4810 N.pl3     1 NAD256      0.0000 
     14 C8A        82.4470  -49.7170 -130.1300 C.2       1 NAD256      0.0000 
     15 N7A        82.5270  -48.4570 -129.6390 N.2       1 NAD256      0.0000 
     16 C5A        82.3180  -47.5810 -130.6450 C.ar      1 NAD256      0.0000 
     17 C6A        82.2880  -46.1730 -130.7450 C.ar      1 NAD256      0.0000 
     18 N6A        82.5090  -45.4020 -129.6910 N.pl3     1 NAD256      0.0000 
     19 N1A        82.0290  -45.5740 -131.9790 N.ar      1 NAD256      0.0000 
     20 C2A        81.7890  -46.3590 -133.1040 C.ar      1 NAD256      0.0000 
     21 N3A        81.8370  -47.7440 -133.0230 N.ar      1 NAD256      0.0000 
     22 C4A        82.0940  -48.3310 -131.8110 C.ar      1 NAD256      0.0000 
     23 O3         79.6920  -56.1870 -132.5980 O.3       1 NAD256      0.0000 
     24 PN         78.6880  -57.2660 -131.9440 P.3       1 NAD256      0.0000 
     25 O1N        79.3730  -57.9630 -130.8280 O.co2     1 NAD256      0.0000 
     26 O2N        78.2740  -58.2440 -132.9620 O.co2     1 NAD256      0.0000 
     27 O5D        77.3920  -56.5070 -131.3810 O.3       1 NAD256      0.0000 
     28 C5D        77.5850  -55.3770 -130.5580 C.3       1 NAD256      0.0000 
     29 C4D        76.2750  -54.8330 -129.9850 C.3       1 NAD256      0.0000 
     30 O4D        75.3970  -55.8870 -129.6310 O.3       1 NAD256      0.0000 
     31 C3D        76.4740  -54.0030 -128.7260 C.3       1 NAD256      0.0000 
     32 O3D        75.5150  -52.9590 -128.6930 O.3       1 NAD256      0.0000 
     33 C2D        76.2690  -55.0040 -127.6080 C.3       1 NAD256      0.0000 
     34 O2D        75.9040  -54.3990 -126.3920 O.3       1 NAD256      0.0000 
     35 C1D        75.1910  -55.9140 -128.2230 C.3       1 NAD256      0.0000 
     36 N1N        75.1280  -57.3280 -127.7540 N.pl3     1 NAD256      0.0000 
     37 C2N        76.0570  -58.2300 -128.2740 C.ar      1 NAD256      0.0000 
     38 C3N        76.0130  -59.5770 -127.8920 C.ar      1 NAD256      0.0000 
     39 C7N        76.9920  -60.5450 -128.4940 C.2       1 NAD256      0.0000 
     40 O7N        76.9130  -61.8570 -128.1040 O.2       1 NAD256      0.0000 
     41 N7N        77.9170  -60.2000 -129.3740 N.am      1 NAD256      0.0000 
     42 C4N        75.0330  -59.9910 -126.9520 C.ar      1 NAD256      0.0000 
     43 C5N        74.1010  -59.0660 -126.4290 C.ar      1 NAD256      0.0000 
     44 C6N        74.1560  -57.7280 -126.8500 C.ar      1 NAD256      0.0000 
     45 H          81.5898  -53.4672 -130.6810 H         1 NAD256      0.0000 
     46 H          80.1189  -54.0663 -131.4668 H         1 NAD256      0.0000 
     47 H          80.6713  -53.1103 -133.5115 H         1 NAD256      0.0000 
     48 H          83.3429  -53.6598 -133.0188 H         1 NAD256      0.0000 
     49 H          83.6840  -51.8813 -131.6840 H         1 NAD256      0.0000 
     50 H          81.8835  -50.2891 -133.4725 H         1 NAD256      0.0000 
     51 H          82.5415  -50.5307 -129.6266 H         1 NAD256      0.0000 
     52 H          82.6782  -45.8759 -128.8269 H         1 NAD256      0.0000 
     53 H          82.4866  -44.4158 -129.8549 H         1 NAD256      0.0000 
     54 H          81.5735  -45.9047 -134.0060 H         1 NAD256      0.0000 
     55 H          78.0720  -54.5439 -131.1077 H         1 NAD256      0.0000 
     56 H          78.2498  -55.6016 -129.6972 H         1 NAD256      0.0000 
     57 H          75.8116  -54.1916 -130.7308 H         1 NAD256      0.0000 
     58 H          77.4780  -53.6689 -128.7088 H         1 NAD256      0.0000 
     59 H          77.1724  -55.5964 -127.5542 H         1 NAD256      0.0000 
     60 H          74.2150  -55.4273 -128.0156 H         1 NAD256      0.0000 
     61 H          76.7721  -57.9096 -128.9352 H         1 NAD256      0.0000 
     62 H          78.4697  -60.9455 -129.7466 H         1 NAD256      0.0000 
     63 H          77.9798  -59.2250 -129.5870 H         1 NAD256      0.0000 
     64 H          75.0033  -60.9696 -126.6517 H         1 NAD256      0.0000 
     65 H          73.4018  -59.3700 -125.7571 H         1 NAD256      0.0000 
     66 H          73.4747  -57.0534 -126.4849 H         1 NAD256      0.0000 
     67 H          82.5304  -51.7323 -134.9553 H         1 NAD256      0.0000 
     68 H          83.9148  -50.3852 -134.1088 H         1 NAD256      0.0000 
     69 H          75.0360  -53.0752 -127.8230 H         1 NAD256      0.0000 
     70 H          76.7698  -54.1760 -125.9439 H         1 NAD256      0.0000 
@<TRIPOS>BOND
     1    2    1 ar   
     2    3    1 ar   
     3    4    1 1    
     4   23    1 1    
     5    5    4 1    
     6    6    5 1    
     7   45    5 1    
     8   46    5 1    
     9    7    6 1    
    10    8    6 1    
    11   47    6 1    
    12   12    7 1    
    13    9    8 1    
    14   10    8 1    
    15   48    8 1    
    16   67    9 1    
    17   11   10 1    
    18   12   10 1    
    19   49   10 1    
    20   68   11 1    
    21   13   12 1    
    22   50   12 1    
    23   14   13 1    
    24   22   13 1    
    25   15   14 2    
    26   51   14 1    
    27   16   15 1    
    28   17   16 ar   
    29   22   16 ar   
    30   18   17 1    
    31   19   17 ar   
    32   52   18 1    
    33   53   18 1    
    34   20   19 ar   
    35   21   20 ar   
    36   54   20 1    
    37   22   21 ar   
    38   24   23 1    
    39   25   24 ar   
    40   26   24 ar   
    41   27   24 1    
    42   28   27 1    
    43   29   28 1    
    44   55   28 1    
    45   56   28 1    
    46   30   29 1    
    47   31   29 1    
    48   57   29 1    
    49   35   30 1    
    50   32   31 1    
    51   33   31 1    
    52   58   31 1    
    53   69   32 1    
    54   34   33 1    
    55   35   33 1    
    56   59   33 1    
    57   70   34 1    
    58   36   35 1    
    59   60   35 1    
    60   37   36 ar   
    61   44   36 ar   
    62   38   37 ar   
    63   61   37 1    
    64   39   38 1    
    65   42   38 ar   
    66   40   39 2    
    67   41   39 am   
    68   62   41 1    
    69   63   41 1    
    70   43   42 ar   
    71   64   42 1    
    72   44   43 ar   
    73   65   43 1    
    74   66   44 1    
@<TRIPOS>SUBSTRUCTURE
     1 NAD256      1 GROUP   
@<TRIPOS>SET

