#    Name: 2p9u_ANP_1_INTS_M
#    Modification time : Mon Mar 24 18:34:06 2014

@<TRIPOS>MOLECULE
2p9u_ANP_1_INTS_M
   56     0    12     0     0
SMALL
NO_CHARGES


@<TRIPOS>ATOM
      1 N          18.6105   13.1980   46.0345 N.am      2 SEC2        0.0000 
      2 N          18.1020   13.4260   44.6380 N.am     10 SEL2        0.0000 
      3 N          19.1190   12.9700   47.4310 N.am      6 SEP2        0.0000 
      4 N          17.6775   12.2670   45.4280 N.am      2 SEC2        0.0000 
      5 N          17.2530   11.1080   46.2180 N.am      6 SEP2        0.0000 
      6 N          21.8015   12.4015   46.6620 N.am      2 SEC2        0.0000 
      7 N          22.2570   13.4540   45.6140 N.am     10 SEL2        0.0000 
      8 N          21.3460   11.3490   47.7100 N.am      6 SEP2        0.0000 
      9 N          22.8385   13.3275   46.9250 N.am      2 SEC2        0.0000 
     10 N          23.4200   13.2010   48.2360 N.am      6 SEP2        0.0000 
     11 NZ         24.0255   16.0285   45.0820 N.4       3 LYC4        0.0000 
     12 NZ         24.4410   14.7490   44.1920 N.4      11 LYL4        0.0000 
     13 NZ         23.6100   17.3080   45.9720 N.4       7 LYP4        0.0000 
     14 N          24.0255   16.0285   45.0820 N.am      2 SEC2        0.0000 
     15 N          24.4410   14.7490   44.1920 N.am     10 SEL2        0.0000 
     16 N          23.6100   17.3080   45.9720 N.am      6 SEP2        0.0000 
     17 CA         25.7580   12.4215   44.5910 C.3       4 GLC5        0.0000 
     18 CA         25.2730   12.3170   42.4780 C.3      12 GLL5        0.0000 
     19 CA         26.2430   12.5260   46.7040 C.3       8 GLP5        0.0000 
     20 CA         26.2090   13.2890   40.1340 C.3       4 GLC5        0.0000 
     21 CA         25.8580   11.5440   41.2950 C.3      12 GLL5        0.0000 
     22 CA         26.5600   15.0340   38.9730 C.3       8 GLP5        0.0000 
     23 N          27.1885    8.4050   39.8215 N.am      2 SEC2        0.0000 
     24 N          26.1670    9.1950   40.8110 N.am     10 SEL2        0.0000 
     25 N          28.2100    7.6150   38.8320 N.am      6 SEP2        0.0000 
     26 O          25.5825    8.2665   41.4070 O.2       1 ALC1        0.0000 
     27 O          26.1670    9.1950   40.8110 O.2       9 ALL1        0.0000 
     28 O          24.9980    7.3380   42.0030 O.2       5 ALP1        0.0000 
     29 N          28.4655    8.4975   39.9390 N.am      2 SEC2        0.0000 
     30 N          28.7210    9.3800   41.0460 N.am     10 SEL2        0.0000 
     31 O          30.1135    9.6330   41.4785 O.2       1 ALC1        0.0000 
     32 O          28.7210    9.3800   41.0460 O.2       9 ALL1        0.0000 
     33 O          31.5060    9.8860   41.9110 O.2       5 ALP1        0.0000 
     34 CA         27.2055   13.2455   39.5850 C.3       4 GLC5        0.0000 
     35 CA         27.8510   11.4570   40.1970 C.3      12 GLL5        0.0000 
     36 CA         29.9190   14.6740   37.8995 C.3       4 GLC5        0.0000 
     37 CA         30.7920   13.0380   38.7880 C.3      12 GLL5        0.0000 
     38 CA         29.0460   16.3100   37.0110 C.3       8 GLP5        0.0000 
     39 CA         32.8955   11.7090   37.7280 C.3       4 GLC5        0.0000 
     40 CA         31.6010   13.1970   37.6690 C.3      12 GLL5        0.0000 
     41 CA         34.1900   10.2210   37.7870 C.3       8 GLP5        0.0000 
     42 CA         30.6400   14.4995   36.6995 C.3       4 GLC5        0.0000 
     43 CA         29.6790   15.8020   35.7300 C.3       8 GLP5        0.0000 
     44 CA         30.6190    9.5735   36.3535 C.3       4 GLC5        0.0000 
     45 CA         30.2760   11.6940   36.5080 C.3      12 GLL5        0.0000 
     46 CA         30.9620    7.4530   36.1990 C.3       8 GLP5        0.0000 
     47 CA         32.2330   10.9575   37.1475 C.3       4 GLC5        0.0000 
     48 CA         29.9775   13.7480   36.1190 C.3       4 GLC5        0.0000 
     49 CA         28.1350   13.6020   38.8340 C.3       4 GLC5        0.0000 
     50 CA         29.7100   12.1700   38.6950 C.3      12 GLL5        0.0000 
     51 CA         23.7022   12.1807   41.0558 C.3       4 GLC5        0.0000 
     52 CA         21.8390   12.4310   40.2250 C.3       8 GLP5        0.0000 
     53 CA         24.6004    9.8576   42.3029 C.3       4 GLC5        0.0000 
     54 CA         23.1340    8.6270   42.8160 C.3       8 GLP5        0.0000 
     55 CA         31.4720   11.3130   39.2963 C.3       4 GLC5        0.0000 
     56 CA         32.6930   10.0220   39.8510 C.3       8 GLP5        0.0000 
@<TRIPOS>BOND
@<TRIPOS>SUBSTRUCTURE
     1 ALC1       26 GROUP        1 X    ALC  0     ROOT ALC X 1
     2 SEC2        1 GROUP        1 X    SEC  0     **** SEC X 2
     3 LYC4       11 GROUP        1 X    LYC  0     **** LYC X 4
     4 GLC5       17 GROUP        1 X    GLC  0     **** GLC X 6
     5 ALP1       28 GROUP        1 Y    ALP  0     ROOT ALP Y 8
     6 SEP2        3 GROUP        1 Y    SEP  0     **** SEP Y 9
     7 LYP4       13 GROUP        1 Y    LYP  0     **** LYP Y 11
     8 GLP5       19 GROUP        1 Y    GLP  0     **** GLP Y 13
     9 ALL1       27 GROUP        1 Z    ALL  0     ROOT ALL Z 15
    10 SEL2        2 GROUP        1 Z    SEL  0     **** SEL Z 16
    11 LYL4       12 GROUP        1 Z    LYL  0     **** LYL Z 18
    12 GLL5       18 GROUP        1 Z    GLL  0     **** GLL Z 20
@<TRIPOS>SET

