#    Name: 2p9u_ANP_1_ligand
#    Modification time : Mon Mar 24 18:34:06 2014

@<TRIPOS>MOLECULE
2p9u_ANP_1_ligand
   43    45     1     0     0
SMALL
NO_CHARGES


@<TRIPOS>ATOM
      1 PG         19.0130   13.0250   43.3740 P.3       1 ANP901      0.0000 
      2 O1G        18.3730   12.0080   42.5120 O.co2     1 ANP901      0.0000 
      3 O2G        19.3030   14.4010   42.5930 O.co2     1 ANP901      0.0000 
      4 O3G        18.1020   13.4260   44.6380 O.co2     1 ANP901      0.0000 
      5 PB         21.4120   13.7020   44.4270 P.3       1 ANP901      0.0000 
      6 O1B        21.0370   15.0360   43.9080 O.co2     1 ANP901      0.0000 
      7 O2B        22.2570   13.4540   45.6140 O.co2     1 ANP901      0.0000 
      8 N3B        20.4350   12.4960   43.9520 N.4       1 ANP901      0.0000 
      9 PA         23.7060   14.3930   42.9600 P.3       1 ANP901      0.0000 
     10 O1A        23.1050   15.4830   42.1630 O.co2     1 ANP901      0.0000 
     11 O2A        24.4410   14.7490   44.1920 O.co2     1 ANP901      0.0000 
     12 O3A        22.5280   13.3570   43.3180 O.3       1 ANP901      0.0000 
     13 O5'        24.6730   13.5280   42.0120 O.3       1 ANP901      0.0000 
     14 C5'        25.2730   12.3170   42.4780 C.3       1 ANP901      0.0000 
     15 C4'        25.8580   11.5440   41.2950 C.3       1 ANP901      0.0000 
     16 O4'        26.8470   12.3710   40.6580 O.3       1 ANP901      0.0000 
     17 C3'        26.5680   10.2460   41.6930 C.3       1 ANP901      0.0000 
     18 O3'        26.1670    9.1950   40.8110 O.3       1 ANP901      0.0000 
     19 C2'        28.0360   10.5750   41.4290 C.3       1 ANP901      0.0000 
     20 O2'        28.7210    9.3800   41.0460 O.3       1 ANP901      0.0000 
     21 C1'        27.8510   11.4570   40.1970 C.3       1 ANP901      0.0000 
     22 N9         29.0870   12.2000   39.8640 N.pl3     1 ANP901      0.0000 
     23 C8         29.7370   13.0430   40.6620 C.2       1 ANP901      0.0000 
     24 N7         30.7790   13.5570   40.0090 N.2       1 ANP901      0.0000 
     25 C5         30.7920   13.0380   38.7880 C.ar      1 ANP901      0.0000 
     26 C6         31.6010   13.1970   37.6690 C.ar      1 ANP901      0.0000 
     27 N6         32.6410   14.0270   37.6930 N.pl3     1 ANP901      0.0000 
     28 N1         31.3120   12.5150   36.5560 N.ar      1 ANP901      0.0000 
     29 C2         30.2760   11.6940   36.5080 C.ar      1 ANP901      0.0000 
     30 N3         29.4830   11.5160   37.5480 N.ar      1 ANP901      0.0000 
     31 C4         29.7100   12.1700   38.6950 C.ar      1 ANP901      0.0000 
     32 H          24.5440   11.6669   42.9740 H         1 ANP901      0.0000 
     33 H          26.0870   12.5124   43.1846 H         1 ANP901      0.0000 
     34 H          25.0721   11.3076   40.6026 H         1 ANP901      0.0000 
     35 H          26.4256   10.0624   42.6966 H         1 ANP901      0.0000 
     36 H          28.4208   11.1113   42.1929 H         1 ANP901      0.0000 
     37 H          27.5014   10.8697   39.4074 H         1 ANP901      0.0000 
     38 H          29.4896   13.2539   41.5854 H         1 ANP901      0.0000 
     39 H          33.1987   14.0577   36.8635 H         1 ANP901      0.0000 
     40 H          32.7710   14.5452   38.5383 H         1 ANP901      0.0000 
     41 H          30.0780   11.1644   35.6080 H         1 ANP901      0.0000 
     42 H          26.1548    8.3716   41.3784 H         1 ANP901      0.0000 
     43 H          29.6706    9.5260   41.3233 H         1 ANP901      0.0000 
@<TRIPOS>BOND
     1    2    1 ar   
     2    3    1 ar   
     3    4    1 ar   
     4    8    1 1    
     5    6    5 ar   
     6    7    5 ar   
     7    8    5 1    
     8   12    5 1    
     9   10    9 ar   
    10   11    9 ar   
    11   12    9 1    
    12   13    9 1    
    13   14   13 1    
    14   15   14 1    
    15   32   14 1    
    16   33   14 1    
    17   16   15 1    
    18   17   15 1    
    19   34   15 1    
    20   21   16 1    
    21   18   17 1    
    22   19   17 1    
    23   35   17 1    
    24   42   18 1    
    25   20   19 1    
    26   21   19 1    
    27   36   19 1    
    28   43   20 1    
    29   22   21 1    
    30   37   21 1    
    31   23   22 1    
    32   31   22 1    
    33   24   23 2    
    34   38   23 1    
    35   25   24 1    
    36   26   25 ar   
    37   31   25 ar   
    38   27   26 1    
    39   28   26 ar   
    40   39   27 1    
    41   40   27 1    
    42   29   28 ar   
    43   30   29 ar   
    44   41   29 1    
    45   31   30 ar   
@<TRIPOS>SUBSTRUCTURE
     1 ANP901      1 GROUP   
@<TRIPOS>SET

