#    Name: 2l1r_SXK_1_INTS_M
#    Modification time : Tue Mar 25 21:16:31 2014

@<TRIPOS>MOLECULE
2l1r_SXK_1_INTS_M
   57     0     9     0     0
SMALL
NO_CHARGES


@<TRIPOS>ATOM
      1 NZ         61.5470    9.4935    0.1380 N.4       2 LYC4        0.0000 
      2 NZ         60.0150    9.4230   -0.1670 N.4       8 LYL4        0.0000 
      3 NZ         62.8110    9.8460    1.6840 N.4       5 LYP4        0.0000 
      4 N          61.5470    9.4935    0.1380 N.am      1 SEC2        0.0000 
      5 N          60.0150    9.4230   -0.1670 N.am      7 SEL2        0.0000 
      6 N          63.0790    9.5640    0.4430 N.am      4 SEP2        0.0000 
      7 N          60.8810    9.9790    0.9080 N.am      1 SEC2        0.0000 
      8 N          61.7470   10.5350    1.9830 N.am      4 SEP2        0.0000 
      9 CA         55.9380    0.9520    1.7660 C.3       3 GLC5        0.0000 
     10 CA         56.2250    1.1560   -0.4550 C.3       9 GLL5        0.0000 
     11 CA         55.6510    0.7480    3.9870 C.3       6 GLP5        0.0000 
     12 CA         57.8845    7.8550    0.7180 C.3       3 GLC5        0.0000 
     13 CA         58.1650    6.5560   -0.7640 C.3       9 GLL5        0.0000 
     14 CA         57.6040    9.1540    2.2000 C.3       6 GLP5        0.0000 
     15 CA         55.6270    6.5060   -1.8115 C.3       3 GLC5        0.0000 
     16 CA         57.7330    7.2570   -1.9150 C.3       9 GLL5        0.0000 
     17 CA         53.5210    5.7550   -1.7080 C.3       6 GLP5        0.0000 
     18 CA         59.1485    3.7685   -1.1670 C.3       3 GLC5        0.0000 
     19 CA         57.3270    4.4690   -1.7380 C.3       9 GLL5        0.0000 
     20 CA         60.9700    3.0680   -0.5960 C.3       6 GLP5        0.0000 
     21 CA         55.4240    5.1120   -1.7230 C.3       3 GLC5        0.0000 
     22 CA         55.2940   -1.8140   -1.6320 C.3       3 GLC5        0.0000 
     23 CA         56.5580   -1.0350   -1.3410 C.3       9 GLL5        0.0000 
     24 CA         54.0300   -2.5930   -1.9230 C.3       6 GLP5        0.0000 
     25 CA         57.7335   -2.4520   -2.1500 C.3       3 GLC5        0.0000 
     26 CA         58.9090   -3.8690   -2.9590 C.3       6 GLP5        0.0000 
     27 CA         56.8760   -1.5670    0.4085 C.3       3 GLC5        0.0000 
     28 CA         57.1940   -2.0990    2.1580 C.3       6 GLP5        0.0000 
     29 CA         59.6535    2.8790   -2.1640 C.3       3 GLC5        0.0000 
     30 CA         58.3370    2.6900   -3.7320 C.3       9 GLL5        0.0000 
     31 CA         58.2690    1.6560   -0.3815 C.3       3 GLC5        0.0000 
     32 CA         56.4110    2.5580   -0.5510 C.3       9 GLL5        0.0000 
     33 CA         60.2200    1.4550   -0.2600 C.3       6 GLP5        0.0000 
     34 CA         57.5585    5.2087   -4.6013 C.3       3 GLC5        0.0000 
     35 CA         56.8890    5.1730   -2.8990 C.3       9 GLL5        0.0000 
     36 CA         58.1250    4.5470   -6.2600 C.3       6 GLP5        0.0000 
     37 CA         55.3380    5.8232   -3.5768 C.3       3 GLC5        0.0000 
     38 CA         53.6840    5.7760   -4.2110 C.3       6 GLP5        0.0000 
     39 CA         59.3720    4.8347    0.1578 C.3       3 GLC5        0.0000 
     40 CA         57.9650    5.1630   -0.6690 C.3       9 GLL5        0.0000 
     41 CA         60.6790    3.8100    1.0320 C.3       6 GLP5        0.0000 
     42 CA         55.0393    3.7340   -0.8830 C.3       3 GLC5        0.0000 
     43 CA         57.1240    3.0800   -1.6490 C.3       9 GLL5        0.0000 
     44 CA         53.3110    4.6490   -0.6660 C.3       6 GLP5        0.0000 
     45 CA         58.6593    1.0088   -1.1290 C.3       3 GLC5        0.0000 
     46 CA         57.4520    0.8170   -2.5460 C.3       9 GLL5        0.0000 
     47 CA         57.8272    1.6870   -4.6478 C.3       3 GLC5        0.0000 
     48 CA         57.6440    2.2160   -2.6510 C.3       9 GLL5        0.0000 
     49 CA         57.6640    0.9210   -6.1040 C.3       6 GLP5        0.0000 
     50 CA         58.0577    3.5000   -4.7257 C.3       3 GLC5        0.0000 
     51 CA         58.8020    2.0515   -1.2050 C.3       3 GLC5        0.0000 
     52 CA         54.9080    1.9007   -1.7255 C.3       3 GLC5        0.0000 
     53 CA         53.0950    1.3330   -2.3750 C.3       6 GLP5        0.0000 
     54 CA         56.1106    0.0759   -3.4407 C.3       3 GLC5        0.0000 
     55 CA         56.7450    0.3080   -1.4500 C.3       9 GLL5        0.0000 
     56 CA         55.3930    0.3880   -5.2120 C.3       6 GLP5        0.0000 
     57 CA         54.9616    0.5484   -2.0222 C.3       3 GLC5        0.0000 
@<TRIPOS>BOND
@<TRIPOS>SUBSTRUCTURE
     1 SEC2        4 GROUP        1 X    SEC  0     ROOT SEC X 2
     2 LYC4        1 GROUP        1 X    LYC  0     **** LYC X 4
     3 GLC5        9 GROUP        1 X    GLC  0     **** GLC X 6
     4 SEP2        6 GROUP        1 Y    SEP  0     ROOT SEP Y 9
     5 LYP4        3 GROUP        1 Y    LYP  0     **** LYP Y 11
     6 GLP5       11 GROUP        1 Y    GLP  0     **** GLP Y 13
     7 SEL2        5 GROUP        1 Z    SEL  0     ROOT SEL Z 16
     8 LYL4        2 GROUP        1 Z    LYL  0     **** LYL Z 18
     9 GLL5       10 GROUP        1 Z    GLL  0     **** GLL Z 20
@<TRIPOS>SET

