#    Name: 2l1r_SXK_1_ligand
#    Modification time : Tue Mar 25 21:16:31 2014

@<TRIPOS>MOLECULE
2l1r_SXK_1_ligand
   28    29     1     0     0
SMALL
NO_CHARGES


@<TRIPOS>ATOM
      1 OAA        59.7710   11.3050   -1.3200 O.co2     1 SXK91       0.0000 
      2 OAB        60.0150    9.4230   -0.1670 O.co2     1 SXK91       0.0000 
      3 CAE        56.2250    1.1560   -0.4550 C.ar      1 SXK91       0.0000 
      4 CAF        57.0950    6.5680   -2.9860 C.ar      1 SXK91       0.0000 
      5 CAG        58.1650    6.5560   -0.7640 C.ar      1 SXK91       0.0000 
      6 CAH        56.8890    5.1730   -2.8990 C.ar      1 SXK91       0.0000 
      7 CAI        57.9650    5.1630   -0.6690 C.ar      1 SXK91       0.0000 
      8 CAJ        56.4110    2.5580   -0.5510 C.ar      1 SXK91       0.0000 
      9 CAK        57.4520    0.8170   -2.5460 C.ar      1 SXK91       0.0000 
     10 CAL        59.1620    9.2310   -2.3760 C.3       1 SXK91       0.0000 
     11 OAM        57.8790    8.6070   -2.1270 O.3       1 SXK91       0.0000 
     12 CAN        59.6920   10.0570   -1.1920 C.2       1 SXK91       0.0000 
     13 CAO        56.7450    0.3080   -1.4500 C.ar      1 SXK91       0.0000 
     14 CAP        57.7330    7.2570   -1.9150 C.ar      1 SXK91       0.0000 
     15 CAQ        57.6440    2.2160   -2.6510 C.ar      1 SXK91       0.0000 
     16 CAR        57.3270    4.4690   -1.7380 C.ar      1 SXK91       0.0000 
     17 CAS        57.1240    3.0800   -1.6490 C.ar      1 SXK91       0.0000 
     18 FCC        56.5580   -1.0350   -1.3410 F         1 SXK91       0.0000 
     19 FDD        58.3370    2.6900   -3.7320 F         1 SXK91       0.0000 
     20 H          55.7132    0.7663    0.3377 H         1 SXK91       0.0000 
     21 H          56.7906    7.0833   -3.8087 H         1 SXK91       0.0000 
     22 H          58.6216    7.0610   -0.0029 H         1 SXK91       0.0000 
     23 H          56.4333    4.6697   -3.6536 H         1 SXK91       0.0000 
     24 H          58.2715    4.6513    0.1538 H         1 SXK91       0.0000 
     25 H          56.0351    3.1733    0.1618 H         1 SXK91       0.0000 
     26 H          57.8248    0.1976   -3.2596 H         1 SXK91       0.0000 
     27 H          59.1107    9.9065   -3.2554 H         1 SXK91       0.0000 
     28 H          59.9323    8.4703   -2.6212 H         1 SXK91       0.0000 
@<TRIPOS>BOND
     1   12    1 ar   
     2   12    2 ar   
     3    8    3 ar   
     4   13    3 ar   
     5   20    3 1    
     6    6    4 ar   
     7   14    4 ar   
     8   21    4 1    
     9    7    5 ar   
    10   14    5 ar   
    11   22    5 1    
    12   16    6 ar   
    13   23    6 1    
    14   16    7 ar   
    15   24    7 1    
    16   17    8 ar   
    17   25    8 1    
    18   13    9 ar   
    19   15    9 ar   
    20   26    9 1    
    21   11   10 1    
    22   12   10 1    
    23   27   10 1    
    24   28   10 1    
    25   14   11 1    
    26   18   13 1    
    27   17   15 ar   
    28   19   15 1    
    29   17   16 1    
@<TRIPOS>SUBSTRUCTURE
     1 SXK91       1 GROUP   
@<TRIPOS>SET

