#    Name: 3lau_OFI_1_INTS_M
#    Modification time : Mon Mar 24 21:16:55 2014

@<TRIPOS>MOLECULE
3lau_OFI_1_INTS_M
   52     0     9     0     0
SMALL
NO_CHARGES


@<TRIPOS>ATOM
      1 CA         -7.4095   -9.2000   19.0895 C.3       3 GLC5        0.0000 
      2 CA         -5.5510   -8.0930   18.7460 C.3       9 GLL5        0.0000 
      3 CA         -9.2680  -10.3070   19.4330 C.3       6 GLP5        0.0000 
      4 CA         -4.2865   -6.3805   19.7460 C.3       3 GLC5        0.0000 
      5 CA         -6.0070   -6.7830   18.9720 C.3       9 GLL5        0.0000 
      6 CA         -2.5660   -5.9780   20.5200 C.3       6 GLP5        0.0000 
      7 CA         -5.8685   -7.8335   14.1895 C.3       3 GLC5        0.0000 
      8 CA         -5.4820   -7.5790   16.3160 C.3       9 GLL5        0.0000 
      9 CA         -6.2550   -8.0880   12.0630 C.3       6 GLP5        0.0000 
     10 O          -4.2270  -10.6945   16.6120 O.2       1 ALC1        0.0000 
     11 O          -4.8640   -9.7810   17.4600 O.2       7 ALL1        0.0000 
     12 O          -3.5900  -11.6080   15.7640 O.2       4 ALP1        0.0000 
     13 N          -3.8530  -11.1225   19.0960 N.am      2 SEC2        0.0000 
     14 N          -4.8320  -10.2290   18.7220 N.am      8 SEL2        0.0000 
     15 N          -2.8740  -12.0160   19.4700 N.am      5 SEP2        0.0000 
     16 O          -4.2905  -10.1410   21.6365 O.2       1 ALC1        0.0000 
     17 O          -5.3270   -9.3550   21.0430 O.2       7 ALL1        0.0000 
     18 O          -3.2540  -10.9270   22.2300 O.2       4 ALP1        0.0000 
     19 CA         -4.3955   -8.4480   24.0840 C.3       3 GLC5        0.0000 
     20 CA         -5.9200   -9.2000   23.3530 C.3       9 GLL5        0.0000 
     21 CA         -2.8710   -7.6960   24.8150 C.3       6 GLP5        0.0000 
     22 CA         -2.9840   -4.5270   15.4435 C.3       3 GLC5        0.0000 
     23 CA         -5.0560   -4.4360   15.0370 C.3       9 GLL5        0.0000 
     24 CA         -0.9120   -4.6180   15.8500 C.3       6 GLP5        0.0000 
     25 CA         -8.5800   -9.9375   22.9470 C.3       3 GLC5        0.0000 
     26 CA         -7.0780   -9.8540   24.1110 C.3       9 GLL5        0.0000 
     27 CA        -10.0820  -10.0210   21.7830 C.3       6 GLP5        0.0000 
     28 CA         -9.0845   -5.3515   14.7970 C.3       3 GLC5        0.0000 
     29 CA         -7.5000   -4.2320   13.6750 C.3       9 GLL5        0.0000 
     30 CA        -10.6690   -6.4710   15.9190 C.3       6 GLP5        0.0000 
     31 CA         -3.8058   -7.6063   18.1418 C.3       3 GLC5        0.0000 
     32 CA         -5.2880   -8.4740   17.3670 C.3       9 GLL5        0.0000 
     33 CA         -2.1920   -6.9290   18.2270 C.3       6 GLP5        0.0000 
     34 CA         -6.5535   -9.6378   16.3622 C.3       3 GLC5        0.0000 
     35 CA         -7.7220  -11.2490   15.8830 C.3       6 GLP5        0.0000 
     36 CA         -3.7870   -8.0598   15.6872 C.3       3 GLC5        0.0000 
     37 CA         -2.1890   -8.0930   14.5330 C.3       6 GLP5        0.0000 
     38 CA         -7.8398   -7.0290   16.4840 C.3       3 GLC5        0.0000 
     39 CA         -9.7240   -7.6620   15.8070 C.3       6 GLP5        0.0000 
     40 CA         -4.0738   -6.6625   17.6940 C.3       3 GLC5        0.0000 
     41 CA         -5.9380   -6.2550   16.5520 C.3       9 GLL5        0.0000 
     42 CA         -8.2300   -6.4430   15.4435 C.3       3 GLC5        0.0000 
     43 CA         -6.1250   -5.2810   15.4280 C.3       9 GLL5        0.0000 
     44 CA         -6.5920  -11.0790   22.5040 C.3       3 GLC5        0.0000 
     45 CA         -6.6850  -12.6310   21.2760 C.3       6 GLP5        0.0000 
     46 CA         -9.0527   -4.6513   13.1367 C.3       3 GLC5        0.0000 
     47 CA         -7.3470   -5.1670   14.7320 C.3       9 GLL5        0.0000 
     48 CA        -10.6820   -4.6030   12.0700 C.3       6 GLP5        0.0000 
     49 CA         -6.6865   -6.4080   13.2203 C.3       3 GLC5        0.0000 
     50 CA         -4.6285   -3.1307   12.0583 C.3       3 GLC5        0.0000 
     51 CA         -6.4270   -3.3950   13.2980 C.3       9 GLL5        0.0000 
     52 CA         -3.4440   -2.8140   10.4760 C.3       6 GLP5        0.0000 
@<TRIPOS>BOND
@<TRIPOS>SUBSTRUCTURE
     1 ALC1       10 GROUP        1 X    ALC  0     ROOT ALC X 1
     2 SEC2       13 GROUP        1 X    SEC  0     **** SEC X 2
     3 GLC5        1 GROUP        1 X    GLC  0     **** GLC X 6
     4 ALP1       12 GROUP        1 Y    ALP  0     ROOT ALP Y 8
     5 SEP2       15 GROUP        1 Y    SEP  0     **** SEP Y 9
     6 GLP5        3 GROUP        1 Y    GLP  0     **** GLP Y 13
     7 ALL1       11 GROUP        1 Z    ALL  0     ROOT ALL Z 15
     8 SEL2       14 GROUP        1 Z    SEL  0     **** SEL Z 16
     9 GLL5        2 GROUP        1 Z    GLL  0     **** GLL Z 20
@<TRIPOS>SET

