#    Name: 3lau_OFI_1_ligand
#    Modification time : Mon Mar 24 21:16:55 2014

@<TRIPOS>MOLECULE
3lau_OFI_1_ligand
   39    41     1     0     0
SMALL
NO_CHARGES


@<TRIPOS>ATOM
      1 C1         -5.5510   -8.0930   18.7460 C.ar      1 OFI1        0.0000 
      2 C2         -5.2880   -8.4740   17.3670 C.ar      1 OFI1        0.0000 
      3 C3         -5.2240   -9.2830   19.5620 C.2       1 OFI1        0.0000 
      4 C4         -6.0070   -6.7830   18.9720 C.ar      1 OFI1        0.0000 
      5 C5         -5.4820   -7.5790   16.3160 C.ar      1 OFI1        0.0000 
      6 N6         -4.8640   -9.7810   17.4600 N.pl3     1 OFI1        0.0000 
      7 N7         -4.8320  -10.2290   18.7220 N.2       1 OFI1        0.0000 
      8 N8         -5.3270   -9.3550   21.0430 N.am      1 OFI1        0.0000 
      9 C9         -6.2010   -5.8750   17.8880 C.ar      1 OFI1        0.0000 
     10 C10        -5.9380   -6.2550   16.5520 C.ar      1 OFI1        0.0000 
     11 C11        -6.2740   -8.8930   21.8910 C.2       1 OFI1        0.0000 
     12 C12        -6.1250   -5.2810   15.4280 C.ar      1 OFI1        0.0000 
     13 C13        -5.9200   -9.2000   23.3530 C.3       1 OFI1        0.0000 
     14 O14        -7.3020   -8.2840   21.5910 O.2       1 OFI1        0.0000 
     15 C15        -7.3470   -5.1670   14.7320 C.ar      1 OFI1        0.0000 
     16 C16        -5.0560   -4.4360   15.0370 C.ar      1 OFI1        0.0000 
     17 C17        -7.0780   -9.8540   24.1110 C.3       1 OFI1        0.0000 
     18 C18        -7.5000   -4.2320   13.6750 C.ar      1 OFI1        0.0000 
     19 C19        -5.1990   -3.5000   13.9830 C.ar      1 OFI1        0.0000 
     20 C20        -6.7090  -10.1510   25.5710 C.3       1 OFI1        0.0000 
     21 C21        -6.4270   -3.3950   13.2980 C.ar      1 OFI1        0.0000 
     22 O22        -6.6030   -2.4940   12.2730 O.3       1 OFI1        0.0000 
     23 H          -6.2063   -6.4652   19.9279 H         1 OFI1        0.0000 
     24 H          -5.2941   -7.8729   15.3454 H         1 OFI1        0.0000 
     25 H          -4.6134  -10.3170   16.6648 H         1 OFI1        0.0000 
     26 H          -4.4655   -9.8819   21.4820 H         1 OFI1        0.0000 
     27 H          -6.5397   -4.9248   18.0893 H         1 OFI1        0.0000 
     28 H          -5.6434   -8.2675   23.8554 H         1 OFI1        0.0000 
     29 H          -5.0530   -9.8681   23.3763 H         1 OFI1        0.0000 
     30 H          -8.1389   -5.7670   14.9909 H         1 OFI1        0.0000 
     31 H          -4.1544   -4.5043   15.5309 H         1 OFI1        0.0000 
     32 H          -7.3498  -10.7882   23.6152 H         1 OFI1        0.0000 
     33 H          -7.9426   -9.1874   24.0907 H         1 OFI1        0.0000 
     34 H          -8.3958   -4.1665   13.1846 H         1 OFI1        0.0000 
     35 H          -4.4131   -2.9044   13.7224 H         1 OFI1        0.0000 
     36 H          -5.9251  -10.7683   25.6378 H         1 OFI1        0.0000 
     37 H          -6.4697   -9.3183   26.0704 H         1 OFI1        0.0000 
     38 H          -7.4643  -10.5820   26.0647 H         1 OFI1        0.0000 
     39 H          -6.5404   -1.5946   12.7056 H         1 OFI1        0.0000 
@<TRIPOS>BOND
     1    2    1 ar   
     2    3    1 1    
     3    4    1 ar   
     4    5    2 ar   
     5    6    2 1    
     6    7    3 2    
     7    8    3 1    
     8    9    4 ar   
     9   23    4 1    
    10   10    5 ar   
    11   24    5 1    
    12    7    6 1    
    13   25    6 1    
    14   11    8 am   
    15   26    8 1    
    16   10    9 ar   
    17   27    9 1    
    18   12   10 1    
    19   13   11 1    
    20   14   11 2    
    21   15   12 ar   
    22   16   12 ar   
    23   17   13 1    
    24   28   13 1    
    25   29   13 1    
    26   18   15 ar   
    27   30   15 1    
    28   19   16 ar   
    29   31   16 1    
    30   20   17 1    
    31   32   17 1    
    32   33   17 1    
    33   21   18 ar   
    34   34   18 1    
    35   21   19 ar   
    36   35   19 1    
    37   36   20 1    
    38   37   20 1    
    39   38   20 1    
    40   22   21 1    
    41   39   22 1    
@<TRIPOS>SUBSTRUCTURE
     1 OFI1        1 GROUP   
@<TRIPOS>SET

