#    Name: 1eq2_ADQ_6_INTS_M
#    Modification time : Tue Mar 25 00:10:04 2014

@<TRIPOS>MOLECULE
1eq2_ADQ_6_INTS_M
   73     0    12     0     0
SMALL
NO_CHARGES


@<TRIPOS>ATOM
      1 NZ         54.3670   80.7685   58.6315 N.4       3 LYC4        0.0000 
      2 NZ         53.1670   80.5120   57.8270 N.4      11 LYL4        0.0000 
      3 NZ         56.4970   80.0870   59.5570 N.4       7 LYP4        0.0000 
      4 N          52.8375   81.5000   59.0700 N.am      2 SEC2        0.0000 
      5 N          53.1670   80.5120   57.8270 N.am     10 SEL2        0.0000 
      6 N          52.5080   82.4880   60.3130 N.am      6 SEP2        0.0000 
      7 N          54.3670   80.7685   58.6315 N.am      2 SEC2        0.0000 
      8 N          55.5670   81.0250   59.4360 N.am      6 SEP2        0.0000 
      9 N          55.1170   81.6890   58.2050 N.am      2 SEC2        0.0000 
     10 N          54.6670   82.3530   56.9740 N.am     10 SEL2        0.0000 
     11 NZ         56.1550   79.1455   57.3475 N.4       3 LYC4        0.0000 
     12 NZ         55.6560   79.0990   56.1030 N.4      11 LYL4        0.0000 
     13 N          56.1550   79.1455   57.3475 N.am      2 SEC2        0.0000 
     14 N          55.6560   79.0990   56.1030 N.am     10 SEL2        0.0000 
     15 N          56.6540   79.1920   58.5920 N.am      6 SEP2        0.0000 
     16 CA         55.4810   76.7280   56.1060 C.3       4 GLC5        0.0000 
     17 CA         53.7260   77.2420   54.8750 C.3      12 GLL5        0.0000 
     18 CA         57.2360   76.2140   57.3370 C.3       8 GLP5        0.0000 
     19 O          49.1405   78.4505   54.2550 O.2       1 ALC1        0.0000 
     20 O          50.5310   78.8020   54.8400 O.2       9 ALL1        0.0000 
     21 O          47.7500   78.0990   53.6700 O.2       5 ALP1        0.0000 
     22 CA         50.2030   76.5600   58.4115 C.3       4 GLC5        0.0000 
     23 CA         50.5470   76.9160   56.3710 C.3      12 GLL5        0.0000 
     24 CA         49.8590   76.2040   60.4520 C.3       8 GLP5        0.0000 
     25 CA         48.4215   76.2510   56.6225 C.3       4 GLC5        0.0000 
     26 CA         46.2960   75.5860   56.8740 C.3       8 GLP5        0.0000 
     27 N          47.6190   76.6595   55.8930 N.am      2 SEC2        0.0000 
     28 N          49.1460   76.9290   56.0070 N.am     10 SEL2        0.0000 
     29 N          46.0920   76.3900   55.7790 N.am      6 SEP2        0.0000 
     30 O          48.4480   77.5140   54.8385 O.2       1 ALC1        0.0000 
     31 O          49.1460   76.9290   56.0070 O.2       9 ALL1        0.0000 
     32 CA         52.3710   73.8815   55.8320 C.3       4 GLC5        0.0000 
     33 CA         51.2630   75.5750   56.1530 C.3      12 GLL5        0.0000 
     34 CA         53.4790   72.1880   55.5110 C.3       8 GLP5        0.0000 
     35 N          55.3760   75.4490   59.0865 N.am      2 SEC2        0.0000 
     36 N          53.9930   75.4250   58.6110 N.am     10 SEL2        0.0000 
     37 N          56.7590   75.4730   59.5620 N.am      6 SEP2        0.0000 
     38 CA         52.0925   72.4995   61.5110 C.3       4 GLC5        0.0000 
     39 CA         53.4520   73.3940   59.9980 C.3      12 GLL5        0.0000 
     40 CA         50.7330   71.6050   63.0240 C.3       8 GLP5        0.0000 
     41 CA         54.3610   71.7050   59.3865 C.3       4 GLC5        0.0000 
     42 CA         55.2700   70.0160   58.7750 C.3       8 GLP5        0.0000 
     43 CA         53.4450   73.8830   62.1060 C.3       4 GLC5        0.0000 
     44 CA         53.4380   74.3720   64.2140 C.3       8 GLP5        0.0000 
     45 O          54.6100   72.2235   61.7115 O.2       1 ALC1        0.0000 
     46 O          54.4660   73.4520   60.8710 O.2       9 ALL1        0.0000 
     47 O          54.7540   70.9950   62.5520 O.2       5 ALP1        0.0000 
     48 N          52.8960   70.8405   60.0485 N.am      2 SEC2        0.0000 
     49 N          52.5490   72.3800   60.0930 N.am     10 SEL2        0.0000 
     50 N          53.2430   69.3010   60.0040 N.am      6 SEP2        0.0000 
     51 CA         50.6875   74.2385   59.8405 C.3       4 GLC5        0.0000 
     52 CA         51.5160   72.2730   59.2290 C.3      12 GLL5        0.0000 
     53 CA         51.3185   70.6460   60.2135 C.3       4 GLC5        0.0000 
     54 CA         51.1210   69.0190   61.1980 C.3       8 GLP5        0.0000 
     55 CA         53.3930   71.1445   59.0020 C.3       4 GLC5        0.0000 
     56 CA         57.1815   87.3795   58.9045 C.3       4 GLC5        0.0000 
     57 CA         56.9120   85.3720   57.9980 C.3      12 GLL5        0.0000 
     58 CA         57.4510   89.3870   59.8110 C.3       8 GLP5        0.0000 
     59 CA         56.0270   87.9075   59.2620 C.3       4 GLC5        0.0000 
     60 CA         54.6030   86.4280   58.7130 C.3      12 GLL5        0.0000 
     61 CA         54.4195   87.4695   60.3350 C.3       4 GLC5        0.0000 
     62 CA         54.2360   88.5110   61.9570 C.3       8 GLP5        0.0000 
     63 CA         53.3760   85.8550   60.3025 C.3       4 GLC5        0.0000 
     64 CA         52.1490   85.2820   61.8920 C.3       8 GLP5        0.0000 
     65 CA         53.0885   87.7175   58.1670 C.3       4 GLC5        0.0000 
     66 CA         51.5740   89.0070   57.6210 C.3       8 GLP5        0.0000 
     67 O          59.7350   83.1330   56.1980 O.2       1 ALC1        0.0000 
     68 O          58.9280   84.3600   56.8970 O.2       9 ALL1        0.0000 
     69 O          60.5420   81.9060   55.4990 O.2       5 ALP1        0.0000 
     70 CA         54.4023   75.8970   54.0553 C.3       4 GLC5        0.0000 
     71 CA         55.8220   74.6480   53.3640 C.3       8 GLP5        0.0000 
     72 CA         51.3190   75.2450   59.4945 C.3       4 GLC5        0.0000 
     73 CA         52.2370   74.2170   58.0900 C.3      12 GLL5        0.0000 
@<TRIPOS>BOND
@<TRIPOS>SUBSTRUCTURE
     1 ALC1       19 GROUP        1 X    ALC  0     ROOT ALC X 1
     2 SEC2        4 GROUP        1 X    SEC  0     **** SEC X 2
     3 LYC4        1 GROUP        1 X    LYC  0     **** LYC X 4
     4 GLC5       16 GROUP        1 X    GLC  0     **** GLC X 6
     5 ALP1       21 GROUP        1 Y    ALP  0     ROOT ALP Y 8
     6 SEP2        6 GROUP        1 Y    SEP  0     **** SEP Y 9
     7 LYP4        3 GROUP        1 Y    LYP  0     **** LYP Y 11
     8 GLP5       18 GROUP        1 Y    GLP  0     **** GLP Y 13
     9 ALL1       20 GROUP        1 Z    ALL  0     ROOT ALL Z 15
    10 SEL2        5 GROUP        1 Z    SEL  0     **** SEL Z 16
    11 LYL4        2 GROUP        1 Z    LYL  0     **** LYL Z 18
    12 GLL5       17 GROUP        1 Z    GLL  0     **** GLL Z 20
@<TRIPOS>SET

