#    Name: 1eq2_ADQ_6_ligand
#    Modification time : Tue Mar 25 00:10:04 2014

@<TRIPOS>MOLECULE
1eq2_ADQ_6_ligand
   61    64     1     0     0
SMALL
NO_CHARGES


@<TRIPOS>ATOM
      1 PB         53.4860   81.5250   56.5980 P.3       1 ADQ2505     0.0000 
      2 O1B        52.3350   82.4000   56.2130 O.co2     1 ADQ2505     0.0000 
      3 O2B        53.1670   80.5120   57.8270 O.co2     1 ADQ2505     0.0000 
      4 O3B        54.6670   82.3530   56.9740 O.3       1 ADQ2505     0.0000 
      5 PA         54.9210   79.5740   54.9110 P.3       1 ADQ2505     0.0000 
      6 O1A        55.6560   79.0990   56.1030 O.co2     1 ADQ2505     0.0000 
      7 O2A        55.8030   80.2260   53.9240 O.co2     1 ADQ2505     0.0000 
      8 O3A        53.7620   80.5670   55.3760 O.3       1 ADQ2505     0.0000 
      9 O5D        54.1000   78.4210   54.1880 O.3       1 ADQ2505     0.0000 
     10 C5D        53.7260   77.2420   54.8750 C.3       1 ADQ2505     0.0000 
     11 C4D        52.2390   77.0500   54.6180 C.3       1 ADQ2505     0.0000 
     12 O4D        51.9080   75.6710   54.8700 O.3       1 ADQ2505     0.0000 
     13 C3D        51.3770   77.8930   55.5520 C.3       1 ADQ2505     0.0000 
     14 O3D        50.5310   78.8020   54.8400 O.3       1 ADQ2505     0.0000 
     15 C2D        50.5470   76.9160   56.3710 C.3       1 ADQ2505     0.0000 
     16 O2D        49.1460   76.9290   56.0070 O.3       1 ADQ2505     0.0000 
     17 C1D        51.2630   75.5750   56.1530 C.3       1 ADQ2505     0.0000 
     18 N9         52.3100   75.2120   57.2170 N.pl3     1 ADQ2505     0.0000 
     19 C8         53.3920   75.9490   57.5400 C.2       1 ADQ2505     0.0000 
     20 N7         53.9930   75.4250   58.6110 N.2       1 ADQ2505     0.0000 
     21 C5         53.3210   74.3550   58.9840 C.ar      1 ADQ2505     0.0000 
     22 C6         53.4520   73.3940   59.9980 C.ar      1 ADQ2505     0.0000 
     23 N6         54.4660   73.4520   60.8710 N.pl3     1 ADQ2505     0.0000 
     24 N1         52.5490   72.3800   60.0930 N.ar      1 ADQ2505     0.0000 
     25 C2         51.5160   72.2730   59.2290 C.ar      1 ADQ2505     0.0000 
     26 N3         51.3810   73.1820   58.2530 N.ar      1 ADQ2505     0.0000 
     27 C4         52.2370   74.2170   58.0900 C.ar      1 ADQ2505     0.0000 
     28 C1'        55.1600   83.5340   56.2680 C.3       1 ADQ2505     0.0000 
     29 C2'        56.7200   83.5310   56.0820 C.3       1 ADQ2505     0.0000 
     30 C3'        57.5570   84.1060   57.3210 C.3       1 ADQ2505     0.0000 
     31 C4'        56.9120   85.3720   57.9980 C.3       1 ADQ2505     0.0000 
     32 C5'        55.3670   85.1950   58.1490 C.3       1 ADQ2505     0.0000 
     33 C6'        54.6030   86.4280   58.7130 C.3       1 ADQ2505     0.0000 
     34 O2'        57.1550   82.1450   55.8180 O.3       1 ADQ2505     0.0000 
     35 O3'        58.9280   84.3600   56.8970 O.3       1 ADQ2505     0.0000 
     36 O4'        57.3680   85.7280   59.3390 O.3       1 ADQ2505     0.0000 
     37 O5'        54.7000   84.7620   56.9090 O.3       1 ADQ2505     0.0000 
     38 O6'        54.6200   87.5540   57.7770 O.3       1 ADQ2505     0.0000 
     39 H          53.8733   77.3244   55.9466 H         1 ADQ2505     0.0000 
     40 H          54.2465   76.3654   54.5040 H         1 ADQ2505     0.0000 
     41 H          52.0150   77.3125   53.6069 H         1 ADQ2505     0.0000 
     42 H          52.0388   78.4073   56.2356 H         1 ADQ2505     0.0000 
     43 H          50.7007   77.1836   57.4179 H         1 ADQ2505     0.0000 
     44 H          50.5117   74.7945   56.1203 H         1 ADQ2505     0.0000 
     45 H          53.6862   76.7465   57.0574 H         1 ADQ2505     0.0000 
     46 H          54.7936   72.5755   61.2238 H         1 ADQ2505     0.0000 
     47 H          54.8047   74.3666   61.0918 H         1 ADQ2505     0.0000 
     48 H          50.8366   71.4936   59.3239 H         1 ADQ2505     0.0000 
     49 H          54.7443   83.5158   55.2282 H         1 ADQ2505     0.0000 
     50 H          56.9573   84.1473   55.2204 H         1 ADQ2505     0.0000 
     51 H          57.5564   83.3002   58.0772 H         1 ADQ2505     0.0000 
     52 H          57.0379   86.2238   57.3222 H         1 ADQ2505     0.0000 
     53 H          55.2133   84.3785   58.9086 H         1 ADQ2505     0.0000 
     54 H          55.0740   86.6992   59.6665 H         1 ADQ2505     0.0000 
     55 H          53.5754   86.1083   58.9284 H         1 ADQ2505     0.0000 
     56 H          49.7405   78.2561   54.5623 H         1 ADQ2505     0.0000 
     57 H          49.1122   77.3989   55.1249 H         1 ADQ2505     0.0000 
     58 H          56.5179   81.8008   55.1283 H         1 ADQ2505     0.0000 
     59 H          59.2497   83.4888   56.5263 H         1 ADQ2505     0.0000 
     60 H          56.6850   85.3379   59.9565 H         1 ADQ2505     0.0000 
     61 H          54.5427   88.3690   58.3513 H         1 ADQ2505     0.0000 
@<TRIPOS>BOND
     1    2    1 ar   
     2    3    1 ar   
     3    4    1 1    
     4    8    1 1    
     5   28    4 1    
     6    6    5 ar   
     7    7    5 ar   
     8    8    5 1    
     9    9    5 1    
    10   10    9 1    
    11   11   10 1    
    12   39   10 1    
    13   40   10 1    
    14   12   11 1    
    15   13   11 1    
    16   41   11 1    
    17   17   12 1    
    18   14   13 1    
    19   15   13 1    
    20   42   13 1    
    21   56   14 1    
    22   16   15 1    
    23   17   15 1    
    24   43   15 1    
    25   57   16 1    
    26   18   17 1    
    27   44   17 1    
    28   19   18 1    
    29   27   18 1    
    30   20   19 2    
    31   45   19 1    
    32   21   20 1    
    33   22   21 ar   
    34   27   21 ar   
    35   23   22 1    
    36   24   22 ar   
    37   46   23 1    
    38   47   23 1    
    39   25   24 ar   
    40   26   25 ar   
    41   48   25 1    
    42   27   26 ar   
    43   29   28 1    
    44   37   28 1    
    45   49   28 1    
    46   30   29 1    
    47   34   29 1    
    48   50   29 1    
    49   31   30 1    
    50   35   30 1    
    51   51   30 1    
    52   32   31 1    
    53   36   31 1    
    54   52   31 1    
    55   33   32 1    
    56   37   32 1    
    57   53   32 1    
    58   38   33 1    
    59   54   33 1    
    60   55   33 1    
    61   58   34 1    
    62   59   35 1    
    63   60   36 1    
    64   61   38 1    
@<TRIPOS>SUBSTRUCTURE
     1 ADQ2505     1 GROUP   
@<TRIPOS>SET

