#    Name: 3an1_FAD_4_INTS_M
#    Modification time : Mon Mar 24 17:53:28 2014

@<TRIPOS>MOLECULE
3an1_FAD_4_INTS_M
  125     0     9     0     0
SMALL
NO_CHARGES


@<TRIPOS>ATOM
      1 N          -3.5915   21.0610  -87.5365 N.am      2 SEC2        0.0000 
      2 N          -2.2340   21.3170  -87.8790 N.am      8 SEL2        0.0000 
      3 N          -4.9490   20.8050  -87.1940 N.am      5 SEP2        0.0000 
      4 N          -2.5880   20.1080  -87.3195 N.am      2 SEC2        0.0000 
      5 N          -2.9420   18.8990  -86.7600 N.am      5 SEP2        0.0000 
      6 N           0.8515   23.6785  -87.4120 N.am      2 SEC2        0.0000 
      7 N          -0.2390   22.9490  -87.7250 N.am      8 SEL2        0.0000 
      8 N           1.9420   24.4080  -87.0990 N.am      5 SEP2        0.0000 
      9 N          -0.9680   23.4145  -86.5190 N.am      2 SEC2        0.0000 
     10 N          -1.6970   23.8800  -85.3130 N.am      5 SEP2        0.0000 
     11 CA         -2.9790   20.2380  -90.1010 C.3       3 GLC5        0.0000 
     12 CA         -1.2900   20.9210  -90.8270 C.3       9 GLL5        0.0000 
     13 CA         -4.6680   19.5550  -89.3750 C.3       6 GLP5        0.0000 
     14 CA         -0.6435   19.7025  -89.0970 C.3       3 GLC5        0.0000 
     15 CA          0.0030   18.4840  -87.3670 C.3       6 GLP5        0.0000 
     16 CA         -1.8790   19.5325  -93.3355 C.3       3 GLC5        0.0000 
     17 CA         -0.4710   20.1620  -91.8020 C.3       9 GLL5        0.0000 
     18 CA         -3.2870   18.9030  -94.8690 C.3       6 GLP5        0.0000 
     19 CA          1.6095   17.4585  -90.4815 C.3       3 GLC5        0.0000 
     20 CA          0.5630   19.2440  -91.1370 C.3       9 GLL5        0.0000 
     21 CA          2.6560   15.6730  -89.8260 C.3       6 GLP5        0.0000 
     22 CA          0.2795   18.1895  -89.5885 C.3       3 GLC5        0.0000 
     23 CA         -0.0040   17.1350  -88.0400 C.3       6 GLP5        0.0000 
     24 CA          3.7140   20.9280  -90.7685 C.3       3 GLC5        0.0000 
     25 CA          1.8160   20.1430  -91.1560 C.3       9 GLL5        0.0000 
     26 CA          5.6120   21.7130  -90.3810 C.3       6 GLP5        0.0000 
     27 O           3.2835   19.8885  -89.8915 O.2       1 ALC1        0.0000 
     28 O           3.0840   19.4230  -91.1170 O.2       7 ALL1        0.0000 
     29 O           3.4830   20.3540  -88.6660 O.2       4 ALP1        0.0000 
     30 CA          1.5980   20.2430  -94.2805 C.3       3 GLC5        0.0000 
     31 CA          1.7280   20.7940  -92.5080 C.3       9 GLL5        0.0000 
     32 CA          1.4680   19.6920  -96.0530 C.3       6 GLP5        0.0000 
     33 CA          4.1945   24.7435  -96.3925 C.3       3 GLC5        0.0000 
     34 CA          4.3410   24.3820  -94.4370 C.3       9 GLL5        0.0000 
     35 CA          4.0480   25.1050  -98.3480 C.3       6 GLP5        0.0000 
     36 O           5.1370   26.3760  -95.6805 O.2       1 ALC1        0.0000 
     37 O           4.5070   25.7100  -94.5490 O.2       7 ALL1        0.0000 
     38 O           5.7670   27.0420  -96.8120 O.2       4 ALP1        0.0000 
     39 N           5.6005   23.9590  -96.5625 N.am      2 SEC2        0.0000 
     40 N           4.9390   23.5210  -95.3080 N.am      8 SEL2        0.0000 
     41 N           6.2620   24.3970  -97.8170 N.am      5 SEP2        0.0000 
     42 CA          5.7155   22.6930  -93.7420 C.3       3 GLC5        0.0000 
     43 CA          4.7630   22.1670  -95.3620 C.3       9 GLL5        0.0000 
     44 CA          6.6680   23.2190  -92.1220 C.3       6 GLP5        0.0000 
     45 CA          3.1305   22.0940  -96.2880 C.3       3 GLC5        0.0000 
     46 CA          1.4980   22.0210  -97.2140 C.3       6 GLP5        0.0000 
     47 CA          5.2250   21.5980  -97.3405 C.3       3 GLC5        0.0000 
     48 CA          5.6870   21.0290  -99.3190 C.3       6 GLP5        0.0000 
     49 CA          6.4715   22.6355  -96.2575 C.3       3 GLC5        0.0000 
     50 CA          8.1800   23.1040  -97.1530 C.3       6 GLP5        0.0000 
     51 CA          4.4055   23.6360  -96.8550 C.3       3 GLC5        0.0000 
     52 CA          1.9890   21.7175  -94.9630 C.3       3 GLC5        0.0000 
     53 CA          3.2660   22.4390  -93.5880 C.3       9 GLL5        0.0000 
     54 CA          0.7120   20.9960  -96.3380 C.3       6 GLP5        0.0000 
     55 N          -9.4615   23.8705  -94.8455 N.am      2 SEC2        0.0000 
     56 N         -10.8530   23.5360  -94.9150 N.am      8 SEL2        0.0000 
     57 N          -8.0700   24.2050  -94.7760 N.am      5 SEP2        0.0000 
     58 N         -11.4085   23.5835  -96.3095 N.am      2 SEC2        0.0000 
     59 N         -11.9640   23.6310  -97.7040 N.am      5 SEP2        0.0000 
     60 O         -13.5940   24.2825  -94.5485 O.2       1 ALC1        0.0000 
     61 O         -12.5960   24.2020  -93.6360 O.2       7 ALL1        0.0000 
     62 O         -14.5920   24.3630  -95.4610 O.2       4 ALP1        0.0000 
     63 CA        -12.4905   23.0230  -83.2880 C.3       3 GLC5        0.0000 
     64 CA        -12.8890   23.2100  -85.1630 C.3       9 GLL5        0.0000 
     65 CA        -12.0920   22.8360  -81.4130 C.3       6 GLP5        0.0000 
     66 CA        -14.3685   23.1185  -83.5840 C.3       3 GLC5        0.0000 
     67 CA        -15.8480   23.0270  -82.0050 C.3       6 GLP5        0.0000 
     68 CA         -9.2775   22.0025  -83.5750 C.3       3 GLC5        0.0000 
     69 CA        -10.1300   22.0670  -85.3970 C.3       9 GLL5        0.0000 
     70 CA         -8.4250   21.9380  -81.7530 C.3       6 GLP5        0.0000 
     71 CA         -8.3280   22.9555  -85.8120 C.3       3 GLC5        0.0000 
     72 CA         -6.5260   23.8440  -86.2270 C.3       6 GLP5        0.0000 
     73 CA         -9.2300   20.0495  -85.0715 C.3       3 GLC5        0.0000 
     74 CA         -8.3300   18.0320  -84.7460 C.3       6 GLP5        0.0000 
     75 CA         -8.4235   23.1700  -87.0590 C.3       3 GLC5        0.0000 
     76 CA        -10.3210   22.4960  -87.8910 C.3       9 GLL5        0.0000 
     77 CA         -7.2000   23.4310  -88.1895 C.3       3 GLC5        0.0000 
     78 CA         -7.8740   23.0180  -90.1520 C.3       9 GLL5        0.0000 
     79 O          -7.2015   24.0725  -88.4305 O.2       1 ALC1        0.0000 
     80 O          -8.2660   24.0810  -89.2710 O.2       7 ALL1        0.0000 
     81 O          -6.1370   24.0640  -87.5900 O.2       4 ALP1        0.0000 
     82 CA         -8.5590   25.0360  -92.0420 C.3       3 GLC5        0.0000 
     83 CA         -7.2350   23.6740  -91.3960 C.3       9 GLL5        0.0000 
     84 CA         -9.8830   26.3980  -92.6880 C.3       6 GLP5        0.0000 
     85 N          -7.4315   23.4125  -93.5305 N.am      2 SEC2        0.0000 
     86 N          -6.7930   22.6200  -92.2850 N.am      8 SEL2        0.0000 
     87 CA         -6.1900   26.1180  -90.0165 C.3       3 GLC5        0.0000 
     88 CA         -6.0640   24.5450  -90.9660 C.3       9 GLL5        0.0000 
     89 CA         -6.3160   27.6910  -89.0670 C.3       6 GLP5        0.0000 
     90 O          -4.7220   26.4080  -92.4825 O.2       1 ALC1        0.0000 
     91 O          -5.8490   25.4330  -92.0720 O.2       7 ALL1        0.0000 
     92 O          -3.5950   27.3830  -92.8930 O.2       4 ALP1        0.0000 
     93 CA         -4.7265   21.6630  -90.0390 C.3       3 GLC5        0.0000 
     94 CA         -4.7850   23.7710  -90.7030 C.3       9 GLL5        0.0000 
     95 CA         -3.2315   24.0010  -91.8445 C.3       3 GLC5        0.0000 
     96 CA         -1.6780   24.2310  -92.9860 C.3       6 GLP5        0.0000 
     97 N          -3.5015   26.4560  -90.3020 N.am      2 SEC2        0.0000 
     98 N          -3.7440   24.7600  -90.4310 N.am      8 SEL2        0.0000 
     99 N          -3.2590   28.1520  -90.1730 N.am      5 SEP2        0.0000 
    100 N          -1.2065   25.8885  -87.8930 N.am      2 SEC2        0.0000 
    101 N          -1.8180   25.7650  -89.2340 N.am      8 SEL2        0.0000 
    102 N          -0.5950   26.0120  -86.5520 N.am      5 SEP2        0.0000 
    103 N          -2.5385   26.9585  -89.7035 N.am      2 SEC2        0.0000 
    104 N          -1.2890   26.4250  -90.3015 N.am      2 SEC2        0.0000 
    105 N          -0.7600   27.0850  -91.3690 N.am      5 SEP2        0.0000 
    106 N          -3.9015   23.7050  -86.7425 N.am      2 SEC2        0.0000 
    107 N          -3.5620   24.5310  -87.8700 N.am      8 SEL2        0.0000 
    108 N          -4.2410   22.8790  -85.6150 N.am      5 SEP2        0.0000 
    109 N          -4.8495   24.2975  -87.7300 N.am      2 SEC2        0.0000 
    110 N          -6.1370   24.0640  -87.5900 N.am      5 SEP2        0.0000 
    111 CA         -1.2792   22.3863  -92.1502 C.3       3 GLC5        0.0000 
    112 CA          5.1255   23.2422  -92.9522 C.3       3 GLC5        0.0000 
    113 CA          3.4590   23.8020  -93.5170 C.3       9 GLL5        0.0000 
    114 CA        -12.8440   25.1380  -87.5346 C.3       3 GLC5        0.0000 
    115 CA        -12.1900   23.1010  -86.4930 C.3       9 GLL5        0.0000 
    116 CA        -13.2930   26.9860  -87.6980 C.3       6 GLP5        0.0000 
    117 CA        -11.7505   24.7629  -85.4576 C.3       3 GLC5        0.0000 
    118 CA        -12.8920   23.5340  -87.6220 C.3       9 GLL5        0.0000 
    119 CA        -10.7860   26.2620  -84.8050 C.3       6 GLP5        0.0000 
    120 CA        -10.6515   24.2933  -85.4062 C.3       3 GLC5        0.0000 
    121 CA        -10.9040   22.5820  -86.6180 C.3       9 GLL5        0.0000 
    122 CA        -10.2138   24.7285  -87.7682 C.3       3 GLC5        0.0000 
    123 CA         -9.7600   26.7370  -87.0900 C.3       6 GLP5        0.0000 
    124 CA         -5.2906   23.9791  -92.9490 C.3       3 GLC5        0.0000 
    125 CA         -4.8640   24.0180  -94.9560 C.3       6 GLP5        0.0000 
@<TRIPOS>BOND
@<TRIPOS>SUBSTRUCTURE
     1 ALC1       27 GROUP        1 X    ALC  0     ROOT ALC X 1
     2 SEC2        1 GROUP        1 X    SEC  0     **** SEC X 2
     3 GLC5       11 GROUP        1 X    GLC  0     **** GLC X 6
     4 ALP1       29 GROUP        1 Y    ALP  0     ROOT ALP Y 8
     5 SEP2        3 GROUP        1 Y    SEP  0     **** SEP Y 9
     6 GLP5       13 GROUP        1 Y    GLP  0     **** GLP Y 13
     7 ALL1       28 GROUP        1 Z    ALL  0     ROOT ALL Z 15
     8 SEL2        2 GROUP        1 Z    SEL  0     **** SEL Z 16
     9 GLL5       12 GROUP        1 Z    GLL  0     **** GLL Z 20
@<TRIPOS>SET

