#    Name: 3an1_FAD_4_ligand
#    Modification time : Mon Mar 24 17:53:29 2014

@<TRIPOS>MOLECULE
3an1_FAD_4_ligand
   84    89     1     0     0
SMALL
NO_CHARGES


@<TRIPOS>ATOM
      1 PA         -1.2670   22.2300  -88.5550 P.3       1 FAD4006     0.0000 
      2 O1A        -2.2340   21.3170  -87.8790 O.co2     1 FAD4006     0.0000 
      3 O2A        -0.2390   22.9490  -87.7250 O.co2     1 FAD4006     0.0000 
      4 O5B        -0.5100   21.4900  -89.7690 O.3       1 FAD4006     0.0000 
      5 C5B        -1.2900   20.9210  -90.8270 C.3       1 FAD4006     0.0000 
      6 C4B        -0.4710   20.1620  -91.8020 C.3       1 FAD4006     0.0000 
      7 O4B         0.2850   21.0830  -92.6470 O.3       1 FAD4006     0.0000 
      8 C3B         0.5630   19.2440  -91.1370 C.3       1 FAD4006     0.0000 
      9 O3B         0.7530   18.0720  -91.9620 O.3       1 FAD4006     0.0000 
     10 C2B         1.8160   20.1430  -91.1560 C.3       1 FAD4006     0.0000 
     11 O2B         3.0840   19.4230  -91.1170 O.3       1 FAD4006     0.0000 
     12 C1B         1.7280   20.7940  -92.5080 C.3       1 FAD4006     0.0000 
     13 N9A         2.3060   22.1070  -92.6360 N.pl3     1 FAD4006     0.0000 
     14 C8A         1.9530   23.2670  -91.9930 C.2       1 FAD4006     0.0000 
     15 N7A         2.6090   24.3140  -92.5260 N.2       1 FAD4006     0.0000 
     16 C5A         3.4590   23.8020  -93.5170 C.ar      1 FAD4006     0.0000 
     17 C6A         4.3410   24.3820  -94.4370 C.ar      1 FAD4006     0.0000 
     18 N6A         4.5070   25.7100  -94.5490 N.pl3     1 FAD4006     0.0000 
     19 N1A         4.9390   23.5210  -95.3080 N.ar      1 FAD4006     0.0000 
     20 C2A         4.7630   22.1670  -95.3620 C.ar      1 FAD4006     0.0000 
     21 N3A         3.9390   21.5900  -94.4360 N.ar      1 FAD4006     0.0000 
     22 C4A         3.2660   22.4390  -93.5880 C.ar      1 FAD4006     0.0000 
     23 N1        -10.6060   23.1980  -92.6510 N.2       1 FAD4006     0.0000 
     24 C2        -11.3460   23.6600  -93.7540 C.2       1 FAD4006     0.0000 
     25 O2        -10.8530   23.5360  -94.9150 O.2       1 FAD4006     0.0000 
     26 N3        -12.5960   24.2020  -93.6360 N.am      1 FAD4006     0.0000 
     27 C4        -13.1790   24.2930  -92.3730 C.2       1 FAD4006     0.0000 
     28 O4        -14.3330   24.7970  -92.2710 O.2       1 FAD4006     0.0000 
     29 C4X       -12.4560   23.8310  -91.2460 C.2       1 FAD4006     0.0000 
     30 N5        -12.9810   23.9450  -89.9700 N.2       1 FAD4006     0.0000 
     31 C5X       -12.3080   23.4240  -88.8770 C.ar      1 FAD4006     0.0000 
     32 C6        -12.8920   23.5340  -87.6220 C.ar      1 FAD4006     0.0000 
     33 C7        -12.1900   23.1010  -86.4930 C.ar      1 FAD4006     0.0000 
     34 C7M       -12.8890   23.2100  -85.1630 C.3       1 FAD4006     0.0000 
     35 C8        -10.9040   22.5820  -86.6180 C.ar      1 FAD4006     0.0000 
     36 C8M       -10.1300   22.0670  -85.3970 C.3       1 FAD4006     0.0000 
     37 C9        -10.3210   22.4960  -87.8910 C.ar      1 FAD4006     0.0000 
     38 C9A       -11.0140   22.9440  -89.0020 C.ar      1 FAD4006     0.0000 
     39 N10       -10.4400   22.8670  -90.3040 N.pl3     1 FAD4006     0.0000 
     40 C10       -11.1490   23.3210  -91.3710 C.2       1 FAD4006     0.0000 
     41 C1'        -9.0970   22.2060  -90.5780 C.3       1 FAD4006     0.0000 
     42 C2'        -7.8740   23.0180  -90.1520 C.3       1 FAD4006     0.0000 
     43 O2'        -8.2660   24.0810  -89.2710 O.3       1 FAD4006     0.0000 
     44 C3'        -7.2350   23.6740  -91.3960 C.3       1 FAD4006     0.0000 
     45 O3'        -6.7930   22.6200  -92.2850 O.3       1 FAD4006     0.0000 
     46 C4'        -6.0640   24.5450  -90.9660 C.3       1 FAD4006     0.0000 
     47 O4'        -5.8490   25.4330  -92.0720 O.3       1 FAD4006     0.0000 
     48 C5'        -4.7850   23.7710  -90.7030 C.3       1 FAD4006     0.0000 
     49 O5'        -3.7440   24.7600  -90.4310 O.3       1 FAD4006     0.0000 
     50 P          -2.8130   24.6370  -89.1430 P.3       1 FAD4006     0.0000 
     51 O1P        -1.8180   25.7650  -89.2340 O.co2     1 FAD4006     0.0000 
     52 O2P        -3.5620   24.5310  -87.8700 O.co2     1 FAD4006     0.0000 
     53 O3P        -2.1380   23.2310  -89.5150 O.3       1 FAD4006     0.0000 
     54 H          -1.8456   21.7157  -91.3738 H         1 FAD4006     0.0000 
     55 H          -2.0705   20.2422  -90.4156 H         1 FAD4006     0.0000 
     56 H          -1.1029   19.5464  -92.4262 H         1 FAD4006     0.0000 
     57 H           0.2818   19.0625  -90.1624 H         1 FAD4006     0.0000 
     58 H           1.7271   20.8837  -90.4206 H         1 FAD4006     0.0000 
     59 H           2.0083   20.1379  -93.2701 H         1 FAD4006     0.0000 
     60 H           1.3165   23.3104  -91.2569 H         1 FAD4006     0.0000 
     61 H           3.9327   26.2766  -93.9581 H         1 FAD4006     0.0000 
     62 H           5.1901   26.0136  -95.2132 H         1 FAD4006     0.0000 
     63 H           5.2329   21.6023  -96.0729 H         1 FAD4006     0.0000 
     64 H         -13.1074   24.5403  -94.4578 H         1 FAD4006     0.0000 
     65 H         -13.8316   23.9295  -87.5193 H         1 FAD4006     0.0000 
     66 H          -9.3784   22.0988  -87.9898 H         1 FAD4006     0.0000 
     67 H          -9.0180   21.9883  -91.6618 H         1 FAD4006     0.0000 
     68 H          -9.0677   21.2248  -90.0636 H         1 FAD4006     0.0000 
     69 H          -7.1556   22.3756  -89.7085 H         1 FAD4006     0.0000 
     70 H          -7.9795   24.2880  -91.8611 H         1 FAD4006     0.0000 
     71 H          -6.3453   25.0979  -90.0967 H         1 FAD4006     0.0000 
     72 H          -4.5459   23.1849  -91.5788 H         1 FAD4006     0.0000 
     73 H          -4.9384   23.1231  -89.8519 H         1 FAD4006     0.0000 
     74 H         -12.3140   22.8824  -84.4133 H         1 FAD4006     0.0000 
     75 H         -13.1375   24.1550  -84.9504 H         1 FAD4006     0.0000 
     76 H         -13.7324   22.6732  -85.1416 H         1 FAD4006     0.0000 
     77 H          -9.2246   21.7250  -85.6484 H         1 FAD4006     0.0000 
     78 H          -9.9930   22.7848  -84.7143 H         1 FAD4006     0.0000 
     79 H         -10.6105   21.3174  -84.9418 H         1 FAD4006     0.0000 
     80 H           1.7233   17.8472  -91.8726 H         1 FAD4006     0.0000 
     81 H           3.4688   19.6254  -90.2165 H         1 FAD4006     0.0000 
     82 H          -7.5085   24.1740  -88.6248 H         1 FAD4006     0.0000 
     83 H          -7.6178   22.3264  -92.7683 H         1 FAD4006     0.0000 
     84 H          -4.9591   25.8540  -91.8965 H         1 FAD4006     0.0000 
@<TRIPOS>BOND
     1    2    1 ar   
     2    3    1 ar   
     3    4    1 1    
     4   53    1 1    
     5    5    4 1    
     6    6    5 1    
     7   54    5 1    
     8   55    5 1    
     9    7    6 1    
    10    8    6 1    
    11   56    6 1    
    12   12    7 1    
    13    9    8 1    
    14   10    8 1    
    15   57    8 1    
    16   80    9 1    
    17   11   10 1    
    18   12   10 1    
    19   58   10 1    
    20   81   11 1    
    21   13   12 1    
    22   59   12 1    
    23   14   13 1    
    24   22   13 1    
    25   15   14 2    
    26   60   14 1    
    27   16   15 1    
    28   17   16 ar   
    29   22   16 ar   
    30   18   17 1    
    31   19   17 ar   
    32   61   18 1    
    33   62   18 1    
    34   20   19 ar   
    35   21   20 ar   
    36   63   20 1    
    37   22   21 ar   
    38   24   23 1    
    39   40   23 2    
    40   25   24 2    
    41   26   24 am   
    42   27   26 am   
    43   64   26 1    
    44   28   27 2    
    45   29   27 1    
    46   30   29 2    
    47   40   29 1    
    48   31   30 1    
    49   32   31 ar   
    50   38   31 ar   
    51   33   32 ar   
    52   65   32 1    
    53   34   33 1    
    54   35   33 ar   
    55   74   34 1    
    56   75   34 1    
    57   76   34 1    
    58   36   35 1    
    59   37   35 ar   
    60   77   36 1    
    61   78   36 1    
    62   79   36 1    
    63   38   37 ar   
    64   66   37 1    
    65   39   38 1    
    66   40   39 1    
    67   41   39 1    
    68   42   41 1    
    69   67   41 1    
    70   68   41 1    
    71   43   42 1    
    72   44   42 1    
    73   69   42 1    
    74   82   43 1    
    75   45   44 1    
    76   46   44 1    
    77   70   44 1    
    78   83   45 1    
    79   47   46 1    
    80   48   46 1    
    81   71   46 1    
    82   84   47 1    
    83   49   48 1    
    84   72   48 1    
    85   73   48 1    
    86   50   49 1    
    87   51   50 ar   
    88   52   50 ar   
    89   53   50 1    
@<TRIPOS>SUBSTRUCTURE
     1 FAD4006     1 GROUP   
@<TRIPOS>SET

