#    Name: 3i0q_AMP_1_INTS_M
#    Modification time : Tue Mar 25 15:25:51 2014

@<TRIPOS>MOLECULE
3i0q_AMP_1_INTS_M
   34     0    12     0     0
SMALL
NO_CHARGES


@<TRIPOS>ATOM
      1 NZ         27.0915  -17.3085   15.2790 N.4       3 LYC4        0.0000 
      2 NZ         27.5580  -15.5450   15.5400 N.4      11 LYL4        0.0000 
      3 NZ         26.6250  -19.0720   15.0180 N.4       7 LYP4        0.0000 
      4 CA         24.7155  -14.9295   10.2280 C.3       4 GLC5        0.0000 
      5 CA         25.1110  -13.1630   11.0800 C.3      12 GLL5        0.0000 
      6 CA         24.3200  -16.6960    9.3760 C.3       8 GLP5        0.0000 
      7 CA         20.4765  -15.3855   14.0480 C.3       4 GLC5        0.0000 
      8 CA         21.0670  -15.8470   12.0340 C.3      12 GLL5        0.0000 
      9 CA         19.8860  -14.9240   16.0620 C.3       8 GLP5        0.0000 
     10 CA         19.2190  -14.6110   12.3400 C.3       4 GLC5        0.0000 
     11 CA         17.3710  -13.3750   12.6460 C.3       8 GLP5        0.0000 
     12 O          19.1880  -17.5460   12.3000 O.2       1 ALC1        0.0000 
     13 O          20.4960  -16.7620   12.8200 O.2       9 ALL1        0.0000 
     14 O          17.8800  -18.3300   11.7800 O.2       5 ALP1        0.0000 
     15 N          18.8435  -15.1345   10.8595 N.am      2 SEC2        0.0000 
     16 N          20.3510  -15.3210   10.9940 N.am     10 SEL2        0.0000 
     17 N          17.3360  -14.9480   10.7250 N.am      6 SEP2        0.0000 
     18 CA         21.0170  -16.5595    9.8785 C.3       4 GLC5        0.0000 
     19 CA         20.9300  -14.3960   10.1990 C.3      12 GLL5        0.0000 
     20 CA         21.1040  -18.7230    9.5580 C.3       8 GLP5        0.0000 
     21 CA         18.8950  -14.0295   10.7095 C.3       4 GLC5        0.0000 
     22 CA         16.8600  -13.6630   11.2200 C.3       8 GLP5        0.0000 
     23 CA         26.4910  -12.4283   14.0578 C.3       4 GLC5        0.0000 
     24 CA         27.2330  -12.3080   11.8880 C.3      12 GLL5        0.0000 
     25 CA         25.2320  -12.3200   15.7090 C.3       8 GLP5        0.0000 
     26 CA         24.0042  -10.7782   12.9142 C.3       4 GLC5        0.0000 
     27 CA         26.1560  -11.3710   12.4240 C.3      12 GLL5        0.0000 
     28 CA         22.4480  -10.0250   13.8690 C.3       8 GLP5        0.0000 
     29 CA         25.3963  -11.9258   13.8343 C.3       4 GLC5        0.0000 
     30 CA         24.9650  -11.6920   11.4950 C.3      12 GLL5        0.0000 
     31 CA         21.4228  -17.1680   10.8453 C.3       4 GLC5        0.0000 
     32 CA         22.4160  -15.3790   12.2310 C.3      12 GLL5        0.0000 
     33 CA         21.6258  -13.2980   12.9085 C.3       4 GLC5        0.0000 
     34 CA         20.6070  -11.6930   14.0320 C.3       8 GLP5        0.0000 
@<TRIPOS>BOND
@<TRIPOS>SUBSTRUCTURE
     1 ALC1       12 GROUP        1 X    ALC  0     ROOT ALC X 1
     2 SEC2       15 GROUP        1 X    SEC  0     **** SEC X 2
     3 LYC4        1 GROUP        1 X    LYC  0     **** LYC X 4
     4 GLC5        4 GROUP        1 X    GLC  0     **** GLC X 6
     5 ALP1       14 GROUP        1 Y    ALP  0     ROOT ALP Y 8
     6 SEP2       17 GROUP        1 Y    SEP  0     **** SEP Y 9
     7 LYP4        3 GROUP        1 Y    LYP  0     **** LYP Y 11
     8 GLP5        6 GROUP        1 Y    GLP  0     **** GLP Y 13
     9 ALL1       13 GROUP        1 Z    ALL  0     ROOT ALL Z 15
    10 SEL2       16 GROUP        1 Z    SEL  0     **** SEL Z 16
    11 LYL4        2 GROUP        1 Z    LYL  0     **** LYL Z 18
    12 GLL5        5 GROUP        1 Z    GLL  0     **** GLL Z 20
@<TRIPOS>SET

