#    Name: 3i0q_AMP_1_ligand
#    Modification time : Tue Mar 25 15:25:52 2014

@<TRIPOS>MOLECULE
3i0q_AMP_1_ligand
   35    37     1     0     0
SMALL
NO_CHARGES


@<TRIPOS>ATOM
      1 P          28.3790  -14.9460   14.4450 P.3       1 AMP400      0.0000 
      2 O1P        29.8240  -14.6560   14.6680 O.co2     1 AMP400      0.0000 
      3 O2P        28.2440  -15.9090   13.1530 O.co2     1 AMP400      0.0000 
      4 O3P        27.5580  -15.5450   15.5400 O.co2     1 AMP400      0.0000 
      5 O5'        27.6630  -13.5910   13.9330 O.3       1 AMP400      0.0000 
      6 C5'        28.2670  -12.7650   12.9250 C.3       1 AMP400      0.0000 
      7 C4'        27.2330  -12.3080   11.8880 C.3       1 AMP400      0.0000 
      8 O4'        26.4950  -13.4090   11.3590 O.3       1 AMP400      0.0000 
      9 C3'        26.1560  -11.3710   12.4240 C.3       1 AMP400      0.0000 
     10 O3'        26.5800  -10.0130   12.2110 O.3       1 AMP400      0.0000 
     11 C2'        24.9650  -11.6920   11.4950 C.3       1 AMP400      0.0000 
     12 O2'        25.0680  -10.8740   10.3160 O.3       1 AMP400      0.0000 
     13 C1'        25.1110  -13.1630   11.0800 C.3       1 AMP400      0.0000 
     14 N9         24.1730  -14.1330   11.7250 N.pl3     1 AMP400      0.0000 
     15 C8         24.4030  -14.9340   12.8220 C.2       1 AMP400      0.0000 
     16 N7         23.3960  -15.6880   13.1590 N.2       1 AMP400      0.0000 
     17 C5         22.4160  -15.3790   12.2310 C.ar      1 AMP400      0.0000 
     18 C6         21.0670  -15.8470   12.0340 C.ar      1 AMP400      0.0000 
     19 N6         20.4960  -16.7620   12.8200 N.pl3     1 AMP400      0.0000 
     20 N1         20.3510  -15.3210   10.9940 N.ar      1 AMP400      0.0000 
     21 C2         20.9300  -14.3960   10.1990 C.ar      1 AMP400      0.0000 
     22 N3         22.1760  -13.8850   10.2840 N.ar      1 AMP400      0.0000 
     23 C4         22.8730  -14.4270   11.3390 C.ar      1 AMP400      0.0000 
     24 H          29.0628  -13.3022   12.3868 H         1 AMP400      0.0000 
     25 H          28.7212  -11.8625   13.3618 H         1 AMP400      0.0000 
     26 H          27.7420  -11.7902   11.0799 H         1 AMP400      0.0000 
     27 H          25.9197  -11.6188   13.3898 H         1 AMP400      0.0000 
     28 H          24.0715  -11.5614   12.0180 H         1 AMP400      0.0000 
     29 H          24.9769  -13.1770    9.9857 H         1 AMP400      0.0000 
     30 H          25.2917  -14.9101   13.2985 H         1 AMP400      0.0000 
     31 H          19.8374  -17.3718   12.3789 H         1 AMP400      0.0000 
     32 H          20.7780  -16.7556   13.7794 H         1 AMP400      0.0000 
     33 H          20.3079  -14.0108    9.3794 H         1 AMP400      0.0000 
     34 H          27.4977   -9.9636   12.6052 H         1 AMP400      0.0000 
     35 H          25.7852  -10.2090   10.5244 H         1 AMP400      0.0000 
@<TRIPOS>BOND
     1    2    1 ar   
     2    3    1 ar   
     3    4    1 ar   
     4    5    1 1    
     5    6    5 1    
     6    7    6 1    
     7   24    6 1    
     8   25    6 1    
     9    8    7 1    
    10    9    7 1    
    11   26    7 1    
    12   13    8 1    
    13   10    9 1    
    14   11    9 1    
    15   27    9 1    
    16   34   10 1    
    17   12   11 1    
    18   13   11 1    
    19   28   11 1    
    20   35   12 1    
    21   14   13 1    
    22   29   13 1    
    23   15   14 1    
    24   23   14 1    
    25   16   15 2    
    26   30   15 1    
    27   17   16 1    
    28   18   17 ar   
    29   23   17 ar   
    30   19   18 1    
    31   20   18 ar   
    32   31   19 1    
    33   32   19 1    
    34   21   20 ar   
    35   22   21 ar   
    36   33   21 1    
    37   23   22 ar   
@<TRIPOS>SUBSTRUCTURE
     1 AMP400      1 GROUP   
@<TRIPOS>SET

