#    Name: 3bz8_BL6_1_INTS_M
#    Modification time : Mon Mar 24 20:16:13 2014

@<TRIPOS>MOLECULE
3bz8_BL6_1_INTS_M
   63     0     9     0     0
SMALL
NO_CHARGES


@<TRIPOS>ATOM
      1 CA         23.7555   39.9420   40.7790 C.3       3 GLC5        0.0000 
      2 CA         22.3250   39.5030   39.2220 C.3       9 GLL5        0.0000 
      3 CA         25.1860   40.3810   42.3360 C.3       6 GLP5        0.0000 
      4 CA         24.4680   39.5245   38.6420 C.3       3 GLC5        0.0000 
      5 CA         26.6110   39.5460   38.0620 C.3       6 GLP5        0.0000 
      6 CA         20.5025   39.5445   41.5345 C.3       3 GLC5        0.0000 
      7 CA         21.0500   40.0950   39.8740 C.3       9 GLL5        0.0000 
      8 CA         19.9550   38.9940   43.1950 C.3       6 GLP5        0.0000 
      9 CA         25.0840   38.6090   41.0185 C.3       3 GLC5        0.0000 
     10 CA         24.9820   36.8370   39.7010 C.3       9 GLL5        0.0000 
     11 CA         25.2875   36.2120   41.6405 C.3       3 GLC5        0.0000 
     12 CA         25.5930   35.5870   43.5800 C.3       6 GLP5        0.0000 
     13 CA         21.5505   39.2200   33.1765 C.3       3 GLC5        0.0000 
     14 CA         19.7670   39.0270   33.9310 C.3       9 GLL5        0.0000 
     15 CA         23.3340   39.4130   32.4220 C.3       6 GLP5        0.0000 
     16 N          22.4580   38.2525   42.6750 N.am      2 SEC2        0.0000 
     17 N          22.8100   38.1190   41.1660 N.am      8 SEL2        0.0000 
     18 N          22.1060   38.3860   44.1840 N.am      5 SEP2        0.0000 
     19 N          23.8325   40.9030   40.2580 N.am      2 SEC2        0.0000 
     20 N          23.3310   40.5630   38.9110 N.am      8 SEL2        0.0000 
     21 N          24.3340   41.2430   41.6050 N.am      5 SEP2        0.0000 
     22 O          22.8155   41.2810   38.1240 O.2       1 ALC1        0.0000 
     23 O          23.3310   40.5630   38.9110 O.2       7 ALL1        0.0000 
     24 O          22.3000   41.9990   37.3370 O.2       4 ALP1        0.0000 
     25 CA         27.6305   36.8750   36.9550 C.3       3 GLC5        0.0000 
     26 CA         26.5060   35.3070   36.5730 C.3       9 GLL5        0.0000 
     27 CA         28.7550   38.4430   37.3370 C.3       6 GLP5        0.0000 
     28 CA         24.6740   34.8965   36.0595 C.3       3 GLC5        0.0000 
     29 CA         22.8420   34.4860   35.5460 C.3       6 GLP5        0.0000 
     30 CA         27.5795   36.1595   35.2400 C.3       3 GLC5        0.0000 
     31 CA         28.6530   37.0120   33.9070 C.3       6 GLP5        0.0000 
     32 CA         27.4230   34.1020   35.9365 C.3       3 GLC5        0.0000 
     33 CA         28.3400   32.8970   35.3000 C.3       6 GLP5        0.0000 
     34 CA         27.5015   35.0595   39.6225 C.3       3 GLC5        0.0000 
     35 CA         25.8360   36.0990   38.8690 C.3       9 GLL5        0.0000 
     36 CA         29.1670   34.0200   40.3760 C.3       6 GLP5        0.0000 
     37 CA         24.2040   35.3227   39.9480 C.3       3 GLC5        0.0000 
     38 CA         23.8880   37.5220   39.1050 C.3       9 GLL5        0.0000 
     39 CA         23.9730   33.4660   40.4930 C.3       6 GLP5        0.0000 
     40 CA         19.4057   38.9665   39.6345 C.3       3 GLC5        0.0000 
     41 CA         18.1420   37.5710   40.0260 C.3       6 GLP5        0.0000 
     42 CA         21.9326   41.6925   40.1180 C.3       3 GLC5        0.0000 
     43 CA         20.2890   40.6290   38.6120 C.3       9 GLL5        0.0000 
     44 CA         22.8770   43.1710   41.1560 C.3       6 GLP5        0.0000 
     45 CA         24.8417   34.7745   39.3310 C.3       3 GLC5        0.0000 
     46 CA         25.5850   36.0670   37.4690 C.3       9 GLL5        0.0000 
     47 CA         21.7278   40.2033   35.0648 C.3       3 GLC5        0.0000 
     48 CA         20.1450   39.8010   36.2100 C.3       9 GLL5        0.0000 
     49 CA         23.1930   41.0870   34.4280 C.3       6 GLP5        0.0000 
     50 CA         19.5388   37.2482   34.8010 C.3       3 GLC5        0.0000 
     51 CA         20.3800   38.8380   35.1930 C.3       9 GLL5        0.0000 
     52 CA         19.0040   35.5640   35.0400 C.3       6 GLP5        0.0000 
     53 CA         19.8925   39.7675   31.7467 C.3       3 GLC5        0.0000 
     54 CA         20.4340   39.9500   29.6990 C.3       6 GLP5        0.0000 
     55 CA         18.5487   42.7990   36.1702 C.3       3 GLC5        0.0000 
     56 CA         19.3130   40.9320   35.9200 C.3       9 GLL5        0.0000 
     57 CA         18.0780   44.5760   37.0550 C.3       6 GLP5        0.0000 
     58 CA         21.0851   40.8347   34.4499 C.3       3 GLC5        0.0000 
     59 CA         18.7260   41.1120   34.6510 C.3       9 GLL5        0.0000 
     60 CA         17.0821   40.8772   34.7884 C.3       3 GLC5        0.0000 
     61 CA         15.1870   41.1720   35.1050 C.3       6 GLP5        0.0000 
     62 CA         25.6775   38.1718   38.1709 C.3       3 GLC5        0.0000 
     63 CA         24.5190   36.7610   36.8580 C.3       9 GLL5        0.0000 
@<TRIPOS>BOND
@<TRIPOS>SUBSTRUCTURE
     1 ALC1       22 GROUP        1 X    ALC  0     ROOT ALC X 1
     2 SEC2       16 GROUP        1 X    SEC  0     **** SEC X 2
     3 GLC5        1 GROUP        1 X    GLC  0     **** GLC X 6
     4 ALP1       24 GROUP        1 Y    ALP  0     ROOT ALP Y 8
     5 SEP2       18 GROUP        1 Y    SEP  0     **** SEP Y 9
     6 GLP5        3 GROUP        1 Y    GLP  0     **** GLP Y 13
     7 ALL1       23 GROUP        1 Z    ALL  0     ROOT ALL Z 15
     8 SEL2       17 GROUP        1 Z    SEL  0     **** SEL Z 16
     9 GLL5        2 GROUP        1 Z    GLL  0     **** GLL Z 20
@<TRIPOS>SET

