#    Name: 3bz8_BL6_1_ligand
#    Modification time : Mon Mar 24 20:16:13 2014

@<TRIPOS>MOLECULE
3bz8_BL6_1_ligand
   38    41     1     0     0
SMALL
NO_CHARGES


@<TRIPOS>ATOM
      1 C5         23.8880   37.5220   39.1050 C.ar      1 BL6800      0.0000 
      2 C4         22.9660   38.3380   39.9610 C.2       1 BL6800      0.0000 
      3 C3         22.3250   39.5030   39.2220 C.3       1 BL6800      0.0000 
      4 C2         21.0500   40.0950   39.8740 C.3       1 BL6800      0.0000 
      5 C1         20.2890   40.6290   38.6120 C.3       1 BL6800      0.0000 
      6 C6         24.9820   36.8370   39.7010 C.ar      1 BL6800      0.0000 
      7 C8         25.5850   36.0670   37.4690 C.ar      1 BL6800      0.0000 
      8 C10        23.6530   37.4980   37.6840 C.ar      1 BL6800      0.0000 
      9 C11        21.7720   38.9070   37.9220 C.2       1 BL6800      0.0000 
     10 C12        20.1450   39.8010   36.2100 C.ar      1 BL6800      0.0000 
     11 C13        20.3800   38.8380   35.1930 C.ar      1 BL6800      0.0000 
     12 C14        19.7670   39.0270   33.9310 C.ar      1 BL6800      0.0000 
     13 C17        19.3130   40.9320   35.9200 C.ar      1 BL6800      0.0000 
     14 O2         22.8100   38.1190   41.1660 O.2       1 BL6800      0.0000 
     15 O1         23.3310   40.5630   38.9110 O.3       1 BL6800      0.0000 
     16 N1         20.6630   39.6560   37.5210 N.pl3     1 BL6800      0.0000 
     17 C16        18.7260   41.1120   34.6510 C.ar      1 BL6800      0.0000 
     18 C15        18.9350   40.1430   33.6580 C.ar      1 BL6800      0.0000 
     19 N2         22.6030   38.1890   37.1170 N.2       1 BL6800      0.0000 
     20 C9         24.5190   36.7610   36.8580 C.ar      1 BL6800      0.0000 
     21 C18        26.5060   35.3070   36.5730 C.3       1 BL6800      0.0000 
     22 C7         25.8360   36.0990   38.8690 C.ar      1 BL6800      0.0000 
     23 H          21.3042   40.8990   40.4876 H         1 BL6800      0.0000 
     24 H          20.4902   39.3344   40.3164 H         1 BL6800      0.0000 
     25 H          20.6467   41.6008   38.3901 H         1 BL6800      0.0000 
     26 H          19.2487   40.5953   38.8077 H         1 BL6800      0.0000 
     27 H          25.1323   36.8862   40.6974 H         1 BL6800      0.0000 
     28 H          20.9698   38.0394   35.3677 H         1 BL6800      0.0000 
     29 H          19.9301   38.3306   33.1842 H         1 BL6800      0.0000 
     30 H          19.1463   41.6242   36.6638 H         1 BL6800      0.0000 
     31 H          18.1590   41.9344   34.4607 H         1 BL6800      0.0000 
     32 H          18.4947   40.2342   32.7436 H         1 BL6800      0.0000 
     33 H          24.3850   36.7276   35.8595 H         1 BL6800      0.0000 
     34 H          26.6269   35.5902   39.2523 H         1 BL6800      0.0000 
     35 H          26.9511   35.9039   35.9054 H         1 BL6800      0.0000 
     36 H          27.2317   34.8503   37.0876 H         1 BL6800      0.0000 
     37 H          26.0226   34.5996   36.0573 H         1 BL6800      0.0000 
     38 H          22.7910   41.3736   38.6844 H         1 BL6800      0.0000 
@<TRIPOS>BOND
     1    2    1 1    
     2    6    1 ar   
     3    8    1 ar   
     4    3    2 1    
     5   14    2 2    
     6    4    3 1    
     7    9    3 1    
     8   15    3 1    
     9    5    4 1    
    10   23    4 1    
    11   24    4 1    
    12   16    5 1    
    13   25    5 1    
    14   26    5 1    
    15   22    6 ar   
    16   27    6 1    
    17   20    7 ar   
    18   21    7 1    
    19   22    7 ar   
    20   19    8 1    
    21   20    8 ar   
    22   16    9 1    
    23   19    9 2    
    24   11   10 ar   
    25   13   10 ar   
    26   16   10 1    
    27   12   11 ar   
    28   28   11 1    
    29   18   12 ar   
    30   29   12 1    
    31   17   13 ar   
    32   30   13 1    
    33   38   15 1    
    34   18   17 ar   
    35   31   17 1    
    36   32   18 1    
    37   33   20 1    
    38   35   21 1    
    39   36   21 1    
    40   37   21 1    
    41   34   22 1    
@<TRIPOS>SUBSTRUCTURE
     1 BL6800      1 GROUP   
@<TRIPOS>SET

