#    Name: 3vsx_R32_1_INTS_M
#    Modification time : Tue Mar 25 01:31:39 2014

@<TRIPOS>MOLECULE
3vsx_R32_1_INTS_M
   66     0     9     0     0
SMALL
NO_CHARGES


@<TRIPOS>ATOM
      1 CA        -56.2370 -157.1790 -136.9005 C.3       3 GLC5        0.0000 
      2 CA        -57.4240 -158.3830 -135.8940 C.3       9 GLL5        0.0000 
      3 CA        -55.0500 -155.9750 -137.9070 C.3       6 GLP5        0.0000 
      4 CA        -55.3100 -157.8380 -136.0900 C.3       3 GLC5        0.0000 
      5 CA        -56.6160 -159.3520 -135.3140 C.3       9 GLL5        0.0000 
      6 CA        -54.0040 -156.3240 -136.8660 C.3       6 GLP5        0.0000 
      7 CA        -60.3320 -156.6270 -136.3285 C.3       3 GLC5        0.0000 
      8 CA        -59.4290 -157.5770 -137.4820 C.3       9 GLL5        0.0000 
      9 CA        -61.2350 -155.6770 -135.1750 C.3       6 GLP5        0.0000 
     10 CA        -59.7115 -156.4010 -138.5825 C.3       3 GLC5        0.0000 
     11 CA        -59.9940 -155.2250 -139.6830 C.3       6 GLP5        0.0000 
     12 CA        -57.9955 -157.9405 -138.9180 C.3       3 GLC5        0.0000 
     13 CA        -56.5620 -158.3040 -140.3540 C.3       6 GLP5        0.0000 
     14 CA        -57.9230 -159.6365 -139.8240 C.3       3 GLC5        0.0000 
     15 CA        -59.2840 -160.9690 -139.2940 C.3       9 GLL5        0.0000 
     16 N         -62.6455 -160.1460 -136.2280 N.am      2 SEC2        0.0000 
     17 N         -61.2720 -160.1480 -136.3770 N.am      8 SEL2        0.0000 
     18 N         -64.0190 -160.1440 -136.0790 N.am      5 SEP2        0.0000 
     19 CA        -58.3960 -161.4830 -142.3345 C.3       3 GLC5        0.0000 
     20 CA        -59.9840 -161.4680 -141.6310 C.3       9 GLL5        0.0000 
     21 CA        -56.8080 -161.4980 -143.0380 C.3       6 GLP5        0.0000 
     22 CA        -60.3850 -162.6535 -143.1900 C.3       3 GLC5        0.0000 
     23 CA        -60.7860 -163.8390 -144.7490 C.3       6 GLP5        0.0000 
     24 CA        -62.1965 -158.4550 -141.5330 C.3       3 GLC5        0.0000 
     25 CA        -60.5950 -159.2860 -140.5820 C.3       9 GLL5        0.0000 
     26 CA        -63.7980 -157.6240 -142.4840 C.3       6 GLP5        0.0000 
     27 CA        -60.2945 -157.2555 -140.1325 C.3       3 GLC5        0.0000 
     28 CA        -58.5785 -158.7950 -140.4680 C.3       3 GLC5        0.0000 
     29 CA        -66.0390 -165.3120 -142.3660 C.3       3 GLC5        0.0000 
     30 CA        -67.1100 -164.2380 -140.7550 C.3       9 GLL5        0.0000 
     31 CA        -64.9680 -166.3860 -143.9770 C.3       6 GLP5        0.0000 
     32 CA        -67.0025 -161.6800 -144.1695 C.3       3 GLC5        0.0000 
     33 CA        -68.5920 -161.3300 -142.6170 C.3       9 GLL5        0.0000 
     34 CA        -65.4130 -162.0300 -145.7220 C.3       6 GLP5        0.0000 
     35 CA        -67.0100 -160.5790 -142.3195 C.3       3 GLC5        0.0000 
     36 CA        -65.4280 -159.8280 -142.0220 C.3       6 GLP5        0.0000 
     37 O         -63.7350 -163.5095 -142.8445 O.2       1 ALC1        0.0000 
     38 O         -64.6720 -163.6240 -142.1110 O.2       7 ALL1        0.0000 
     39 O         -62.7980 -163.3950 -143.5780 O.2       4 ALP1        0.0000 
     40 N         -68.1625 -161.3185 -138.9280 N.am      2 SEC2        0.0000 
     41 N         -68.2070 -162.1890 -140.0540 N.am      8 SEL2        0.0000 
     42 N         -68.1180 -160.4480 -137.8020 N.am      5 SEP2        0.0000 
     43 CA        -68.1925 -168.0835 -140.9390 C.3       3 GLC5        0.0000 
     44 CA        -67.4010 -166.6280 -139.8740 C.3       9 GLL5        0.0000 
     45 CA        -68.9840 -169.5390 -142.0040 C.3       6 GLP5        0.0000 
     46 CA        -69.1890 -167.4580 -141.4015 C.3       3 GLC5        0.0000 
     47 CA        -69.3940 -165.3770 -140.7990 C.3       9 GLL5        0.0000 
     48 CA        -70.7165 -165.7685 -139.4625 C.3       3 GLC5        0.0000 
     49 CA        -72.0390 -166.1600 -138.1260 C.3       6 GLP5        0.0000 
     50 CA        -70.8680 -166.8980 -141.3085 C.3       3 GLC5        0.0000 
     51 CA        -72.3420 -168.4190 -141.8180 C.3       6 GLP5        0.0000 
     52 CA        -70.6425 -158.6660 -145.0600 C.3       3 GLC5        0.0000 
     53 CA        -70.6510 -160.2970 -143.6370 C.3       9 GLL5        0.0000 
     54 CA        -70.6340 -157.0350 -146.4830 C.3       6 GLP5        0.0000 
     55 CA        -59.1680 -157.2852 -135.1325 C.3       3 GLC5        0.0000 
     56 CA        -58.4240 -158.7820 -136.7620 C.3       9 GLL5        0.0000 
     57 CA        -60.4120 -155.9880 -133.9370 C.3       6 GLP5        0.0000 
     58 CA        -54.9525 -160.9170 -136.0528 C.3       3 GLC5        0.0000 
     59 CA        -53.1860 -161.8100 -136.6440 C.3       6 GLP5        0.0000 
     60 CA        -59.9707 -159.3972 -142.4651 C.3       3 GLC5        0.0000 
     61 CA        -59.5530 -158.5900 -144.1510 C.3       6 GLP5        0.0000 
     62 CA        -64.6724 -161.3000 -141.3180 C.3       3 GLC5        0.0000 
     63 CA        -62.6280 -161.8180 -140.7110 C.3       9 GLL5        0.0000 
     64 CA        -68.9185 -166.3280 -138.2935 C.3       3 GLC5        0.0000 
     65 CA        -68.0510 -165.2600 -140.0840 C.3       9 GLL5        0.0000 
     66 CA        -70.1110 -166.7120 -136.6080 C.3       6 GLP5        0.0000 
@<TRIPOS>BOND
@<TRIPOS>SUBSTRUCTURE
     1 ALC1       37 GROUP        1 X    ALC  0     ROOT ALC X 1
     2 SEC2       16 GROUP        1 X    SEC  0     **** SEC X 2
     3 GLC5        1 GROUP        1 X    GLC  0     **** GLC X 6
     4 ALP1       39 GROUP        1 Y    ALP  0     ROOT ALP Y 8
     5 SEP2       18 GROUP        1 Y    SEP  0     **** SEP Y 9
     6 GLP5        3 GROUP        1 Y    GLP  0     **** GLP Y 13
     7 ALL1       38 GROUP        1 Z    ALL  0     ROOT ALL Z 15
     8 SEL2       17 GROUP        1 Z    SEL  0     **** SEL Z 16
     9 GLL5        2 GROUP        1 Z    GLL  0     **** GLL Z 20
@<TRIPOS>SET

