#    Name: 3vsx_R32_1_ligand
#    Modification time : Tue Mar 25 01:31:39 2014

@<TRIPOS>MOLECULE
3vsx_R32_1_ligand
   77    78     1     0     0
SMALL
NO_CHARGES


@<TRIPOS>ATOM
      1 C1        -57.8350 -161.0780 -136.4860 C.ar      1 R32402      0.0000 
      2 C2        -58.6460 -160.1120 -137.0690 C.ar      1 R32402      0.0000 
      3 C3        -58.4240 -158.7820 -136.7620 C.ar      1 R32402      0.0000 
      4 C4        -57.4240 -158.3830 -135.8940 C.ar      1 R32402      0.0000 
      5 C5        -56.6160 -159.3520 -135.3140 C.ar      1 R32402      0.0000 
      6 C6        -56.8220 -160.6960 -135.6090 C.ar      1 R32402      0.0000 
      7 N7        -59.6490 -160.5270 -137.9380 N.am      1 R32402      0.0000 
      8 CL1       -59.4290 -157.5770 -137.4820 Cl        1 R32402      0.0000 
      9 C9        -59.2840 -160.9690 -139.2940 C.3       1 R32402      0.0000 
     10 C10       -60.3800 -160.7780 -140.3220 C.3       1 R32402      0.0000 
     11 N11       -61.5950 -161.3790 -139.7860 N.4       1 R32402      0.0000 
     12 C12       -62.0480 -160.9650 -138.4740 C.3       1 R32402      0.0000 
     13 C13       -60.9550 -160.5090 -137.4980 C.2       1 R32402      0.0000 
     14 O14       -61.2720 -160.1480 -136.3770 O.2       1 R32402      0.0000 
     15 C15       -59.9840 -161.4680 -141.6310 C.3       1 R32402      0.0000 
     16 C16       -60.5950 -159.2860 -140.5820 C.3       1 R32402      0.0000 
     17 C17       -62.6280 -161.8180 -140.7110 C.3       1 R32402      0.0000 
     18 C18       -63.4310 -162.9940 -140.1430 C.3       1 R32402      0.0000 
     19 C19       -64.8040 -163.1380 -140.8010 C.3       1 R32402      0.0000 
     20 C20       -65.7890 -164.0050 -139.9990 C.3       1 R32402      0.0000 
     21 C21       -67.1100 -164.2380 -140.7550 C.3       1 R32402      0.0000 
     22 C22       -67.8180 -162.8900 -140.9850 C.2       1 R32402      0.0000 
     23 N23       -67.9450 -162.5830 -142.2890 N.am      1 R32402      0.0000 
     24 C24       -68.5920 -161.3300 -142.6170 C.3       1 R32402      0.0000 
     25 C25       -69.8710 -161.5980 -143.4170 C.3       1 R32402      0.0000 
     26 N26       -62.6670 -164.2340 -140.1550 N.3       1 R32402      0.0000 
     27 O27       -64.6720 -163.6240 -142.1110 O.3       1 R32402      0.0000 
     28 C28       -68.0510 -165.2600 -140.0840 C.3       1 R32402      0.0000 
     29 O29       -68.2070 -162.1890 -140.0540 O.2       1 R32402      0.0000 
     30 C30       -67.4010 -166.6280 -139.8740 C.3       1 R32402      0.0000 
     31 C31       -69.3940 -165.3770 -140.7990 C.3       1 R32402      0.0000 
     32 C32       -69.4600 -162.1540 -144.7860 C.2       1 R32402      0.0000 
     33 C33       -70.6510 -160.2970 -143.6370 C.3       1 R32402      0.0000 
     34 C34       -70.7550 -162.6430 -142.7200 C.3       1 R32402      0.0000 
     35 N35       -68.7220 -161.2870 -145.5150 N.am      1 R32402      0.0000 
     36 O36       -69.7760 -163.2840 -145.1410 O.2       1 R32402      0.0000 
     37 H         -57.9806 -162.0719 -136.7000 H         1 R32402      0.0000 
     38 H         -57.2803 -157.3942 -135.6817 H         1 R32402      0.0000 
     39 H         -55.8656 -159.0777 -134.6668 H         1 R32402      0.0000 
     40 H         -56.2222 -161.4138 -135.1767 H         1 R32402      0.0000 
     41 H         -59.0023 -162.0430 -139.2801 H         1 R32402      0.0000 
     42 H         -58.3814 -160.4231 -139.6410 H         1 R32402      0.0000 
     43 H         -61.1235 -162.5296 -139.4694 H         1 R32402      0.0000 
     44 H         -62.6145 -161.7916 -137.9742 H         1 R32402      0.0000 
     45 H         -62.7867 -160.1277 -138.5587 H         1 R32402      0.0000 
     46 H         -62.1903 -162.1390 -141.6677 H         1 R32402      0.0000 
     47 H         -63.3330 -161.0028 -140.9308 H         1 R32402      0.0000 
     48 H         -63.6345 -162.7266 -139.0645 H         1 R32402      0.0000 
     49 H         -65.2465 -162.1138 -140.8319 H         1 R32402      0.0000 
     50 H         -66.0056 -163.5125 -139.0482 H         1 R32402      0.0000 
     51 H         -65.3245 -164.9712 -139.7887 H         1 R32402      0.0000 
     52 H         -66.8494 -164.6300 -141.7565 H         1 R32402      0.0000 
     53 H         -67.6192 -163.1687 -143.0428 H         1 R32402      0.0000 
     54 H         -67.9421 -160.6930 -143.2236 H         1 R32402      0.0000 
     55 H         -68.8681 -160.7763 -141.7151 H         1 R32402      0.0000 
     56 H         -68.2739 -164.8549 -139.0591 H         1 R32402      0.0000 
     57 H         -68.5068 -160.4148 -145.0758 H         1 R32402      0.0000 
     58 H         -68.4568 -161.5949 -146.4287 H         1 R32402      0.0000 
     59 H         -59.1333 -161.0973 -142.0036 H         1 R32402      0.0000 
     60 H         -59.8457 -162.4505 -141.5059 H         1 R32402      0.0000 
     61 H         -60.6850 -161.3581 -142.3356 H         1 R32402      0.0000 
     62 H         -59.7661 -158.8460 -140.9275 H         1 R32402      0.0000 
     63 H         -61.3148 -159.1267 -141.2577 H         1 R32402      0.0000 
     64 H         -60.8607 -158.7986 -139.7502 H         1 R32402      0.0000 
     65 H         -67.1092 -167.0372 -140.7385 H         1 R32402      0.0000 
     66 H         -66.5916 -166.5688 -139.2898 H         1 R32402      0.0000 
     67 H         -68.0286 -167.2748 -139.4406 H         1 R32402      0.0000 
     68 H         -69.2849 -165.6722 -141.7482 H         1 R32402      0.0000 
     69 H         -69.9956 -166.0399 -140.3532 H         1 R32402      0.0000 
     70 H         -69.8821 -164.5044 -140.8177 H         1 R32402      0.0000 
     71 H         -70.1132 -159.6226 -144.1429 H         1 R32402      0.0000 
     72 H         -71.4914 -160.4512 -144.1565 H         1 R32402      0.0000 
     73 H         -70.9153 -159.8716 -142.7715 H         1 R32402      0.0000 
     74 H         -70.2820 -163.5175 -142.6129 H         1 R32402      0.0000 
     75 H         -71.0315 -162.3455 -141.8062 H         1 R32402      0.0000 
     76 H         -71.5927 -162.8240 -143.2353 H         1 R32402      0.0000 
     77 H         -64.0456 -162.9876 -142.5611 H         1 R32402      0.0000 
@<TRIPOS>BOND
     1    2    1 ar   
     2    6    1 ar   
     3   37    1 1    
     4    3    2 ar   
     5    7    2 1    
     6    4    3 ar   
     7    8    3 1    
     8    5    4 ar   
     9   38    4 1    
    10    6    5 ar   
    11   39    5 1    
    12   40    6 1    
    13    9    7 1    
    14   13    7 am   
    15   10    9 1    
    16   41    9 1    
    17   42    9 1    
    18   11   10 1    
    19   15   10 1    
    20   16   10 1    
    21   12   11 1    
    22   17   11 1    
    23   43   11 1    
    24   13   12 1    
    25   44   12 1    
    26   45   12 1    
    27   14   13 2    
    28   59   15 1    
    29   60   15 1    
    30   61   15 1    
    31   62   16 1    
    32   63   16 1    
    33   64   16 1    
    34   18   17 1    
    35   46   17 1    
    36   47   17 1    
    37   19   18 1    
    38   26   18 1    
    39   48   18 1    
    40   20   19 1    
    41   27   19 1    
    42   49   19 1    
    43   21   20 1    
    44   50   20 1    
    45   51   20 1    
    46   22   21 1    
    47   28   21 1    
    48   52   21 1    
    49   23   22 am   
    50   29   22 2    
    51   24   23 1    
    52   53   23 1    
    53   25   24 1    
    54   54   24 1    
    55   55   24 1    
    56   32   25 1    
    57   33   25 1    
    58   34   25 1    
    59   77   27 1    
    60   30   28 1    
    61   31   28 1    
    62   56   28 1    
    63   65   30 1    
    64   66   30 1    
    65   67   30 1    
    66   68   31 1    
    67   69   31 1    
    68   70   31 1    
    69   35   32 am   
    70   36   32 2    
    71   71   33 1    
    72   72   33 1    
    73   73   33 1    
    74   74   34 1    
    75   75   34 1    
    76   76   34 1    
    77   57   35 1    
    78   58   35 1    
@<TRIPOS>SUBSTRUCTURE
     1 R32402      1 GROUP   
@<TRIPOS>SET

