#    Name: 3eeo_SAM_1_INTS_M
#    Modification time : Tue Mar 25 01:39:04 2014

@<TRIPOS>MOLECULE
3eeo_SAM_1_INTS_M
   53     0     9     0     0
SMALL
NO_CHARGES


@<TRIPOS>ATOM
      1 CA        -18.0310   31.7725   79.7025 C.3       3 GLC5        0.0000 
      2 CA        -17.8980   30.1930   81.2070 C.3       9 GLL5        0.0000 
      3 CA        -18.1640   33.3520   78.1980 C.3       6 GLP5        0.0000 
      4 N         -20.2890   28.5835   78.7450 N.am      2 SEC2        0.0000 
      5 N         -19.7530   29.7830   79.6090 N.am      8 SEL2        0.0000 
      6 N         -20.8250   27.3840   77.8810 N.am      5 SEP2        0.0000 
      7 N         -20.5005   28.1010   82.2650 N.am      2 SEC2        0.0000 
      8 N         -20.1960   29.7340   81.8470 N.am      8 SEL2        0.0000 
      9 N         -20.8050   26.4680   82.6830 N.am      5 SEP2        0.0000 
     10 N         -21.0785   30.3315   81.3215 N.am      2 SEC2        0.0000 
     11 N         -21.9610   30.9290   80.7960 N.am      5 SEP2        0.0000 
     12 CA        -13.7400   33.5620   85.7295 C.3       3 GLC5        0.0000 
     13 CA        -15.9220   33.3510   85.3310 C.3       9 GLL5        0.0000 
     14 CA        -11.5580   33.7730   86.1280 C.3       6 GLP5        0.0000 
     15 CA        -13.1285   32.4600   85.7340 C.3       3 GLC5        0.0000 
     16 CA        -14.6990   31.1470   85.3400 C.3       9 GLL5        0.0000 
     17 CA        -13.5225   28.9920   84.2695 C.3       3 GLC5        0.0000 
     18 CA        -14.7840   29.6580   85.8000 C.3       9 GLL5        0.0000 
     19 CA        -12.2610   28.3260   82.7390 C.3       6 GLP5        0.0000 
     20 O         -16.2495   27.2305   86.0880 O.2       1 ALC1        0.0000 
     21 O         -16.6900   28.5890   86.7090 O.2       7 ALL1        0.0000 
     22 O         -15.8090   25.8720   85.4670 O.2       4 ALP1        0.0000 
     23 O         -15.5005   26.5615   88.2730 O.2       1 ALC1        0.0000 
     24 O         -15.2620   27.9070   88.9840 O.2       7 ALL1        0.0000 
     25 O         -15.7390   25.2160   87.5620 O.2       4 ALP1        0.0000 
     26 CA        -11.9240   28.2085   85.7365 C.3       3 GLC5        0.0000 
     27 CA        -13.5930   28.2700   87.2240 C.3       9 GLL5        0.0000 
     28 CA        -10.2550   28.1470   84.2490 C.3       6 GLP5        0.0000 
     29 CA        -13.0945   26.7775   88.6515 C.3       3 GLC5        0.0000 
     30 CA        -12.5960   25.2850   90.0790 C.3       6 GLP5        0.0000 
     31 CA         -7.8180   25.7605   86.9900 C.3       3 GLC5        0.0000 
     32 CA         -9.1690   26.3550   88.5750 C.3       9 GLL5        0.0000 
     33 CA         -6.4670   25.1660   85.4050 C.3       6 GLP5        0.0000 
     34 CA        -12.1865   23.9115   86.3260 C.3       3 GLC5        0.0000 
     35 CA        -10.5020   24.9780   87.2640 C.3       9 GLL5        0.0000 
     36 CA        -13.8710   22.8450   85.3880 C.3       6 GLP5        0.0000 
     37 CA        -11.1830   23.8870   88.5140 C.3       3 GLC5        0.0000 
     38 CA        -11.8640   22.7960   89.7640 C.3       6 GLP5        0.0000 
     39 CA         -9.2675   23.3255   88.1195 C.3       3 GLC5        0.0000 
     40 CA         -8.0330   21.6730   88.9750 C.3       6 GLP5        0.0000 
     41 CA         -8.4845   25.0720   86.3345 C.3       3 GLC5        0.0000 
     42 N         -12.4685   24.3630   87.4560 N.am      2 SEC2        0.0000 
     43 N         -11.5770   25.7950   87.1290 N.am      8 SEL2        0.0000 
     44 N         -13.3600   22.9310   87.7830 N.am      5 SEP2        0.0000 
     45 CA        -19.3660   31.6430   81.9995 C.3       3 GLC5        0.0000 
     46 CA        -17.7780   30.9570   82.5390 C.3       9 GLL5        0.0000 
     47 CA        -20.8940   32.7110   82.1260 C.3       6 GLP5        0.0000 
     48 CA        -17.8102   32.6178   85.7078 C.3       3 GLC5        0.0000 
     49 CA        -16.1850   31.9260   84.6860 C.3       9 GLL5        0.0000 
     50 CA        -19.5670   32.5970   86.4070 C.3       6 GLP5        0.0000 
     51 CA         -7.9865   27.7417   87.7618 C.3       3 GLC5        0.0000 
     52 CA        -10.2190   27.3060   88.5180 C.3       9 GLL5        0.0000 
     53 CA         -6.2790   28.6530   86.9770 C.3       6 GLP5        0.0000 
@<TRIPOS>BOND
@<TRIPOS>SUBSTRUCTURE
     1 ALC1       20 GROUP        1 X    ALC  0     ROOT ALC X 1
     2 SEC2        4 GROUP        1 X    SEC  0     **** SEC X 2
     3 GLC5        1 GROUP        1 X    GLC  0     **** GLC X 6
     4 ALP1       22 GROUP        1 Y    ALP  0     ROOT ALP Y 8
     5 SEP2        6 GROUP        1 Y    SEP  0     **** SEP Y 9
     6 GLP5        3 GROUP        1 Y    GLP  0     **** GLP Y 13
     7 ALL1       21 GROUP        1 Z    ALL  0     ROOT ALL Z 15
     8 SEL2        5 GROUP        1 Z    SEL  0     **** SEL Z 16
     9 GLL5        2 GROUP        1 Z    GLL  0     **** GLL Z 20
@<TRIPOS>SET

