#    Name: 3eeo_SAM_1_ligand
#    Modification time : Tue Mar 25 01:39:04 2014

@<TRIPOS>MOLECULE
3eeo_SAM_1_ligand
   50    52     1     0     0
SMALL
NO_CHARGES


@<TRIPOS>ATOM
      1 N         -17.2000   30.9160   80.1290 N.4       1 SAM328      0.0000 
      2 CA        -17.8980   30.1930   81.2070 C.3       1 SAM328      0.0000 
      3 C         -19.3790   29.9820   80.8550 C.2       1 SAM328      0.0000 
      4 O         -19.7530   29.7830   79.6090 O.co2     1 SAM328      0.0000 
      5 OXT       -20.1960   29.7340   81.8470 O.co2     1 SAM328      0.0000 
      6 CB        -17.7780   30.9570   82.5390 C.3       1 SAM328      0.0000 
      7 CG        -16.3540   31.1050   83.0640 C.3       1 SAM328      0.0000 
      8 SD        -16.1850   31.9260   84.6860 S.3       1 SAM328      0.0000 
      9 CE        -15.9220   33.3510   85.3310 C.3       1 SAM328      0.0000 
     10 C5'       -14.6990   31.1470   85.3400 C.3       1 SAM328      0.0000 
     11 C4'       -14.7840   29.6580   85.8000 C.3       1 SAM328      0.0000 
     12 O4'       -13.4780   29.1840   86.1370 O.3       1 SAM328      0.0000 
     13 C3'       -15.6380   29.4630   87.0960 C.3       1 SAM328      0.0000 
     14 O3'       -16.6900   28.5890   86.7090 O.3       1 SAM328      0.0000 
     15 C2'       -14.6440   28.9030   88.1010 C.3       1 SAM328      0.0000 
     16 O2'       -15.2620   27.9070   88.9840 O.3       1 SAM328      0.0000 
     17 C1'       -13.5930   28.2700   87.2240 C.3       1 SAM328      0.0000 
     18 N9        -12.2210   28.1000   87.9080 N.pl3     1 SAM328      0.0000 
     19 C8        -11.5070   28.9960   88.6750 C.2       1 SAM328      0.0000 
     20 N7        -10.3310   28.5870   89.0570 N.2       1 SAM328      0.0000 
     21 C5        -10.2190   27.3060   88.5180 C.ar      1 SAM328      0.0000 
     22 C6         -9.1690   26.3550   88.5750 C.ar      1 SAM328      0.0000 
     23 N6         -8.0130   26.6310   89.1780 N.pl3     1 SAM328      0.0000 
     24 N1         -9.3140   25.1640   87.9350 N.ar      1 SAM328      0.0000 
     25 C2        -10.5020   24.9780   87.2640 C.ar      1 SAM328      0.0000 
     26 N3        -11.5770   25.7950   87.1290 N.ar      1 SAM328      0.0000 
     27 C4        -11.3550   26.9830   87.8080 C.ar      1 SAM328      0.0000 
     28 H         -17.4479   29.2138   81.3481 H         1 SAM328      0.0000 
     29 H         -18.3906   30.4372   83.2975 H         1 SAM328      0.0000 
     30 H         -18.2211   31.9606   82.4084 H         1 SAM328      0.0000 
     31 H         -15.7227   31.7254   82.4333 H         1 SAM328      0.0000 
     32 H         -15.8578   30.1547   83.2424 H         1 SAM328      0.0000 
     33 H         -14.4169   31.8141   86.1615 H         1 SAM328      0.0000 
     34 H         -13.9760   31.2846   84.5289 H         1 SAM328      0.0000 
     35 H         -15.2214   29.0730   85.0250 H         1 SAM328      0.0000 
     36 H         -15.9546   30.4239   87.3867 H         1 SAM328      0.0000 
     37 H         -14.2075   29.7082   88.6318 H         1 SAM328      0.0000 
     38 H         -13.9457   27.3230   86.8827 H         1 SAM328      0.0000 
     39 H         -11.9035   29.9005   88.9046 H         1 SAM328      0.0000 
     40 H          -7.3267   25.9037   89.1678 H         1 SAM328      0.0000 
     41 H          -7.9359   27.5405   89.5864 H         1 SAM328      0.0000 
     42 H         -10.5878   23.9961   86.7515 H         1 SAM328      0.0000 
     43 H         -16.2340   31.0604   80.3436 H         1 SAM328      0.0000 
     44 H         -17.2365   30.4172   79.2631 H         1 SAM328      0.0000 
     45 H         -17.6018   31.8170   79.9654 H         1 SAM328      0.0000 
     46 H         -15.0396   33.7286   85.0502 H         1 SAM328      0.0000 
     47 H         -16.6223   34.0137   85.0657 H         1 SAM328      0.0000 
     48 H         -15.9193   33.3116   86.3302 H         1 SAM328      0.0000 
     49 H         -16.2319   27.7811   86.3382 H         1 SAM328      0.0000 
     50 H         -15.5354   27.1591   88.3790 H         1 SAM328      0.0000 
@<TRIPOS>BOND
     1    2    1 1    
     2   43    1 1    
     3   44    1 1    
     4   45    1 1    
     5    3    2 1    
     6    6    2 1    
     7   28    2 1    
     8    4    3 ar   
     9    5    3 ar   
    10    7    6 1    
    11   29    6 1    
    12   30    6 1    
    13    8    7 1    
    14   31    7 1    
    15   32    7 1    
    16    9    8 1    
    17   10    8 1    
    18   46    9 1    
    19   47    9 1    
    20   48    9 1    
    21   11   10 1    
    22   33   10 1    
    23   34   10 1    
    24   12   11 1    
    25   13   11 1    
    26   35   11 1    
    27   17   12 1    
    28   14   13 1    
    29   15   13 1    
    30   36   13 1    
    31   49   14 1    
    32   16   15 1    
    33   17   15 1    
    34   37   15 1    
    35   50   16 1    
    36   18   17 1    
    37   38   17 1    
    38   19   18 1    
    39   27   18 1    
    40   20   19 2    
    41   39   19 1    
    42   21   20 1    
    43   22   21 ar   
    44   27   21 ar   
    45   23   22 1    
    46   24   22 ar   
    47   40   23 1    
    48   41   23 1    
    49   25   24 ar   
    50   26   25 ar   
    51   42   25 1    
    52   27   26 ar   
@<TRIPOS>SUBSTRUCTURE
     1 SAM328      1 GROUP   
@<TRIPOS>SET

