#    Name: 2ykc_YKC_1_INTS_M
#    Modification time : Mon Apr  7 18:23:00 2014

@<TRIPOS>MOLECULE
2ykc_YKC_1_INTS_M
   82     0     9     0     0
SMALL
NO_CHARGES


@<TRIPOS>ATOM
      1 CA          7.5180    9.2120   20.7990 C.3       3 GLC5        0.0000 
      2 CA          6.8490    9.6260   22.9020 C.3       9 GLL5        0.0000 
      3 CA          8.1870    8.7980   18.6960 C.3       6 GLP5        0.0000 
      4 CA          4.5690   13.1835   22.5205 C.3       3 GLC5        0.0000 
      5 CA          4.4300   12.4130   24.1190 C.3       9 GLL5        0.0000 
      6 CA          4.7080   13.9540   20.9220 C.3       6 GLP5        0.0000 
      7 CA          4.9325   12.9715   26.8105 C.3       3 GLC5        0.0000 
      8 CA          4.2600   14.6530   25.4940 C.3       9 GLL5        0.0000 
      9 CA          5.6050   11.2900   28.1270 C.3       6 GLP5        0.0000 
     10 CA          2.7170   15.9110   25.9725 C.3       3 GLC5        0.0000 
     11 CA          1.1740   17.1690   26.4510 C.3       6 GLP5        0.0000 
     12 CA          3.6790   16.8830   25.3595 C.3       3 GLC5        0.0000 
     13 CA          4.9870   15.6060   26.2720 C.3       9 GLL5        0.0000 
     14 CA          2.3710   18.1600   24.4470 C.3       6 GLP5        0.0000 
     15 CA          5.0335   17.4990   27.3305 C.3       3 GLC5        0.0000 
     16 CA          5.0800   19.3920   28.3890 C.3       6 GLP5        0.0000 
     17 CA          7.5660   12.5865   26.7565 C.3       3 GLC5        0.0000 
     18 CA          7.0920   14.3470   25.8280 C.3       9 GLL5        0.0000 
     19 CA          8.0400   10.8260   27.6850 C.3       6 GLP5        0.0000 
     20 N           9.7045   14.7855   23.9680 N.am      2 SEC2        0.0000 
     21 N           9.4940   14.1550   25.1230 N.am      8 SEL2        0.0000 
     22 N           9.9150   15.4160   22.8130 N.am      5 SEP2        0.0000 
     23 O           8.9850   14.7615   28.6330 O.2       1 ALC1        0.0000 
     24 O           9.0590   14.5150   27.3110 O.2       7 ALL1        0.0000 
     25 O           8.9110   15.0080   29.9550 O.2       4 ALP1        0.0000 
     26 CA          9.2160   12.6640   27.4240 C.3       3 GLC5        0.0000 
     27 CA         10.3920   14.5020   27.1630 C.3       9 GLL5        0.0000 
     28 CA         10.9555   14.8100   30.1475 C.3       3 GLC5        0.0000 
     29 CA         11.4290   14.6570   28.0620 C.3       9 GLL5        0.0000 
     30 CA         10.4820   14.9630   32.2330 C.3       6 GLP5        0.0000 
     31 CA         -1.0920   13.3275   25.1750 C.3       3 GLC5        0.0000 
     32 CA         -0.3950   11.6650   24.2140 C.3       9 GLL5        0.0000 
     33 CA         -1.7890   14.9900   26.1360 C.3       6 GLP5        0.0000 
     34 CA         -2.9965   10.3205   23.5360 C.3       3 GLC5        0.0000 
     35 CA         -1.5650   11.3290   24.9430 C.3       9 GLL5        0.0000 
     36 CA         -4.4280    9.3120   22.1290 C.3       6 GLP5        0.0000 
     37 CA         -2.4920    9.6240   25.6005 C.3       3 GLC5        0.0000 
     38 CA         -3.4190    7.9190   26.2580 C.3       6 GLP5        0.0000 
     39 CA         -2.2590   12.7680   25.8960 C.3       3 GLC5        0.0000 
     40 CA         -2.9530   14.2070   26.8490 C.3       6 GLP5        0.0000 
     41 CA          1.7765   11.6375   27.0845 C.3       3 GLC5        0.0000 
     42 CA          0.9930   10.5200   26.0470 C.3       9 GLL5        0.0000 
     43 CA          2.5600   12.7550   28.1220 C.3       6 GLP5        0.0000 
     44 CA         -1.8275    9.0550   26.4980 C.3       3 GLC5        0.0000 
     45 CA         -0.2360   10.1910   26.7380 C.3       9 GLL5        0.0000 
     46 CA          0.8395   10.9930   28.1245 C.3       3 GLC5        0.0000 
     47 CA          1.9150   11.7950   29.5110 C.3       6 GLP5        0.0000 
     48 CA          6.8705    9.5350   25.1073 C.3       3 GLC5        0.0000 
     49 CA          6.2940    9.1370   27.0420 C.3       6 GLP5        0.0000 
     50 CA          8.2790    8.0660   23.6668 C.3       3 GLC5        0.0000 
     51 CA          8.0450   10.2400   23.4430 C.3       9 GLL5        0.0000 
     52 CA          9.1110    6.1990   24.1610 C.3       6 GLP5        0.0000 
     53 CA         10.0910   10.9170   23.6233 C.3       3 GLC5        0.0000 
     54 CA         12.1310   10.9610   23.4270 C.3       6 GLP5        0.0000 
     55 CA          5.9398   10.0250   25.2475 C.3       3 GLC5        0.0000 
     56 CA          5.6070   10.2990   23.1110 C.3       9 GLL5        0.0000 
     57 CA          7.7332   11.3362   25.9865 C.3       3 GLC5        0.0000 
     58 CA          6.7960   12.1870   24.3800 C.3       9 GLL5        0.0000 
     59 CA          5.3130   11.6629   21.8359 C.3       3 GLC5        0.0000 
     60 CA          5.5640   11.5270   23.7950 C.3       9 GLL5        0.0000 
     61 CA          4.7300   12.5810   20.2710 C.3       6 GLP5        0.0000 
     62 CA          3.6303   12.8610   26.3125 C.3       3 GLC5        0.0000 
     63 CA          5.5696   12.2290   26.4515 C.3       3 GLC5        0.0000 
     64 CA          4.9710   13.5210   24.8870 C.3       9 GLL5        0.0000 
     65 CA          3.5918   13.9423   27.0025 C.3       3 GLC5        0.0000 
     66 CA          4.9421   15.5344   27.9690 C.3       3 GLC5        0.0000 
     67 CA          6.3990   15.4440   26.4370 C.3       9 GLL5        0.0000 
     68 CA          4.3730   15.7820   29.7780 C.3       6 GLP5        0.0000 
     69 CA         11.7428   12.6038   24.4738 C.3       3 GLC5        0.0000 
     70 CA         10.6940   14.2780   25.7560 C.3       9 GLL5        0.0000 
     71 CA         14.0312   14.3468   24.2585 C.3       3 GLC5        0.0000 
     72 CA         12.0150   14.2150   25.2850 C.3       9 GLL5        0.0000 
     73 CA         15.5570   14.3700   22.7510 C.3       6 GLP5        0.0000 
     74 CA         12.6418   12.7853   26.7435 C.3       3 GLC5        0.0000 
     75 CA         12.9960   14.4320   26.2470 C.3       9 GLL5        0.0000 
     76 CA         12.7780   11.2470   27.7210 C.3       6 GLP5        0.0000 
     77 CA         11.8820   12.8852   27.4909 C.3       3 GLC5        0.0000 
     78 CA          0.0467   10.4653   22.6477 C.3       3 GLC5        0.0000 
     79 CA          0.8960   11.2280   24.7890 C.3       9 GLL5        0.0000 
     80 CA         -0.1570    9.4840   20.7940 C.3       6 GLP5        0.0000 
     81 CA          0.6647   12.5953   26.1212 C.3       3 GLC5        0.0000 
     82 CA          1.0790   13.7440   27.7410 C.3       6 GLP5        0.0000 
@<TRIPOS>BOND
@<TRIPOS>SUBSTRUCTURE
     1 ALC1       23 GROUP        1 X    ALC  0     ROOT ALC X 1
     2 SEC2       20 GROUP        1 X    SEC  0     **** SEC X 2
     3 GLC5        1 GROUP        1 X    GLC  0     **** GLC X 6
     4 ALP1       25 GROUP        1 Y    ALP  0     ROOT ALP Y 8
     5 SEP2       22 GROUP        1 Y    SEP  0     **** SEP Y 9
     6 GLP5        3 GROUP        1 Y    GLP  0     **** GLP Y 13
     7 ALL1       24 GROUP        1 Z    ALL  0     ROOT ALL Z 15
     8 SEL2       21 GROUP        1 Z    SEL  0     **** SEL Z 16
     9 GLL5        2 GROUP        1 Z    GLL  0     **** GLL Z 20
@<TRIPOS>SET

