#    Name: 2ykc_YKC_1_ligand
#    Modification time : Mon Apr  7 18:23:00 2014

@<TRIPOS>MOLECULE
2ykc_YKC_1_ligand
   48    53     1     0     0
SMALL
NO_CHARGES


@<TRIPOS>ATOM
      1 C1          8.0450   10.2400   23.4430 C.ar      1 YKC1224     0.0000 
      2 C2          6.8490    9.6260   22.9020 C.ar      1 YKC1224     0.0000 
      3 C3          5.6070   10.2990   23.1110 C.ar      1 YKC1224     0.0000 
      4 C4          8.0570   11.5060   24.1960 C.ar      1 YKC1224     0.0000 
      5 C5          6.7960   12.1870   24.3800 C.ar      1 YKC1224     0.0000 
      6 C6          5.5640   11.5270   23.7950 C.ar      1 YKC1224     0.0000 
      7 C7          4.4300   12.4130   24.1190 C.3       1 YKC1224     0.0000 
      8 C8          6.3680   13.3690   25.0490 C.ar      1 YKC1224     0.0000 
      9 C9          4.9710   13.5210   24.8870 C.ar      1 YKC1224     0.0000 
     10 C10         4.2600   14.6530   25.4940 C.ar      1 YKC1224     0.0000 
     11 C11         4.9870   15.6060   26.2720 C.ar      1 YKC1224     0.0000 
     12 C12         6.3990   15.4440   26.4370 C.ar      1 YKC1224     0.0000 
     13 C13         7.0920   14.3470   25.8280 C.ar      1 YKC1224     0.0000 
     14 C14         8.5440   14.3430   26.0510 C.2       1 YKC1224     0.0000 
     15 N15         9.4940   14.1550   25.1230 N.2       1 YKC1224     0.0000 
     16 N16         9.0590   14.5150   27.3110 N.pl3     1 YKC1224     0.0000 
     17 C17        10.3920   14.5020   27.1630 C.ar      1 YKC1224     0.0000 
     18 C18        10.6940   14.2780   25.7560 C.ar      1 YKC1224     0.0000 
     19 C19        12.0150   14.2150   25.2850 C.ar      1 YKC1224     0.0000 
     20 C20        12.9960   14.4320   26.2470 C.ar      1 YKC1224     0.0000 
     21 N21        12.7270   14.6150   27.6080 N.ar      1 YKC1224     0.0000 
     22 C22        11.4290   14.6570   28.0620 C.ar      1 YKC1224     0.0000 
     23 N23         3.2480   11.9200   24.7620 N.am      1 YKC1224     0.0000 
     24 C24         2.1080   11.6650   24.0310 C.2       1 YKC1224     0.0000 
     25 C25         0.8960   11.2280   24.7890 C.ar      1 YKC1224     0.0000 
     26 O26         2.1010   11.8230   22.8070 O.2       1 YKC1224     0.0000 
     27 C27        -0.3950   11.6650   24.2140 C.ar      1 YKC1224     0.0000 
     28 C28        -1.5650   11.3290   24.9430 C.ar      1 YKC1224     0.0000 
     29 C40         0.9930   10.5200   26.0470 C.ar      1 YKC1224     0.0000 
     30 N30        -1.4590   10.6080   26.1560 N.ar      1 YKC1224     0.0000 
     31 C60        -0.2360   10.1910   26.7380 C.ar      1 YKC1224     0.0000 
     32 H           8.9541    9.7658   23.2959 H         1 YKC1224     0.0000 
     33 H           6.9017    8.7660   22.4041 H         1 YKC1224     0.0000 
     34 H           4.7450    9.8758   22.7559 H         1 YKC1224     0.0000 
     35 H           8.9034   11.8656   24.5569 H         1 YKC1224     0.0000 
     36 H           4.1151   12.8967   23.1274 H         1 YKC1224     0.0000 
     37 H           3.2682   14.7417   25.3531 H         1 YKC1224     0.0000 
     38 H           4.5099   16.3860   26.7012 H         1 YKC1224     0.0000 
     39 H           6.9220   16.1196   26.9970 H         1 YKC1224     0.0000 
     40 H           8.5607   14.6195   28.1079 H         1 YKC1224     0.0000 
     41 H          12.2268   14.0288   24.3338 H         1 YKC1224     0.0000 
     42 H          14.0029   14.4609   25.9357 H         1 YKC1224     0.0000 
     43 H          11.2304   14.8022   29.0599 H         1 YKC1224     0.0000 
     44 H           3.2751   11.7633   25.7769 H         1 YKC1224     0.0000 
     45 H          -0.4114   12.1639   23.3642 H         1 YKC1224     0.0000 
     46 H          -2.4803   11.6075   24.5919 H         1 YKC1224     0.0000 
     47 H           1.8771   10.2667   26.4261 H         1 YKC1224     0.0000 
     48 H          -0.2077    9.6840   27.5997 H         1 YKC1224     0.0000 
@<TRIPOS>BOND
     1    2    1 ar   
     2    4    1 ar   
     3   32    1 1    
     4    3    2 ar   
     5   33    2 1    
     6    6    3 ar   
     7   34    3 1    
     8    5    4 ar   
     9   35    4 1    
    10    6    5 ar   
    11    8    5 1    
    12    7    6 1    
    13    9    7 1    
    14   23    7 1    
    15   36    7 1    
    16    9    8 ar   
    17   13    8 ar   
    18   10    9 ar   
    19   11   10 ar   
    20   37   10 1    
    21   12   11 ar   
    22   38   11 1    
    23   13   12 ar   
    24   39   12 1    
    25   14   13 1    
    26   15   14 2    
    27   16   14 1    
    28   18   15 1    
    29   17   16 1    
    30   40   16 1    
    31   18   17 ar   
    32   22   17 ar   
    33   19   18 ar   
    34   20   19 ar   
    35   41   19 1    
    36   21   20 ar   
    37   42   20 1    
    38   22   21 ar   
    39   43   22 1    
    40   24   23 am   
    41   44   23 1    
    42   25   24 1    
    43   26   24 2    
    44   27   25 ar   
    45   29   25 ar   
    46   28   27 ar   
    47   45   27 1    
    48   30   28 ar   
    49   46   28 1    
    50   31   29 ar   
    51   47   29 1    
    52   31   30 ar   
    53   48   31 1    
@<TRIPOS>SUBSTRUCTURE
     1 YKC1224     1 GROUP   
@<TRIPOS>SET

