#    Name: 4kbn_25U_1_INTS_M
#    Modification time : Tue Mar 25 07:42:37 2014

@<TRIPOS>MOLECULE
4kbn_25U_1_INTS_M
   70     0     9     0     0
SMALL
NO_CHARGES


@<TRIPOS>ATOM
      1 CA         13.8160    2.5080   17.0055 C.3       3 GLC5        0.0000 
      2 CA         14.5440    4.2570   17.9330 C.3       9 GLL5        0.0000 
      3 CA         13.0880    0.7590   16.0780 C.3       6 GLP5        0.0000 
      4 CA         17.7530    5.4635   17.5715 C.3       3 GLC5        0.0000 
      5 CA         16.8740    4.0350   18.8290 C.3       9 GLL5        0.0000 
      6 CA         18.6320    6.8920   16.3140 C.3       6 GLP5        0.0000 
      7 CA         16.8535    1.9650   18.3980 C.3       3 GLC5        0.0000 
      8 CA         16.8330   -0.1050   17.9670 C.3       6 GLP5        0.0000 
      9 N          16.7110    3.8675   16.4345 N.am      2 SEC2        0.0000 
     10 N          17.4440    3.6980   17.5860 N.am      8 SEL2        0.0000 
     11 N          15.9780    4.0370   15.2830 N.am      5 SEP2        0.0000 
     12 CA         20.3895    2.0845   17.7260 C.3       3 GLC5        0.0000 
     13 CA         18.8260    3.3920   17.5540 C.3       9 GLL5        0.0000 
     14 CA         21.9530    0.7770   17.8980 C.3       6 GLP5        0.0000 
     15 CA         20.5855    4.3240   18.1725 C.3       3 GLC5        0.0000 
     16 CA         22.3450    5.2560   18.7910 C.3       6 GLP5        0.0000 
     17 CA         18.7290    5.1420   16.9340 C.3       3 GLC5        0.0000 
     18 CA         17.8295    1.6435   17.7605 C.3       3 GLC5        0.0000 
     19 O          18.6030    3.2790   15.2865 O.2       1 ALC1        0.0000 
     20 O          19.4190    3.0640   16.4070 O.2       7 ALL1        0.0000 
     21 O          17.7870    3.4940   14.1660 O.2       4 ALP1        0.0000 
     22 CA         20.6820    4.5085   19.3205 C.3       3 GLC5        0.0000 
     23 CA         19.0190    3.7610   19.8500 C.3       9 GLL5        0.0000 
     24 O          21.1575    3.5475   20.8520 O.2       1 ALC1        0.0000 
     25 O          19.7190    3.8090   20.9820 O.2       7 ALL1        0.0000 
     26 O          22.5960    3.2860   20.7220 O.2       4 ALP1        0.0000 
     27 O          21.0310    4.5610   21.6700 O.2       1 ALC1        0.0000 
     28 O          22.3430    5.3130   22.3580 O.2       4 ALP1        0.0000 
     29 CA         17.7940    2.4010   21.2440 C.3       3 GLC5        0.0000 
     30 CA         17.0720    4.4330   21.1660 C.3       9 GLL5        0.0000 
     31 CA         18.5160    0.3690   21.3220 C.3       6 GLP5        0.0000 
     32 CA         17.5090    5.8040   23.2870 C.3       3 GLC5        0.0000 
     33 CA         15.9240    5.0860   23.4990 C.3       9 GLL5        0.0000 
     34 CA         19.0940    6.5220   23.0750 C.3       6 GLP5        0.0000 
     35 CA         11.3365    1.7495   25.8970 C.3       3 GLC5        0.0000 
     36 CA         11.6250    2.6790   23.9450 C.3       9 GLL5        0.0000 
     37 CA         11.0480    0.8200   27.8490 C.3       6 GLP5        0.0000 
     38 CA         10.0100    2.8370   25.4020 C.3       3 GLC5        0.0000 
     39 CA          8.3950    2.9950   26.8590 C.3       6 GLP5        0.0000 
     40 CA         10.4880    0.8900   25.9210 C.3       3 GLC5        0.0000 
     41 CA          9.9280    0.9600   23.9930 C.3       9 GLL5        0.0000 
     42 CA          9.1615    1.9775   25.4260 C.3       3 GLC5        0.0000 
     43 CA          9.0410   -0.3820   25.3740 C.3       3 GLC5        0.0000 
     44 CA          8.1540   -1.7240   26.7550 C.3       6 GLP5        0.0000 
     45 CA         11.6515    0.5970   26.0765 C.3       3 GLC5        0.0000 
     46 CA         12.2550    0.3740   24.3040 C.3       9 GLL5        0.0000 
     47 CA         12.8355   -0.8765   25.3605 C.3       3 GLC5        0.0000 
     48 CA         13.4160   -2.1270   26.4170 C.3       6 GLP5        0.0000 
     49 CA         14.0155    5.8760   18.8872 C.3       3 GLC5        0.0000 
     50 CA         15.5440    4.3670   19.0660 C.3       9 GLL5        0.0000 
     51 CA         12.9870    7.4400   19.2750 C.3       6 GLP5        0.0000 
     52 CA         17.9540    5.5523   22.3753 C.3       3 GLC5        0.0000 
     53 CA         15.3955    6.5880   21.9445 C.3       3 GLC5        0.0000 
     54 CA         16.5560    4.7320   22.1850 C.3       9 GLL5        0.0000 
     55 CA         14.5510    8.2670   21.0470 C.3       6 GLP5        0.0000 
     56 CA         16.6543    4.6322   25.6538 C.3       3 GLC5        0.0000 
     57 CA         17.5680    4.7950   27.5560 C.3       6 GLP5        0.0000 
     58 CA         16.9398    3.6100   26.2163 C.3       3 GLC5        0.0000 
     59 CA         16.1270    1.7990   25.1140 C.3       9 GLL5        0.0000 
     60 CA         18.2272    1.7290   25.4337 C.3       3 GLC5        0.0000 
     61 CA         16.4960    3.0510   24.6390 C.3       9 GLL5        0.0000 
     62 CA         20.1430    1.0330   25.9910 C.3       6 GLP5        0.0000 
     63 CA         14.7610    1.2920   26.6825 C.3       3 GLC5        0.0000 
     64 CA         14.0460    1.0110   28.3360 C.3       6 GLP5        0.0000 
     65 CA         15.6880   -0.2995   25.5670 C.3       3 GLC5        0.0000 
     66 CA         14.8250    1.3470   24.9440 C.3       9 GLL5        0.0000 
     67 CA         15.9000   -2.1720   26.1050 C.3       6 GLP5        0.0000 
     68 CA         13.2443    2.2218   26.0799 C.3       3 GLC5        0.0000 
     69 CA         12.5970    1.7130   24.1610 C.3       9 GLL5        0.0000 
     70 CA         13.1490    2.2030   28.0530 C.3       6 GLP5        0.0000 
@<TRIPOS>BOND
@<TRIPOS>SUBSTRUCTURE
     1 ALC1       19 GROUP        1 X    ALC  0     ROOT ALC X 1
     2 SEC2        9 GROUP        1 X    SEC  0     **** SEC X 2
     3 GLC5        1 GROUP        1 X    GLC  0     **** GLC X 6
     4 ALP1       21 GROUP        1 Y    ALP  0     ROOT ALP Y 8
     5 SEP2       11 GROUP        1 Y    SEP  0     **** SEP Y 9
     6 GLP5        3 GROUP        1 Y    GLP  0     **** GLP Y 13
     7 ALL1       20 GROUP        1 Z    ALL  0     ROOT ALL Z 15
     8 SEL2       10 GROUP        1 Z    SEL  0     **** SEL Z 16
     9 GLL5        2 GROUP        1 Z    GLL  0     **** GLL Z 20
@<TRIPOS>SET

