#    Name: 4kbn_25U_1_ligand
#    Modification time : Tue Mar 25 07:42:37 2014

@<TRIPOS>MOLECULE
4kbn_25U_1_ligand
   43    45     1     0     0
SMALL
NO_CHARGES


@<TRIPOS>ATOM
      1 CAA        14.5440    4.2570   17.9330 C.3       1 25U201      0.0000 
      2 CAO        15.5440    4.3670   19.0660 C.3       1 25U201      0.0000 
      3 C4         16.8740    4.0350   18.8290 C.ar      1 25U201      0.0000 
      4 N3         17.4440    3.6980   17.5860 N.ar      1 25U201      0.0000 
      5 C2         18.8260    3.3920   17.5540 C.ar      1 25U201      0.0000 
      6 NAD        19.4190    3.0640   16.4070 N.pl3     1 25U201      0.0000 
      7 N1         19.5680    3.4260   18.6720 N.ar      1 25U201      0.0000 
      8 C6         19.0190    3.7610   19.8500 C.ar      1 25U201      0.0000 
      9 NAE        19.7190    3.8090   20.9820 N.pl3     1 25U201      0.0000 
     10 C5         17.6770    4.0890   19.9430 C.ar      1 25U201      0.0000 
     11 CAF        17.0720    4.4330   21.1660 C.1       1 25U201      0.0000 
     12 CAG        16.5560    4.7320   22.1850 C.1       1 25U201      0.0000 
     13 CBB        15.9240    5.0860   23.4990 C.3       1 25U201      0.0000 
     14 CAY        15.5570    3.8530   24.0040 C.ar      1 25U201      0.0000 
     15 CAN        14.2520    3.4120   23.8640 C.ar      1 25U201      0.0000 
     16 CAM        16.4960    3.0510   24.6390 C.ar      1 25U201      0.0000 
     17 CAV        16.1270    1.7990   25.1140 C.ar      1 25U201      0.0000 
     18 CAL        14.8250    1.3470   24.9440 C.ar      1 25U201      0.0000 
     19 CAX        13.9120    2.1240   24.2410 C.ar      1 25U201      0.0000 
     20 CAW        12.5970    1.7130   24.1610 C.ar      1 25U201      0.0000 
     21 CAJ        11.6250    2.6790   23.9450 C.ar      1 25U201      0.0000 
     22 NAO        10.2850    2.3050   23.8580 N.ar      1 25U201      0.0000 
     23 CAI         9.9280    0.9600   23.9930 C.ar      1 25U201      0.0000 
     24 NAP        10.9130   -0.0070   24.2180 N.ar      1 25U201      0.0000 
     25 CAK        12.2550    0.3740   24.3040 C.ar      1 25U201      0.0000 
     26 H          15.1162    3.7542   19.9305 H         1 25U201      0.0000 
     27 H          15.4531    5.4319   19.4703 H         1 25U201      0.0000 
     28 H          18.8438    3.0952   15.5896 H         1 25U201      0.0000 
     29 H          20.3860    2.8161   16.4667 H         1 25U201      0.0000 
     30 H          19.2230    3.5692   21.8165 H         1 25U201      0.0000 
     31 H          20.6776    4.0806   20.8955 H         1 25U201      0.0000 
     32 H          15.0839    5.7331   23.3067 H         1 25U201      0.0000 
     33 H          16.6602    5.5902   24.1034 H         1 25U201      0.0000 
     34 H          13.5337    4.0426   23.4791 H         1 25U201      0.0000 
     35 H          17.4614    3.3827   24.7573 H         1 25U201      0.0000 
     36 H          16.8190    1.2061   25.5922 H         1 25U201      0.0000 
     37 H          14.5375    0.4425   25.3359 H         1 25U201      0.0000 
     38 H          11.8886    3.6666   23.8492 H         1 25U201      0.0000 
     39 H           8.9425    0.6819   23.9270 H         1 25U201      0.0000 
     40 H          12.9780   -0.3315   24.4713 H         1 25U201      0.0000 
     41 H          14.7895    4.8454   17.1626 H         1 25U201      0.0000 
     42 H          14.4831    3.3231   17.5808 H         1 25U201      0.0000 
     43 H          13.6241    4.5217   18.2225 H         1 25U201      0.0000 
@<TRIPOS>BOND
     1    2    1 1    
     2   41    1 1    
     3   42    1 1    
     4   43    1 1    
     5    3    2 1    
     6   26    2 1    
     7   27    2 1    
     8    4    3 ar   
     9   10    3 ar   
    10    5    4 ar   
    11    6    5 1    
    12    7    5 ar   
    13   28    6 1    
    14   29    6 1    
    15    8    7 ar   
    16    9    8 1    
    17   10    8 ar   
    18   30    9 1    
    19   31    9 1    
    20   11   10 1    
    21   12   11 3    
    22   13   12 1    
    23   14   13 1    
    24   32   13 1    
    25   33   13 1    
    26   15   14 ar   
    27   16   14 ar   
    28   19   15 ar   
    29   34   15 1    
    30   17   16 ar   
    31   35   16 1    
    32   18   17 ar   
    33   36   17 1    
    34   19   18 ar   
    35   37   18 1    
    36   20   19 1    
    37   21   20 ar   
    38   25   20 ar   
    39   22   21 ar   
    40   38   21 1    
    41   23   22 ar   
    42   24   23 ar   
    43   39   23 1    
    44   25   24 ar   
    45   40   25 1    
@<TRIPOS>SUBSTRUCTURE
     1 25U201      1 GROUP   
@<TRIPOS>SET

