#    Name: 4ae3_27X_1_INTS_M
#    Modification time : Tue Mar 25 05:30:59 2014

@<TRIPOS>MOLECULE
4ae3_27X_1_INTS_M
   31     0     9     0     0
SMALL
NO_CHARGES


@<TRIPOS>ATOM
      1 N          20.1235   47.2765   28.8570 N.am      2 SEC2        0.0000 
      2 N          20.0200   47.9440   27.8840 N.am      8 SEL2        0.0000 
      3 N          20.2270   46.6090   29.8300 N.am      5 SEP2        0.0000 
      4 CA         21.5370   47.3595   30.6570 C.3       3 GLC5        0.0000 
      5 CA         22.8490   47.6160   29.1890 C.3       9 GLL5        0.0000 
      6 CA         20.2250   47.1030   32.1250 C.3       6 GLP5        0.0000 
      7 CA         20.6215   49.7010   26.1615 C.3       3 GLC5        0.0000 
      8 CA         20.2920   47.8900   24.9260 C.3       9 GLL5        0.0000 
      9 CA         20.9510   51.5120   27.3970 C.3       6 GLP5        0.0000 
     10 CA         19.0715   47.0140   23.4390 C.3       3 GLC5        0.0000 
     11 CA         17.8510   46.1380   21.9520 C.3       6 GLP5        0.0000 
     12 CA         20.0790   49.0530   23.7645 C.3       3 GLC5        0.0000 
     13 CA         19.8660   50.2160   22.6030 C.3       6 GLP5        0.0000 
     14 CA         25.0175   49.3655   29.3690 C.3       3 GLC5        0.0000 
     15 CA         24.2330   47.4390   29.3970 C.3       9 GLL5        0.0000 
     16 CA         25.8020   51.2920   29.3410 C.3       6 GLP5        0.0000 
     17 O          27.8460   48.1665   26.9205 O.2       1 ALC1        0.0000 
     18 O          26.9330   47.0750   25.9650 O.2       7 ALL1        0.0000 
     19 O          28.7590   49.2580   27.8760 O.2       4 ALP1        0.0000 
     20 O          28.2995   46.5580   25.2690 O.2       1 ALC1        0.0000 
     21 O          29.6660   46.0410   24.5730 O.2       4 ALP1        0.0000 
     22 CA         22.1650   46.6465   32.5095 C.3       3 GLC5        0.0000 
     23 CA         24.1050   46.1900   32.8940 C.3       9 GLL5        0.0000 
     24 CA         23.6100   48.0285   33.1650 C.3       3 GLC5        0.0000 
     25 CA         23.1150   49.8670   33.4360 C.3       6 GLP5        0.0000 
     26 CA         24.5295   45.5495   23.7950 C.3       3 GLC5        0.0000 
     27 CA         24.9420   47.3040   24.6050 C.3       9 GLL5        0.0000 
     28 CA         24.8290   43.7070   23.0820 C.3       6 GLP5        0.0000 
     29 CA         21.7665   49.4410   28.7157 C.3       3 GLC5        0.0000 
     30 CA         22.4450   47.6520   27.8720 C.3       9 GLL5        0.0000 
     31 CA         20.8860   51.2480   28.9010 C.3       6 GLP5        0.0000 
@<TRIPOS>BOND
@<TRIPOS>SUBSTRUCTURE
     1 ALC1       17 GROUP        1 X    ALC  0     ROOT ALC X 1
     2 SEC2        1 GROUP        1 X    SEC  0     **** SEC X 2
     3 GLC5        4 GROUP        1 X    GLC  0     **** GLC X 6
     4 ALP1       19 GROUP        1 Y    ALP  0     ROOT ALP Y 8
     5 SEP2        3 GROUP        1 Y    SEP  0     **** SEP Y 9
     6 GLP5        6 GROUP        1 Y    GLP  0     **** GLP Y 13
     7 ALL1       18 GROUP        1 Z    ALL  0     ROOT ALL Z 15
     8 SEL2        2 GROUP        1 Z    SEL  0     **** SEL Z 16
     9 GLL5        5 GROUP        1 Z    GLL  0     **** GLL Z 20
@<TRIPOS>SET

