#    Name: 4ae3_27X_1_ligand
#    Modification time : Tue Mar 25 05:30:59 2014

@<TRIPOS>MOLECULE
4ae3_27X_1_ligand
   32    34     1     0     0
SMALL
NO_CHARGES


@<TRIPOS>ATOM
      1 C01        25.5580   47.2370   25.8680 C.ar      1 27X1752     0.0000 
      2 C02        24.9420   47.3040   24.6050 C.ar      1 27X1752     0.0000 
      3 C03        23.5180   47.4800   24.4110 C.ar      1 27X1752     0.0000 
      4 C04        22.7330   47.5860   25.5540 C.ar      1 27X1752     0.0000 
      5 C05        23.3830   47.5260   26.8210 C.ar      1 27X1752     0.0000 
      6 C06        24.7550   47.3590   27.0720 C.ar      1 27X1752     0.0000 
      7 N07        21.3570   47.7600   25.9060 N.am      1 27X1752     0.0000 
      8 C08        21.1070   47.8070   27.2650 C.2       1 27X1752     0.0000 
      9 C09        22.4450   47.6520   27.8720 C.ar      1 27X1752     0.0000 
     10 O10        20.0200   47.9440   27.8840 O.2       1 27X1752     0.0000 
     11 C11        22.8490   47.6160   29.1890 C.ar      1 27X1752     0.0000 
     12 N12        25.1390   47.3220   28.3930 N.ar      1 27X1752     0.0000 
     13 C13        20.2920   47.8900   24.9260 C.3       1 27X1752     0.0000 
     14 C14        24.2330   47.4390   29.3970 C.ar      1 27X1752     0.0000 
     15 N15        26.9330   47.0750   25.9650 N.pl3     1 27X1752     0.0000 
     16 N16        22.9810   47.5310   23.1280 N.pl3     1 27X1752     0.0000 
     17 C17        24.6620   47.3930   30.8280 C.2       1 27X1752     0.0000 
     18 O18        25.8120   47.0150   30.9560 O.2       1 27X1752     0.0000 
     19 O19        23.7980   47.0890   31.8480 O.3       1 27X1752     0.0000 
     20 C20        24.1050   46.1900   32.8940 C.3       1 27X1752     0.0000 
     21 H          25.5318   47.2238   23.7473 H         1 27X1752     0.0000 
     22 H          22.2181   47.7074   29.9549 H         1 27X1752     0.0000 
     23 H          27.4275   46.9847   25.1005 H         1 27X1752     0.0000 
     24 H          27.3104   47.0625   26.8910 H         1 27X1752     0.0000 
     25 H          23.6264   47.4007   22.3754 H         1 27X1752     0.0000 
     26 H          21.9960   47.6935   23.0694 H         1 27X1752     0.0000 
     27 H          20.4315   48.6796   24.3284 H         1 27X1752     0.0000 
     28 H          20.2288   47.0843   24.3371 H         1 27X1752     0.0000 
     29 H          19.3991   48.0059   25.3611 H         1 27X1752     0.0000 
     30 H          24.3032   45.2726   32.5490 H         1 27X1752     0.0000 
     31 H          24.9052   46.4862   33.4155 H         1 27X1752     0.0000 
     32 H          23.3487   46.1023   33.5423 H         1 27X1752     0.0000 
@<TRIPOS>BOND
     1    2    1 ar   
     2    6    1 ar   
     3   15    1 1    
     4    3    2 ar   
     5   21    2 1    
     6    4    3 ar   
     7   16    3 1    
     8    5    4 ar   
     9    7    4 1    
    10    6    5 ar   
    11    9    5 ar   
    12   12    6 ar   
    13    8    7 am   
    14   13    7 1    
    15    9    8 1    
    16   10    8 2    
    17   11    9 ar   
    18   14   11 ar   
    19   22   11 1    
    20   14   12 ar   
    21   27   13 1    
    22   28   13 1    
    23   29   13 1    
    24   17   14 1    
    25   23   15 1    
    26   24   15 1    
    27   25   16 1    
    28   26   16 1    
    29   18   17 2    
    30   19   17 1    
    31   20   19 1    
    32   30   20 1    
    33   31   20 1    
    34   32   20 1    
@<TRIPOS>SUBSTRUCTURE
     1 27X1752     1 GROUP   
@<TRIPOS>SET

