#    Name: 1zz1_SHH_3_INTS_M
#    Modification time : Mon Mar 24 18:11:21 2014

@<TRIPOS>MOLECULE
1zz1_SHH_3_INTS_M
   50     0     9     0     0
SMALL
NO_CHARGES


@<TRIPOS>ATOM
      1 Zn         -7.6660   25.4840   -2.6045 Zn        2 ZIC7        0.0000 
      2 Zn         -6.7290   25.6380   -2.2770 Zn        8 ZIL7        0.0000 
      3 Zn         -8.6030   25.3300   -2.9320 Zn        5 ZIP7        0.0000 
      4 N          -6.3740   26.3205   -1.3030 N.am      1 SEC2        0.0000 
      5 N          -6.7290   25.6380   -2.2770 N.am      7 SEL2        0.0000 
      6 N          -6.0190   27.0030   -0.3290 N.am      4 SEP2        0.0000 
      7 Zn         -8.1050   25.4060   -3.8580 Zn        2 ZIC7        0.0000 
      8 Zn         -7.6070   25.4820   -4.7840 Zn        8 ZIL7        0.0000 
      9 CA         -4.2240   25.0390   -3.7560 C.3       3 GLC5        0.0000 
     10 CA         -5.5350   24.4480   -5.4750 C.3       9 GLL5        0.0000 
     11 CA         -2.9130   25.6300   -2.0370 C.3       6 GLP5        0.0000 
     12 CA         -7.0280   25.3540   -6.5900 C.3       3 GLC5        0.0000 
     13 CA         -8.5210   26.2600   -7.7050 C.3       6 GLP5        0.0000 
     14 CA         -6.4635   22.6840   -3.5335 C.3       3 GLC5        0.0000 
     15 CA         -5.1890   23.0190   -5.0500 C.3       9 GLL5        0.0000 
     16 CA         -7.7380   22.3490   -2.0170 C.3       6 GLP5        0.0000 
     17 CA         -3.8520   22.3160   -3.8475 C.3       3 GLC5        0.0000 
     18 CA         -2.5150   21.6130   -2.6450 C.3       6 GLP5        0.0000 
     19 CA         -3.7165   21.2705   -4.5470 C.3       3 GLC5        0.0000 
     20 CA         -4.4990   22.2140   -6.1620 C.3       9 GLL5        0.0000 
     21 CA         -2.9340   20.3270   -2.9320 C.3       6 GLP5        0.0000 
     22 CA         -6.2130   22.2715   -7.5940 C.3       3 GLC5        0.0000 
     23 CA         -7.9270   22.3290   -9.0260 C.3       6 GLP5        0.0000 
     24 CA         -1.7165   24.0550   -5.5785 C.3       3 GLC5        0.0000 
     25 CA         -3.0040   22.5330   -6.2490 C.3       9 GLL5        0.0000 
     26 CA         -0.4290   25.5770   -4.9080 C.3       6 GLP5        0.0000 
     27 CA         -2.1090   22.2725   -4.6260 C.3       3 GLC5        0.0000 
     28 CA         -1.2140   22.0120   -3.0030 C.3       6 GLP5        0.0000 
     29 CA         -2.4890   19.6270   -7.0255 C.3       3 GLC5        0.0000 
     30 CA         -2.1830   21.4970   -7.0150 C.3       9 GLL5        0.0000 
     31 CA         -2.7950   17.7570   -7.0360 C.3       6 GLP5        0.0000 
     32 CA         -1.4755   20.6640   -5.4425 C.3       3 GLC5        0.0000 
     33 CA         -0.7680   19.8310   -3.8700 C.3       6 GLP5        0.0000 
     34 CA          0.1480   22.8135   -8.9235 C.3       3 GLC5        0.0000 
     35 CA         -0.8570   22.1210   -7.4810 C.3       9 GLL5        0.0000 
     36 CA          1.1530   23.5060  -10.3660 C.3       6 GLP5        0.0000 
     37 CA         -0.6430   23.8490   -6.1945 C.3       3 GLC5        0.0000 
     38 CA         -1.6820   23.6805   -8.5640 C.3       3 GLC5        0.0000 
     39 CA         -2.5070   25.2400   -9.6470 C.3       6 GLP5        0.0000 
     40 CA         -0.6130   21.6225   -5.5370 C.3       3 GLC5        0.0000 
     41 CA         -0.3690   21.1240   -3.5930 C.3       6 GLP5        0.0000 
     42 CA         -4.8208   24.2209   -7.1856 C.3       3 GLC5        0.0000 
     43 CA         -4.7110   25.4680   -8.6590 C.3       6 GLP5        0.0000 
     44 CA         -3.2033   23.3905   -8.0530 C.3       3 GLC5        0.0000 
     45 CA         -3.8130   24.7660   -9.4740 C.3       6 GLP5        0.0000 
     46 CA         -2.2005   21.7105   -9.0500 C.3       3 GLC5        0.0000 
     47 CA         -2.8810   21.6120  -10.8520 C.3       6 GLP5        0.0000 
     48 CA          3.1151   20.6506   -8.5639 C.3       3 GLC5        0.0000 
     49 CA          1.8640   19.5890   -7.1950 C.3       9 GLL5        0.0000 
     50 CA          2.8620   21.6740  -10.1960 C.3       6 GLP5        0.0000 
@<TRIPOS>BOND
@<TRIPOS>SUBSTRUCTURE
     1 SEC2        4 GROUP        1 X    SEC  0     ROOT SEC X 2
     2 ZIC7        1 GROUP        1 X    ZIC  0     **** ZIC X 5
     3 GLC5        9 GROUP        1 X    GLC  0     **** GLC X 6
     4 SEP2        6 GROUP        1 Y    SEP  0     ROOT SEP Y 9
     5 ZIP7        3 GROUP        1 Y    ZIP  0     **** ZIP Y 12
     6 GLP5       11 GROUP        1 Y    GLP  0     **** GLP Y 13
     7 SEL2        5 GROUP        1 Z    SEL  0     ROOT SEL Z 16
     8 ZIL7        2 GROUP        1 Z    ZIL  0     **** ZIL Z 19
     9 GLL5       10 GROUP        1 Z    GLL  0     **** GLL Z 20
@<TRIPOS>SET

