#    Name: 1zz1_SHH_3_ligand
#    Modification time : Mon Mar 24 18:11:21 2014

@<TRIPOS>MOLECULE
1zz1_SHH_3_ligand
   38    38     1     0     0
SMALL
NO_CHARGES


@<TRIPOS>ATOM
      1 O1         -6.7290   25.6380   -2.2770 O.3       1 SHH2652     0.0000 
      2 O2         -7.6070   25.4820   -4.7840 O.2       1 SHH2652     0.0000 
      3 N1         -5.9700   25.6740   -3.4280 N.am      1 SHH2652     0.0000 
      4 C1         -6.4540   25.2110   -4.5370 C.2       1 SHH2652     0.0000 
      5 C2         -5.5350   24.4480   -5.4750 C.3       1 SHH2652     0.0000 
      6 C3         -5.1890   23.0190   -5.0500 C.3       1 SHH2652     0.0000 
      7 C4         -4.4990   22.2140   -6.1620 C.3       1 SHH2652     0.0000 
      8 C5         -3.0040   22.5330   -6.2490 C.3       1 SHH2652     0.0000 
      9 C6         -2.1830   21.4970   -7.0150 C.3       1 SHH2652     0.0000 
     10 C7         -0.8570   22.1210   -7.4810 C.3       1 SHH2652     0.0000 
     11 C8          0.4000   21.4830   -6.9200 C.2       1 SHH2652     0.0000 
     12 O3          1.0360   22.0460   -6.0380 O.2       1 SHH2652     0.0000 
     13 N2          0.7600   20.3320   -7.4760 N.am      1 SHH2652     0.0000 
     14 C9          1.8640   19.5890   -7.1950 C.ar      1 SHH2652     0.0000 
     15 C10         1.7260   18.2040   -7.1090 C.ar      1 SHH2652     0.0000 
     16 C11         2.8420   17.4050   -6.8470 C.ar      1 SHH2652     0.0000 
     17 C12         4.0950   17.9930   -6.6610 C.ar      1 SHH2652     0.0000 
     18 C13         4.2410   19.3770   -6.7530 C.ar      1 SHH2652     0.0000 
     19 C14         3.1270   20.1660   -7.0260 C.ar      1 SHH2652     0.0000 
     20 H          -5.0085   26.0825   -3.3663 H         1 SHH2652     0.0000 
     21 H          -4.5892   25.0182   -5.5963 H         1 SHH2652     0.0000 
     22 H          -5.9981   24.4130   -6.4843 H         1 SHH2652     0.0000 
     23 H          -6.1085   22.4997   -4.7544 H         1 SHH2652     0.0000 
     24 H          -4.5283   23.0545   -4.1755 H         1 SHH2652     0.0000 
     25 H          -4.9727   22.4483   -7.1169 H         1 SHH2652     0.0000 
     26 H          -4.6282   21.1488   -5.9624 H         1 SHH2652     0.0000 
     27 H          -2.5999   22.6249   -5.2262 H         1 SHH2652     0.0000 
     28 H          -2.8779   23.5175   -6.7314 H         1 SHH2652     0.0000 
     29 H          -2.7410   21.1615   -7.8813 H         1 SHH2652     0.0000 
     30 H          -1.9704   20.6536   -6.3685 H         1 SHH2652     0.0000 
     31 H          -0.8668   23.1987   -7.2166 H         1 SHH2652     0.0000 
     32 H          -0.8224   22.0791   -8.5894 H         1 SHH2652     0.0000 
     33 H           0.1013   19.9249   -8.2498 H         1 SHH2652     0.0000 
     34 H           0.8045   17.7700   -7.2381 H         1 SHH2652     0.0000 
     35 H           2.7404   16.3850   -6.7913 H         1 SHH2652     0.0000 
     36 H           4.9116   17.4033   -6.4557 H         1 SHH2652     0.0000 
     37 H           5.1599   19.8078   -6.6207 H         1 SHH2652     0.0000 
     38 H           3.2313   21.1901   -7.1053 H         1 SHH2652     0.0000 
@<TRIPOS>BOND
     1    3    1 1    
     2    4    2 2    
     3    4    3 am   
     4   20    3 1    
     5    5    4 1    
     6    6    5 1    
     7   21    5 1    
     8   22    5 1    
     9    7    6 1    
    10   23    6 1    
    11   24    6 1    
    12    8    7 1    
    13   25    7 1    
    14   26    7 1    
    15    9    8 1    
    16   27    8 1    
    17   28    8 1    
    18   10    9 1    
    19   29    9 1    
    20   30    9 1    
    21   11   10 1    
    22   31   10 1    
    23   32   10 1    
    24   12   11 2    
    25   13   11 am   
    26   14   13 1    
    27   33   13 1    
    28   15   14 ar   
    29   19   14 ar   
    30   16   15 ar   
    31   34   15 1    
    32   17   16 ar   
    33   35   16 1    
    34   18   17 ar   
    35   36   17 1    
    36   19   18 ar   
    37   37   18 1    
    38   38   19 1    
@<TRIPOS>SUBSTRUCTURE
     1 SHH2652     1 GROUP   
@<TRIPOS>SET

