#    Name: 2H11_2_CAVITY_N1_6.mol2
#    Modification time : Mon Mar 10 15:48:02 2014

@<TRIPOS>MOLECULE
2H11_2_CAVITY_N1_6.mol2
   60     0     5     0     0
SMALL
NO_CHARGES


@<TRIPOS>ATOM
      1 OD1        83.0705   19.5326   54.9627 O.3       2 ASP3        0.0000 
      2 CZ         82.1178   20.6771   54.7822 C.ar      4 PHE5        0.0000 
      3 CZ         81.5191   18.3789   55.8355 C.ar      4 PHE5        0.0000 
      4 CZ         82.0313   18.5852   54.4408 C.ar      4 PHE5        0.0000 
      5 CZ         81.0786   19.7297   54.2603 C.ar      4 PHE5        0.0000 
      6 CZ         82.5434   18.7916   53.0462 C.ar      4 PHE5        0.0000 
      7 CA         80.4798   17.4314   55.3137 C.3       5 GLY6        0.0000 
      8 CZ         79.5271   18.5759   55.1332 C.ar      4 PHE5        0.0000 
      9 CZ         78.5745   19.7204   54.9527 C.ar      4 PHE5        0.0000 
     10 CZ         77.6218   20.8648   54.7722 C.ar      4 PHE5        0.0000 
     11 CA         80.9920   17.6378   53.9190 C.3       5 GLY6        0.0000 
     12 CZ         80.0393   18.7823   53.7385 C.ar      4 PHE5        0.0000 
     13 CZ         79.0866   19.9267   53.5580 C.ar      4 PHE5        0.0000 
     14 CZ         78.1339   21.0712   53.3775 C.ar      4 PHE5        0.0000 
     15 CZ         77.1812   22.2157   53.1970 C.ar      4 PHE5        0.0000 
     16 NZ         76.2285   23.3601   53.0165 N.2       3 LYS4        0.0000 
     17 CA         81.5041   17.8442   52.5243 C.3       5 GLY6        0.0000 
     18 CA         79.4406   16.4840   54.7918 C.3       5 GLY6        0.0000 
     19 CA         78.4879   17.6285   54.6113 C.3       5 GLY6        0.0000 
     20 N          77.5352   18.7729   54.4308 N.2       1 ALA2        0.0000 
     21 N          75.6298   21.0619   54.0698 N.2       1 ALA2        0.0000 
     22 CA         79.9527   16.6904   53.3972 C.3       5 GLY6        0.0000 
     23 CA         79.0000   17.8348   53.2167 C.3       5 GLY6        0.0000 
     24 CZ         78.0473   18.9793   53.0362 C.ar      4 PHE5        0.0000 
     25 N          77.0946   20.1238   52.8557 N.2       1 ALA2        0.0000 
     26 N          76.1419   21.2682   52.6752 N.2       1 ALA2        0.0000 
     27 N          75.1893   22.4127   52.4947 N.2       1 ALA2        0.0000 
     28 CA         80.4649   16.8967   52.0025 C.3       5 GLY6        0.0000 
     29 CZ         76.6541   21.4746   51.2805 C.ar      4 PHE5        0.0000 
     30 CA         75.7014   22.6191   51.1000 C.3       5 GLY6        0.0000 
     31 CZ         76.2136   22.8254   49.7053 C.ar      4 PHE5        0.0000 
     32 CA         77.4486   16.6810   54.0895 C.3       5 GLY6        0.0000 
     33 CA         78.9134   15.7429   52.8753 C.3       5 GLY6        0.0000 
     34 CA         77.9608   16.8874   52.6948 C.3       5 GLY6        0.0000 
     35 CA         77.0081   18.0319   52.5143 C.3       5 GLY6        0.0000 
     36 N          76.0554   19.1763   52.3338 N.2       1 ALA2        0.0000 
     37 N          75.1027   20.3208   52.1533 N.2       1 ALA2        0.0000 
     38 CA         79.4256   15.9493   51.4807 C.3       5 GLY6        0.0000 
     39 CA         78.4729   17.0938   51.3002 C.3       5 GLY6        0.0000 
     40 CA         77.5202   18.2382   51.1197 C.3       5 GLY6        0.0000 
     41 O          76.5675   19.3827   50.9392 O.2       1 ALA2        0.0000 
     42 CZ         75.6148   20.5272   50.7587 C.ar      4 PHE5        0.0000 
     43 N          74.6621   21.6716   50.5782 N.2       1 ALA2        0.0000 
     44 CZ         76.1270   20.7335   49.3640 C.ar      4 PHE5        0.0000 
     45 N          75.1743   21.8780   49.1835 N.2       1 ALA2        0.0000 
     46 CA         76.6391   20.9399   47.9693 C.3       5 GLY6        0.0000 
     47 O          75.6864   22.0844   47.7888 O.2       1 ALA2        0.0000 
     48 OD1        77.4336   16.1464   50.7783 O.3       2 ASP3        0.0000 
     49 N          74.5756   19.5798   50.2368 N.2       1 ALA2        0.0000 
     50 N          73.6229   20.7242   50.0563 N.2       1 ALA2        0.0000 
     51 O          75.0877   19.7861   48.8422 O.2       1 ALA2        0.0000 
     52 CA         74.1350   20.9306   48.6617 C.3       5 GLY6        0.0000 
     53 O          75.5999   19.9925   47.4475 O.2       1 ALA2        0.0000 
     54 CA         74.6472   21.1370   47.2670 C.3       5 GLY6        0.0000 
     55 N          72.5836   19.7768   49.5345 N.2       1 ALA2        0.0000 
     56 O          74.0484   18.8387   48.3203 O.2       1 ALA2        0.0000 
     57 CA         73.0957   19.9832   48.1398 C.3       5 GLY6        0.0000 
     58 O          74.5606   19.0451   46.9257 O.2       1 ALA2        0.0000 
     59 CA         73.6079   20.1895   46.7452 C.3       5 GLY6        0.0000 
     60 CA         73.0092   17.8913   47.7985 C.3       5 GLY6        0.0000 
@<TRIPOS>BOND
@<TRIPOS>SUBSTRUCTURE
     1 ALA2       20 GROUP   
     2 ASP3        1 GROUP   
     3 LYS4       16 GROUP   
     4 PHE5        2 GROUP   
     5 GLY6        7 GROUP   
@<TRIPOS>SET

