#    Name: 2h11_SAH_2_INTS_M
#    Modification time : Tue Mar 25 15:18:36 2014

@<TRIPOS>MOLECULE
2h11_SAH_2_INTS_M
   83     0    12     0     0
SMALL
NO_CHARGES


@<TRIPOS>ATOM
      1 O          72.9985   21.2025   52.4500 O.2       1 ALC1        0.0000 
      2 O          73.2020   20.4670   51.3460 O.2       9 ALL1        0.0000 
      3 O          72.7950   21.9380   53.5540 O.2       5 ALP1        0.0000 
      4 O          72.9860   18.9935   51.5745 O.2       1 ALC1        0.0000 
      5 O          72.7700   17.5200   51.8030 O.2       5 ALP1        0.0000 
      6 CA         72.7650   22.3030   51.2375 C.3       4 GLC5        0.0000 
      7 CA         74.3760   21.0230   50.5440 C.3      12 GLL5        0.0000 
      8 CA         71.1540   23.5830   51.9310 C.3       8 GLP5        0.0000 
      9 CA         74.4040   23.2020   50.7925 C.3       4 GLC5        0.0000 
     10 CA         74.4320   25.3810   51.0410 C.3       8 GLP5        0.0000 
     11 CA         77.3810   21.0495   50.6945 C.3       4 GLC5        0.0000 
     12 CA         75.6820   20.7930   51.2410 C.3      12 GLL5        0.0000 
     13 CA         79.0800   21.3060   50.1480 C.3       8 GLP5        0.0000 
     14 NZ         75.1775   18.3235   48.7265 N.4       3 LYC4        0.0000 
     15 NZ         73.9960   19.1180   49.0730 N.4      11 LYL4        0.0000 
     16 NZ         76.4790   16.1990   48.2480 N.4       7 LYP4        0.0000 
     17 N          75.1775   18.3235   48.7265 N.am      2 SEC2        0.0000 
     18 N          73.9960   19.1180   49.0730 N.am     10 SEL2        0.0000 
     19 N          76.3590   17.5290   48.3800 N.am      6 SEP2        0.0000 
     20 CA         76.6530   19.7460   56.2435 C.3       4 GLC5        0.0000 
     21 CA         76.5740   21.2400   55.0090 C.3      12 GLL5        0.0000 
     22 CA         76.7320   18.2520   57.4780 C.3       8 GLP5        0.0000 
     23 CA         77.8940   25.3470   53.6005 C.3       4 GLC5        0.0000 
     24 CA         77.1160   23.7920   54.9820 C.3      12 GLL5        0.0000 
     25 CA         78.6720   26.9020   52.2190 C.3       8 GLP5        0.0000 
     26 CA         78.4585   23.4675   53.2690 C.3       4 GLC5        0.0000 
     27 CA         79.8010   23.1430   51.5560 C.3       8 GLP5        0.0000 
     28 N          77.7965   25.6950   53.7610 N.am      2 SEC2        0.0000 
     29 N          76.7670   24.7490   53.9690 N.am     10 SEL2        0.0000 
     30 N          78.8260   26.6410   53.5530 N.am      6 SEP2        0.0000 
     31 O          75.5895   25.2420   54.1000 O.2       1 ALC1        0.0000 
     32 O          76.7670   24.7490   53.9690 O.2       9 ALL1        0.0000 
     33 O          74.4120   25.7350   54.2310 O.2       5 ALP1        0.0000 
     34 N          78.1455   26.2170   54.9370 N.am      2 SEC2        0.0000 
     35 N          77.4650   25.7930   56.3210 N.am     10 SEL2        0.0000 
     36 O          76.5385   26.4900   55.8530 O.2       1 ALC1        0.0000 
     37 O          77.4650   25.7930   56.3210 O.2       9 ALL1        0.0000 
     38 O          75.6120   27.1870   55.3850 O.2       5 ALP1        0.0000 
     39 CA         74.2305   22.9150   57.3705 C.3       4 GLC5        0.0000 
     40 CA         75.7390   24.1650   56.9610 C.3      12 GLL5        0.0000 
     41 CA         72.7220   21.6650   57.7800 C.3       8 GLP5        0.0000 
     42 CA         72.2090   25.7805   61.8855 C.3       4 GLC5        0.0000 
     43 CA         73.5530   24.2290   61.2400 C.3      12 GLL5        0.0000 
     44 CA         70.8650   27.3320   62.5310 C.3       8 GLP5        0.0000 
     45 CA         71.7930   23.2575   61.7890 C.3       4 GLC5        0.0000 
     46 CA         70.0330   22.2860   62.3380 C.3       8 GLP5        0.0000 
     47 O          72.5820   24.7985   63.3740 O.2       1 ALC1        0.0000 
     48 O          73.5790   23.8260   62.5100 O.2       9 ALL1        0.0000 
     49 O          71.5850   25.7710   64.2380 O.2       5 ALP1        0.0000 
     50 N          71.1245   25.1080   61.3805 N.am      2 SEC2        0.0000 
     51 N          72.4910   24.9560   60.7960 N.am     10 SEL2        0.0000 
     52 N          69.7580   25.2600   61.9650 N.am      6 SEP2        0.0000 
     53 CA         71.8710   23.5095   59.0145 C.3       4 GLC5        0.0000 
     54 CA         72.3870   25.4480   59.5310 C.3      12 GLL5        0.0000 
     55 CA         71.3550   21.5710   58.4980 C.3       8 GLP5        0.0000 
     56 CA         72.1295   26.4650   57.6905 C.3       4 GLC5        0.0000 
     57 CA         71.8720   27.4820   55.8500 C.3       8 GLP5        0.0000 
     58 CA         73.6430   26.9400   59.5450 C.3       4 GLC5        0.0000 
     59 CA         74.8990   28.4320   59.5590 C.3       8 GLP5        0.0000 
     60 CA         71.6260   26.3900   61.0310 C.3       4 GLC5        0.0000 
     61 CA         70.7485   24.2010   60.4270 C.3       4 GLC5        0.0000 
     62 CA         69.1100   22.9540   61.3230 C.3       8 GLP5        0.0000 
     63 N          73.4160   26.7000   58.0700 N.am      2 SEC2        0.0000 
     64 N          73.3620   25.2080   58.6100 N.am     10 SEL2        0.0000 
     65 N          73.4700   28.1920   57.5300 N.am      6 SEP2        0.0000 
     66 CA         77.8353   21.8745   51.8005 C.3       4 GLC5        0.0000 
     67 CA         77.4350   20.8650   53.5050 C.3      12 GLL5        0.0000 
     68 CA         78.9500   22.6360   50.5660 C.3       8 GLP5        0.0000 
     69 CA         78.6813   21.3133   55.3650 C.3       4 GLC5        0.0000 
     70 CA         80.3580   21.5740   56.4730 C.3       8 GLP5        0.0000 
     71 CA         74.4235   21.7775   55.6487 C.3       4 GLC5        0.0000 
     72 CA         72.5420   21.5610   56.2530 C.3       8 GLP5        0.0000 
     73 CA         78.7032   23.4665   56.3972 C.3       4 GLC5        0.0000 
     74 CA         80.2700   22.8290   57.0940 C.3       8 GLP5        0.0000 
     75 CA         76.3035   26.0502   57.8485 C.3       4 GLC5        0.0000 
     76 CA         77.1570   24.4160   56.4190 C.3      12 GLL5        0.0000 
     77 CA         76.1590   27.8100   59.0070 C.3       8 GLP5        0.0000 
     78 CA         75.0693   25.1635   61.9655 C.3       4 GLC5        0.0000 
     79 CA         74.5860   23.9430   60.2780 C.3      12 GLL5        0.0000 
     80 CA         76.0690   26.2410   63.1720 C.3       8 GLP5        0.0000 
     81 CA         75.3303   26.0012   59.3285 C.3       4 GLC5        0.0000 
     82 CA         74.4170   24.4420   59.0220 C.3      12 GLL5        0.0000 
     83 CA         73.4826   22.9645   58.8353 C.3       4 GLC5        0.0000 
@<TRIPOS>BOND
@<TRIPOS>SUBSTRUCTURE
     1 ALC1        1 GROUP        1 X    ALC  0     ROOT ALC X 1
     2 SEC2       17 GROUP        1 X    SEC  0     **** SEC X 2
     3 LYC4       14 GROUP        1 X    LYC  0     **** LYC X 4
     4 GLC5        6 GROUP        1 X    GLC  0     **** GLC X 6
     5 ALP1        3 GROUP        1 Y    ALP  0     ROOT ALP Y 8
     6 SEP2       19 GROUP        1 Y    SEP  0     **** SEP Y 9
     7 LYP4       16 GROUP        1 Y    LYP  0     **** LYP Y 11
     8 GLP5        8 GROUP        1 Y    GLP  0     **** GLP Y 13
     9 ALL1        2 GROUP        1 Z    ALL  0     ROOT ALL Z 15
    10 SEL2       18 GROUP        1 Z    SEL  0     **** SEL Z 16
    11 LYL4       15 GROUP        1 Z    LYL  0     **** LYL Z 18
    12 GLL5        7 GROUP        1 Z    GLL  0     **** GLL Z 20
@<TRIPOS>SET

