#    Name: 2h11_SAH_2_ligand
#    Modification time : Tue Mar 25 15:18:36 2014

@<TRIPOS>MOLECULE
2h11_SAH_2_ligand
   46    48     1     0     0
SMALL
NO_CHARGES


@<TRIPOS>ATOM
      1 N          73.2020   20.4670   51.3460 N.4       1 SAH301      0.0000 
      2 CA         74.3760   21.0230   50.5440 C.3       1 SAH301      0.0000 
      3 CB         75.6820   20.7930   51.2410 C.3       1 SAH301      0.0000 
      4 CG         76.0060   21.3610   52.5650 C.3       1 SAH301      0.0000 
      5 SD         77.4350   20.8650   53.5050 S.3       1 SAH301      0.0000 
      6 C          74.6620   20.1670   49.2570 C.2       1 SAH301      0.0000 
      7 O          73.9960   19.1180   49.0730 O.co2     1 SAH301      0.0000 
      8 OXT        75.6230   20.6340   48.5020 O.co2     1 SAH301      0.0000 
      9 C5'        76.5740   21.2400   55.0090 C.3       1 SAH301      0.0000 
     10 C4'        76.0360   22.7480   55.0800 C.3       1 SAH301      0.0000 
     11 O4'        75.5310   22.8080   56.4000 O.3       1 SAH301      0.0000 
     12 C3'        77.1160   23.7920   54.9820 C.3       1 SAH301      0.0000 
     13 O3'        76.7670   24.7490   53.9690 O.3       1 SAH301      0.0000 
     14 C2'        77.1570   24.4160   56.4190 C.3       1 SAH301      0.0000 
     15 O2'        77.4650   25.7930   56.3210 O.3       1 SAH301      0.0000 
     16 C1'        75.7390   24.1650   56.9610 C.3       1 SAH301      0.0000 
     17 N9         75.5220   23.9770   58.2660 N.pl3     1 SAH301      0.0000 
     18 C8         76.2620   23.2600   59.1670 C.2       1 SAH301      0.0000 
     19 N7         75.7840   23.2040   60.3580 N.2       1 SAH301      0.0000 
     20 C5         74.5860   23.9430   60.2780 C.ar      1 SAH301      0.0000 
     21 C6         73.5530   24.2290   61.2400 C.ar      1 SAH301      0.0000 
     22 N6         73.5790   23.8260   62.5100 N.pl3     1 SAH301      0.0000 
     23 N1         72.4910   24.9560   60.7960 N.ar      1 SAH301      0.0000 
     24 C2         72.3870   25.4480   59.5310 C.ar      1 SAH301      0.0000 
     25 N3         73.3620   25.2080   58.6100 N.ar      1 SAH301      0.0000 
     26 C4         74.4170   24.4420   59.0220 C.ar      1 SAH301      0.0000 
     27 H          74.2743   22.0058   50.2680 H         1 SAH301      0.0000 
     28 H          76.5209   21.0928   50.5066 H         1 SAH301      0.0000 
     29 H          75.8495   19.6517   51.2892 H         1 SAH301      0.0000 
     30 H          75.1785   21.2107   53.3199 H         1 SAH301      0.0000 
     31 H          76.1333   22.4837   52.5402 H         1 SAH301      0.0000 
     32 H          77.2898   21.0502   55.7802 H         1 SAH301      0.0000 
     33 H          75.7651   20.5414   55.0342 H         1 SAH301      0.0000 
     34 H          75.2930   22.8619   54.3662 H         1 SAH301      0.0000 
     35 H          78.0426   23.3088   54.8144 H         1 SAH301      0.0000 
     36 H          77.8424   23.8461   56.9840 H         1 SAH301      0.0000 
     37 H          75.0650   24.7990   56.4417 H         1 SAH301      0.0000 
     38 H          77.1316   22.8144   58.8701 H         1 SAH301      0.0000 
     39 H          73.0919   24.4037   63.1650 H         1 SAH301      0.0000 
     40 H          74.0832   22.9822   62.6936 H         1 SAH301      0.0000 
     41 H          71.5535   26.0140   59.2638 H         1 SAH301      0.0000 
     42 H          72.3292   20.6228   50.8834 H         1 SAH301      0.0000 
     43 H          73.2850   19.4811   51.4909 H         1 SAH301      0.0000 
     44 H          73.1350   20.8913   52.2491 H         1 SAH301      0.0000 
     45 H          75.7757   24.6664   53.8657 H         1 SAH301      0.0000 
     46 H          76.9623   26.1141   55.5184 H         1 SAH301      0.0000 
@<TRIPOS>BOND
     1    2    1 1    
     2   42    1 1    
     3   43    1 1    
     4   44    1 1    
     5    3    2 1    
     6    6    2 1    
     7   27    2 1    
     8    4    3 1    
     9   28    3 1    
    10   29    3 1    
    11    5    4 1    
    12   30    4 1    
    13   31    4 1    
    14    9    5 1    
    15    7    6 ar   
    16    8    6 ar   
    17   10    9 1    
    18   32    9 1    
    19   33    9 1    
    20   11   10 1    
    21   12   10 1    
    22   34   10 1    
    23   16   11 1    
    24   13   12 1    
    25   14   12 1    
    26   35   12 1    
    27   45   13 1    
    28   15   14 1    
    29   16   14 1    
    30   36   14 1    
    31   46   15 1    
    32   17   16 1    
    33   37   16 1    
    34   18   17 1    
    35   26   17 1    
    36   19   18 2    
    37   38   18 1    
    38   20   19 1    
    39   21   20 ar   
    40   26   20 ar   
    41   22   21 1    
    42   23   21 ar   
    43   39   22 1    
    44   40   22 1    
    45   24   23 ar   
    46   25   24 ar   
    47   41   24 1    
    48   26   25 ar   
@<TRIPOS>SUBSTRUCTURE
     1 SAH301      1 GROUP   
@<TRIPOS>SET

