#    Name: 4nh9_2LC_1_INTS_M
#    Modification time : Tue Mar 25 13:09:26 2014

@<TRIPOS>MOLECULE
4nh9_2LC_1_INTS_M
   65     0     6     0     0
SMALL
NO_CHARGES


@<TRIPOS>ATOM
      1 CA        -16.6775  -38.2670  -10.7165 C.3       2 GLC5        0.0000 
      2 CA        -18.4650  -37.8630   -9.5180 C.3       6 GLL5        0.0000 
      3 CA        -14.8900  -38.6710  -11.9150 C.3       4 GLP5        0.0000 
      4 CA        -17.8550  -39.2940   -8.0105 C.3       2 GLC5        0.0000 
      5 CA        -17.2450  -40.7250   -6.5030 C.3       4 GLP5        0.0000 
      6 CA        -21.3050  -37.5050   -7.3225 C.3       2 GLC5        0.0000 
      7 CA        -19.3080  -36.6120   -7.2890 C.3       6 GLL5        0.0000 
      8 CA        -23.3020  -38.3980   -7.3560 C.3       4 GLP5        0.0000 
      9 CA        -19.0935  -39.0585   -5.1145 C.3       2 GLC5        0.0000 
     10 CA        -20.3570  -37.2340   -4.9770 C.3       6 GLL5        0.0000 
     11 CA        -17.8300  -40.8830   -5.2520 C.3       4 GLP5        0.0000 
     12 CA        -20.2970  -38.0820   -3.1500 C.3       2 GLC5        0.0000 
     13 CA        -20.2370  -38.9300   -1.3230 C.3       4 GLP5        0.0000 
     14 CA        -23.1200  -34.3615   -4.0270 C.3       2 GLC5        0.0000 
     15 CA        -22.2200  -35.5170   -5.3230 C.3       6 GLL5        0.0000 
     16 CA        -24.0200  -33.2060   -2.7310 C.3       4 GLP5        0.0000 
     17 CA        -22.3710  -34.2610   -3.0585 C.3       2 GLC5        0.0000 
     18 CA        -20.7220  -35.3160   -3.3860 C.3       6 GLL5        0.0000 
     19 CA        -18.7655  -35.5820   -3.0315 C.3       2 GLC5        0.0000 
     20 CA        -16.8090  -35.8480   -2.6770 C.3       4 GLP5        0.0000 
     21 CA        -19.7090  -34.2455   -2.1525 C.3       2 GLC5        0.0000 
     22 CA        -18.6960  -33.1750   -0.9190 C.3       4 GLP5        0.0000 
     23 CA        -20.9510  -36.1005   -1.8410 C.3       2 GLC5        0.0000 
     24 CA        -21.1800  -36.8850   -0.2960 C.3       4 GLP5        0.0000 
     25 CA        -18.1910  -35.8875   -5.1845 C.3       2 GLC5        0.0000 
     26 CA        -19.8670  -34.7760   -5.5870 C.3       6 GLL5        0.0000 
     27 CA        -16.5150  -36.9990   -4.7820 C.3       4 GLP5        0.0000 
     28 CA        -22.9650  -30.7205   -8.8940 C.3       2 GLC5        0.0000 
     29 CA        -22.1800  -30.6200  -10.8580 C.3       6 GLL5        0.0000 
     30 CA        -23.7500  -30.8210   -6.9300 C.3       4 GLP5        0.0000 
     31 CA        -23.3525  -28.7955  -13.6980 C.3       2 GLC5        0.0000 
     32 CA        -22.7090  -30.3750  -12.2920 C.3       6 GLL5        0.0000 
     33 CA        -23.9960  -27.2160  -15.1040 C.3       4 GLP5        0.0000 
     34 CA        -23.0080  -28.2265  -11.7280 C.3       2 GLC5        0.0000 
     35 CA        -23.3070  -26.0780  -11.1640 C.3       4 GLP5        0.0000 
     36 CA        -18.6805  -29.0865  -13.1805 C.3       2 GLC5        0.0000 
     37 CA        -20.4680  -29.6920  -12.3030 C.3       6 GLL5        0.0000 
     38 CA        -16.8930  -28.4810  -14.0580 C.3       4 GLP5        0.0000 
     39 CA        -19.9805  -27.6660  -11.9525 C.3       2 GLC5        0.0000 
     40 CA        -19.4930  -25.6400  -11.6020 C.3       4 GLP5        0.0000 
     41 O         -17.2640  -26.8975   -6.5170 O.2       1 ALC1        0.0000 
     42 O         -17.4350  -28.1910   -7.3900 O.2       5 ALL1        0.0000 
     43 O         -17.0930  -25.6040   -5.6440 O.2       3 ALP1        0.0000 
     44 CA        -16.6610  -34.1925   -6.8285 C.3       2 GLC5        0.0000 
     45 CA        -17.9940  -32.4620   -6.9110 C.3       6 GLL5        0.0000 
     46 CA        -15.3280  -35.9230   -6.7460 C.3       4 GLP5        0.0000 
     47 CA        -18.7795  -36.7353   -4.1852 C.3       2 GLC5        0.0000 
     48 CA        -16.9880  -36.9790   -3.4580 C.3       4 GLP5        0.0000 
     49 CA        -22.3488  -37.2011   -6.2369 C.3       2 GLC5        0.0000 
     50 CA        -21.5419  -33.5072   -5.7926 C.3       2 GLC5        0.0000 
     51 CA        -20.7850  -35.7490   -4.8480 C.3       6 GLL5        0.0000 
     52 CA        -22.3990  -31.8100   -6.2490 C.3       4 GLP5        0.0000 
     53 CA        -17.0457  -30.5137   -8.7070 C.3       2 GLC5        0.0000 
     54 CA        -19.2980  -30.9850   -8.9530 C.3       6 GLL5        0.0000 
     55 CA        -15.1420  -30.3740   -8.9930 C.3       4 GLP5        0.0000 
     56 CA        -20.7726  -31.8433   -7.4742 C.3       2 GLC5        0.0000 
     57 CA        -17.3137  -30.5778   -4.5057 C.3       2 GLC5        0.0000 
     58 CA        -17.9840  -31.0860   -6.8690 C.3       6 GLL5        0.0000 
     59 CA        -16.9700  -30.3720   -2.6460 C.3       4 GLP5        0.0000 
     60 CA        -16.4839  -30.9984   -7.8156 C.3       2 GLC5        0.0000 
     61 CA        -19.7239  -31.0586   -6.0104 C.3       2 GLC5        0.0000 
     62 CA        -17.3310  -30.4810   -5.8620 C.3       6 GLL5        0.0000 
     63 CA        -21.5450  -30.5900   -5.2550 C.3       4 GLP5        0.0000 
     64 CA        -17.1375  -35.9521   -7.3507 C.3       2 GLC5        0.0000 
     65 CA        -18.4300  -35.3890   -8.9660 C.3       6 GLL5        0.0000 
@<TRIPOS>BOND
@<TRIPOS>SUBSTRUCTURE
     1 ALC1       41 GROUP        1 X    ALC  0     ROOT ALC X 1
     2 GLC5        1 GROUP        1 X    GLC  0     **** GLC X 6
     3 ALP1       43 GROUP        1 Y    ALP  0     ROOT ALP Y 8
     4 GLP5        3 GROUP        1 Y    GLP  0     **** GLP Y 13
     5 ALL1       42 GROUP        1 Z    ALL  0     ROOT ALL Z 15
     6 GLL5        2 GROUP        1 Z    GLL  0     **** GLL Z 20
@<TRIPOS>SET

