#    Name: 4nh9_2LC_1_ligand
#    Modification time : Tue Mar 25 13:09:26 2014

@<TRIPOS>MOLECULE
4nh9_2LC_1_ligand
   55    58     1     0     0
SMALL
NO_CHARGES


@<TRIPOS>ATOM
      1 C1        -18.4650  -37.8630   -9.5180 C.3       1 2LC401      0.0000 
      2 C2        -18.7250  -36.6660   -8.6360 C.2       1 2LC401      0.0000 
      3 C3        -18.4300  -35.3890   -8.9660 C.2       1 2LC401      0.0000 
      4 N4        -18.7690  -34.5440   -7.9370 N.pl3     1 2LC401      0.0000 
      5 C5        -19.3250  -35.2580   -6.9310 C.2       1 2LC401      0.0000 
      6 C6        -19.3080  -36.6120   -7.2890 C.2       1 2LC401      0.0000 
      7 C7        -19.8560  -37.6540   -6.3750 C.2       1 2LC401      0.0000 
      8 O8        -19.9310  -38.8170   -6.7030 O.2       1 2LC401      0.0000 
      9 C9        -20.3570  -37.2340   -4.9770 C.3       1 2LC401      0.0000 
     10 C10       -20.7850  -35.7490   -4.8480 C.3       1 2LC401      0.0000 
     11 C11       -22.2200  -35.5170   -5.3230 C.3       1 2LC401      0.0000 
     12 C12       -20.7220  -35.3160   -3.3860 C.3       1 2LC401      0.0000 
     13 C13       -19.8670  -34.7760   -5.5870 C.3       1 2LC401      0.0000 
     14 C14       -18.6650  -33.1380   -7.9460 C.ar      1 2LC401      0.0000 
     15 C15       -19.3240  -32.3980   -8.9460 C.ar      1 2LC401      0.0000 
     16 C16       -19.2980  -30.9850   -8.9530 C.ar      1 2LC401      0.0000 
     17 N17       -19.9150  -30.2070   -9.9520 N.pl3     1 2LC401      0.0000 
     18 C18       -20.6580  -30.6730  -11.1310 C.3       1 2LC401      0.0000 
     19 C20       -22.1800  -30.6200  -10.8580 C.3       1 2LC401      0.0000 
     20 C21       -22.7090  -30.3750  -12.2920 C.3       1 2LC401      0.0000 
     21 O22       -21.7830  -29.3970  -12.8200 O.3       1 2LC401      0.0000 
     22 C23       -20.4680  -29.6920  -12.3030 C.3       1 2LC401      0.0000 
     23 C24       -18.6010  -30.3220   -7.8890 C.ar      1 2LC401      0.0000 
     24 C25       -18.5470  -28.8480   -7.7840 C.2       1 2LC401      0.0000 
     25 N26       -17.4350  -28.1910   -7.3900 N.am      1 2LC401      0.0000 
     26 O27       -19.5520  -28.2200   -8.0320 O.2       1 2LC401      0.0000 
     27 C28       -17.9840  -31.0860   -6.8690 C.ar      1 2LC401      0.0000 
     28 F29       -17.3310  -30.4810   -5.8620 F         1 2LC401      0.0000 
     29 C30       -17.9940  -32.4620   -6.9110 C.ar      1 2LC401      0.0000 
     30 H         -18.0356  -35.0981   -9.8051 H         1 2LC401      0.0000 
     31 H         -19.5609  -37.4342   -4.2392 H         1 2LC401      0.0000 
     32 H         -21.2151  -37.8709   -4.7008 H         1 2LC401      0.0000 
     33 H         -20.4143  -33.8218   -5.7453 H         1 2LC401      0.0000 
     34 H         -19.0092  -34.5254   -4.9263 H         1 2LC401      0.0000 
     35 H         -19.8370  -32.8951   -9.6899 H         1 2LC401      0.0000 
     36 H         -19.8465  -29.1417   -9.8608 H         1 2LC401      0.0000 
     37 H         -20.4000  -31.6339  -11.4396 H         1 2LC401      0.0000 
     38 H         -22.4018  -29.7983  -10.2558 H         1 2LC401      0.0000 
     39 H         -22.5092  -31.5479  -10.5151 H         1 2LC401      0.0000 
     40 H         -23.7006  -29.9925  -12.2177 H         1 2LC401      0.0000 
     41 H         -22.6664  -31.2981  -12.8223 H         1 2LC401      0.0000 
     42 H         -19.8426  -30.1730  -13.0424 H         1 2LC401      0.0000 
     43 H         -19.9770  -28.8074  -11.9212 H         1 2LC401      0.0000 
     44 H         -16.6440  -28.7601   -7.1655 H         1 2LC401      0.0000 
     45 H         -17.5013  -27.1937   -7.3577 H         1 2LC401      0.0000 
     46 H         -17.5106  -33.0123   -6.1855 H         1 2LC401      0.0000 
     47 H         -17.4931  -37.9633   -9.7309 H         1 2LC401      0.0000 
     48 H         -18.7595  -38.7147   -9.0846 H         1 2LC401      0.0000 
     49 H         -18.9504  -37.7945  -10.3896 H         1 2LC401      0.0000 
     50 H         -22.4891  -34.5577   -5.2372 H         1 2LC401      0.0000 
     51 H         -22.3389  -35.7700   -6.2831 H         1 2LC401      0.0000 
     52 H         -22.8775  -36.0542   -4.7947 H         1 2LC401      0.0000 
     53 H         -19.7995  -35.4075   -3.0110 H         1 2LC401      0.0000 
     54 H         -20.9921  -34.3602   -3.2698 H         1 2LC401      0.0000 
     55 H         -21.3283  -35.8641   -2.8099 H         1 2LC401      0.0000 
@<TRIPOS>BOND
     1    2    1 1    
     2   47    1 1    
     3   48    1 1    
     4   49    1 1    
     5    3    2 2    
     6    6    2 1    
     7    4    3 1    
     8   30    3 1    
     9    5    4 1    
    10   14    4 1    
    11    6    5 2    
    12   13    5 1    
    13    7    6 1    
    14    8    7 2    
    15    9    7 1    
    16   10    9 1    
    17   31    9 1    
    18   32    9 1    
    19   11   10 1    
    20   12   10 1    
    21   13   10 1    
    22   50   11 1    
    23   51   11 1    
    24   52   11 1    
    25   53   12 1    
    26   54   12 1    
    27   55   12 1    
    28   33   13 1    
    29   34   13 1    
    30   15   14 ar   
    31   29   14 ar   
    32   16   15 ar   
    33   35   15 1    
    34   17   16 1    
    35   23   16 ar   
    36   18   17 1    
    37   36   17 1    
    38   19   18 1    
    39   22   18 1    
    40   37   18 1    
    41   20   19 1    
    42   38   19 1    
    43   39   19 1    
    44   21   20 1    
    45   40   20 1    
    46   41   20 1    
    47   22   21 1    
    48   42   22 1    
    49   43   22 1    
    50   24   23 1    
    51   27   23 ar   
    52   25   24 am   
    53   26   24 2    
    54   44   25 1    
    55   45   25 1    
    56   28   27 1    
    57   29   27 ar   
    58   46   29 1    
@<TRIPOS>SUBSTRUCTURE
     1 2LC401      1 GROUP   
@<TRIPOS>SET

