#    Name: 3elm_24F_2_INTS_M
#    Modification time : Tue Mar 25 02:06:44 2014

@<TRIPOS>MOLECULE
3elm_24F_2_INTS_M
   78     0     9     0     0
SMALL
NO_CHARGES


@<TRIPOS>ATOM
      1 CA         27.0250    0.8990   59.3480 C.3       3 GLC5        0.0000 
      2 CA         25.3690   -0.1740   60.1400 C.3       9 GLL5        0.0000 
      3 CA         28.6810    1.9720   58.5560 C.3       6 GLP5        0.0000 
      4 CA         27.3230    0.2140   61.9110 C.3       3 GLC5        0.0000 
      5 CA         25.3850    0.5950   61.3520 C.3       9 GLL5        0.0000 
      6 CA         29.2610   -0.1670   62.4700 C.3       6 GLP5        0.0000 
      7 CA         21.8445   -1.7635   59.4555 C.3       3 GLC5        0.0000 
      8 CA         22.8940    0.1190   60.0400 C.3       9 GLL5        0.0000 
      9 CA         20.7950   -3.6460   58.8710 C.3       6 GLP5        0.0000 
     10 CA         24.9875   -2.6895   60.2505 C.3       3 GLC5        0.0000 
     11 CA         26.5850   -1.9080   58.8780 C.3       9 GLL5        0.0000 
     12 CA         23.3900   -3.4710   61.6230 C.3       6 GLP5        0.0000 
     13 CA         22.8545    3.2090   64.0810 C.3       3 GLC5        0.0000 
     14 CA         21.6460    2.5510   62.6770 C.3       9 GLL5        0.0000 
     15 CA         24.0630    3.8670   65.4850 C.3       6 GLP5        0.0000 
     16 CA         20.5560    0.3040   63.5960 C.3       3 GLC5        0.0000 
     17 CA         20.0950    0.7890   61.4900 C.3       9 GLL5        0.0000 
     18 CA         21.0170   -0.1810   65.7020 C.3       6 GLP5        0.0000 
     19 Zn         18.5980    3.6615   59.8075 Zn        2 ZIC7        0.0000 
     20 Zn         17.0450    2.9990   61.4190 Zn        8 ZIL7        0.0000 
     21 Zn         20.1510    4.3240   58.1960 Zn        5 ZIP7        0.0000 
     22 N          17.4210    2.5800   65.2980 N.am      1 SEC2        0.0000 
     23 N          17.2890    2.8000   63.8960 N.am      7 SEL2        0.0000 
     24 N          17.5530    2.3600   66.7000 N.am      4 SEP2        0.0000 
     25 Zn         19.8715    4.8035   59.4240 Zn        2 ZIC7        0.0000 
     26 Zn         19.5920    5.2830   60.6520 Zn        8 ZIL7        0.0000 
     27 N          20.4305    5.5445   61.5775 N.am      1 SEC2        0.0000 
     28 N          19.5920    5.2830   60.6520 N.am      7 SEL2        0.0000 
     29 N          21.2690    5.8060   62.5030 N.am      4 SEP2        0.0000 
     30 Zn         19.4510    4.0200   58.7665 Zn        2 ZIC7        0.0000 
     31 Zn         18.7510    3.7160   59.3370 Zn        8 ZIL7        0.0000 
     32 CA         11.8845   11.5305   61.4275 C.3       3 GLC5        0.0000 
     33 CA         13.7740   11.0810   61.0320 C.3       9 GLL5        0.0000 
     34 CA          9.9950   11.9800   61.8230 C.3       6 GLP5        0.0000 
     35 CA         12.1100   10.7255   59.0365 C.3       3 GLC5        0.0000 
     36 CA         13.7950   11.9610   59.7670 C.3       9 GLL5        0.0000 
     37 CA         10.4250    9.4900   58.3060 C.3       6 GLP5        0.0000 
     38 CA         12.1220   12.6170   60.7195 C.3       3 GLC5        0.0000 
     39 CA         10.4490   13.2730   61.6720 C.3       6 GLP5        0.0000 
     40 CA         14.6205   13.7955   60.4740 C.3       3 GLC5        0.0000 
     41 CA         15.4460   15.6300   61.1810 C.3       6 GLP5        0.0000 
     42 CA         12.9800   12.4760   63.0175 C.3       3 GLC5        0.0000 
     43 CA         14.5240   11.7570   62.1790 C.3       9 GLL5        0.0000 
     44 CA         11.4360   13.1950   63.8560 C.3       6 GLP5        0.0000 
     45 CA         15.3335   10.6350   63.4355 C.3       3 GLC5        0.0000 
     46 CA         16.1430    9.5130   64.6920 C.3       6 GLP5        0.0000 
     47 CA         14.7650   13.4570   62.8425 C.3       3 GLC5        0.0000 
     48 CA         15.0060   15.1570   63.5060 C.3       6 GLP5        0.0000 
     49 CA         25.5035    2.0885   62.9690 C.3       3 GLC5        0.0000 
     50 CA         26.2250    3.3210   64.3130 C.3       6 GLP5        0.0000 
     51 CA         25.0820    2.2989   60.6730 C.3       3 GLC5        0.0000 
     52 CA         24.1790    1.1170   61.8980 C.3       9 GLL5        0.0000 
     53 CA         25.3860    3.9340   60.0240 C.3       6 GLP5        0.0000 
     54 CA         23.3137   -0.9545   62.3035 C.3       3 GLC5        0.0000 
     55 CA         23.0800   -2.9120   63.0310 C.3       6 GLP5        0.0000 
     56 CA         23.6020   -1.7779   60.7754 C.3       3 GLC5        0.0000 
     57 CA         23.7930    1.8607   59.7025 C.3       3 GLC5        0.0000 
     58 CA         24.0990   -0.4030   59.4910 C.3       9 GLL5        0.0000 
     59 CA         24.0840    3.6710   59.3360 C.3       6 GLP5        0.0000 
     60 CA         28.1438   -1.8565   60.6650 C.3       3 GLC5        0.0000 
     61 CA         28.9800   -1.6790   62.6650 C.3       6 GLP5        0.0000 
     62 CA         27.6418   -0.6000   57.2405 C.3       3 GLC5        0.0000 
     63 CA         28.0300   -2.1600   58.4520 C.3       9 GLL5        0.0000 
     64 CA         27.9760    0.8340   55.8160 C.3       6 GLP5        0.0000 
     65 CA         21.3355    0.9067   63.9780 C.3       3 GLC5        0.0000 
     66 CA         21.6620    1.4380   61.8310 C.3       9 GLL5        0.0000 
     67 CA         19.8925    2.1525   64.6925 C.3       3 GLC5        0.0000 
     68 CA         20.2760    2.8760   63.0510 C.3       9 GLL5        0.0000 
     69 CA         19.9580    1.8700   66.6260 C.3       6 GLP5        0.0000 
     70 CA         21.8960    3.2671   61.1288 C.3       3 GLC5        0.0000 
     71 CA         22.8270    4.0990   59.6050 C.3       6 GLP5        0.0000 
     72 CA         16.3750    7.9133   61.7567 C.3       3 GLC5        0.0000 
     73 CA         16.6220    6.6660   60.2040 C.3       9 GLL5        0.0000 
     74 CA         16.7390    8.7530   63.5450 C.3       6 GLP5        0.0000 
     75 CA         13.9905    4.5832   62.9203 C.3       3 GLC5        0.0000 
     76 CA         15.1120    5.3290   61.7610 C.3       9 GLL5        0.0000 
     77 CA         13.4650    3.4030   64.3130 C.3       6 GLP5        0.0000 
     78 CA         15.6275    7.2583   62.5363 C.3       3 GLC5        0.0000 
@<TRIPOS>BOND
@<TRIPOS>SUBSTRUCTURE
     1 SEC2       22 GROUP        1 X    SEC  0     ROOT SEC X 2
     2 ZIC7       19 GROUP        1 X    ZIC  0     **** ZIC X 5
     3 GLC5        1 GROUP        1 X    GLC  0     **** GLC X 6
     4 SEP2       24 GROUP        1 Y    SEP  0     ROOT SEP Y 9
     5 ZIP7       21 GROUP        1 Y    ZIP  0     **** ZIP Y 12
     6 GLP5        3 GROUP        1 Y    GLP  0     **** GLP Y 13
     7 SEL2       23 GROUP        1 Z    SEL  0     ROOT SEL Z 16
     8 ZIL7       20 GROUP        1 Z    ZIL  0     **** ZIL Z 19
     9 GLL5        2 GROUP        1 Z    GLL  0     **** GLL Z 20
@<TRIPOS>SET

