#    Name: 3elm_24F_2_ligand
#    Modification time : Tue Mar 25 02:06:44 2014

@<TRIPOS>MOLECULE
3elm_24F_2_ligand
   63    65     1     0     0
SMALL
NO_CHARGES


@<TRIPOS>ATOM
      1 C01        25.3690   -0.1740   60.1400 C.ar      1 24F400      0.0000 
      2 C02        25.3850    0.5950   61.3520 C.ar      1 24F400      0.0000 
      3 C03        24.1790    1.1170   61.8980 C.ar      1 24F400      0.0000 
      4 C04        22.9160    0.8890   61.2540 C.ar      1 24F400      0.0000 
      5 C05        22.8940    0.1190   60.0400 C.ar      1 24F400      0.0000 
      6 C06        24.0990   -0.4030   59.4910 C.ar      1 24F400      0.0000 
      7 O07        26.5420   -0.6720   59.6120 O.3       1 24F400      0.0000 
      8 C08        26.5850   -1.9080   58.8780 C.3       1 24F400      0.0000 
      9 C09        21.6620    1.4380   61.8310 C.2       1 24F400      0.0000 
     10 C10        21.6460    2.5510   62.6770 C.2       1 24F400      0.0000 
     11 C11        20.2760    2.8760   63.0510 C.2       1 24F400      0.0000 
     12 C12        19.3780    1.9940   62.4670 C.2       1 24F400      0.0000 
     13 S13        20.0950    0.7890   61.4900 S.3       1 24F400      0.0000 
     14 S14        17.6350    2.1030   62.6650 S.o2      1 24F400      0.0000 
     15 N15        17.0450    2.9990   61.4190 N.pl3     1 24F400      0.0000 
     16 O16        17.0410    0.7810   62.4860 O.2       1 24F400      0.0000 
     17 O17        17.2890    2.8000   63.8960 O.2       1 24F400      0.0000 
     18 C18        17.4420    4.4180   61.2450 C.3       1 24F400      0.0000 
     19 C19        18.7080    4.4750   60.3390 C.2       1 24F400      0.0000 
     20 OM0        19.5920    5.2830   60.6520 O.co2     1 24F400      0.0000 
     21 O21        18.7510    3.7160   59.3370 O.co2     1 24F400      0.0000 
     22 C22        16.2440    5.2380   60.7030 C.3       1 24F400      0.0000 
     23 C23        16.6220    6.6660   60.2040 C.3       1 24F400      0.0000 
     24 C24        15.4000    7.4810   59.7330 C.3       1 24F400      0.0000 
     25 N25        14.3710    7.5200   60.7990 N.am      1 24F400      0.0000 
     26 C26        13.9200    6.1980   61.2940 C.3       1 24F400      0.0000 
     27 C27        15.1120    5.3290   61.7610 C.3       1 24F400      0.0000 
     28 C28        28.0300   -2.1600   58.4520 C.3       1 24F400      0.0000 
     29 C29        13.7570    8.6170   61.2100 C.2       1 24F400      0.0000 
     30 O30        14.3980    9.8100   60.7670 O.3       1 24F400      0.0000 
     31 O31        12.7500    8.6960   61.9080 O.2       1 24F400      0.0000 
     32 C32        13.7740   11.0810   61.0320 C.3       1 24F400      0.0000 
     33 C33        13.7950   11.9610   59.7670 C.3       1 24F400      0.0000 
     34 C34        14.5240   11.7570   62.1790 C.3       1 24F400      0.0000 
     35 H          26.2740    0.7663   61.8233 H         1 24F400      0.0000 
     36 H          24.2063    1.6635   62.7619 H         1 24F400      0.0000 
     37 H          22.0041   -0.0512   59.5729 H         1 24F400      0.0000 
     38 H          24.0750   -0.9470   58.6284 H         1 24F400      0.0000 
     39 H          25.9709   -1.8645   57.9802 H         1 24F400      0.0000 
     40 H          26.2609   -2.7496   59.4877 H         1 24F400      0.0000 
     41 H          22.3962    3.0429   62.9805 H         1 24F400      0.0000 
     42 H          20.0624    3.6087   63.6258 H         1 24F400      0.0000 
     43 H          16.4276    2.5286   60.8202 H         1 24F400      0.0000 
     44 H          17.7172    4.8245   62.2190 H         1 24F400      0.0000 
     45 H          15.8251    4.6919   59.8418 H         1 24F400      0.0000 
     46 H          17.3297    6.5691   59.3770 H         1 24F400      0.0000 
     47 H          17.1170    7.1993   61.0194 H         1 24F400      0.0000 
     48 H          15.0036    7.0120   58.8329 H         1 24F400      0.0000 
     49 H          15.7360    8.4876   59.4859 H         1 24F400      0.0000 
     50 H          13.3915    5.6515   60.5059 H         1 24F400      0.0000 
     51 H          13.2359    6.3167   62.1409 H         1 24F400      0.0000 
     52 H          15.5228    5.7538   62.6804 H         1 24F400      0.0000 
     53 H          14.7524    4.3203   61.9793 H         1 24F400      0.0000 
     54 H          12.7472   10.9477   61.3339 H         1 24F400      0.0000 
     55 H          28.6426   -2.2295   59.2394 H         1 24F400      0.0000 
     56 H          28.1215   -3.0102   57.9335 H         1 24F400      0.0000 
     57 H          28.3800   -1.4241   57.8724 H         1 24F400      0.0000 
     58 H          14.7277   12.1360   59.4517 H         1 24F400      0.0000 
     59 H          13.3047   11.5323   59.0082 H         1 24F400      0.0000 
     60 H          13.3677   12.8509   59.9265 H         1 24F400      0.0000 
     61 H          15.4861   11.9110   61.9539 H         1 24F400      0.0000 
     62 H          14.1300   12.6475   62.4065 H         1 24F400      0.0000 
     63 H          14.5027   11.2054   63.0128 H         1 24F400      0.0000 
@<TRIPOS>BOND
     1    2    1 ar   
     2    6    1 ar   
     3    7    1 1    
     4    3    2 ar   
     5   35    2 1    
     6    4    3 ar   
     7   36    3 1    
     8    5    4 ar   
     9    9    4 1    
    10    6    5 ar   
    11   37    5 1    
    12   38    6 1    
    13    8    7 1    
    14   28    8 1    
    15   39    8 1    
    16   40    8 1    
    17   10    9 2    
    18   13    9 1    
    19   11   10 1    
    20   41   10 1    
    21   12   11 2    
    22   42   11 1    
    23   13   12 1    
    24   14   12 1    
    25   15   14 1    
    26   16   14 2    
    27   17   14 2    
    28   18   15 1    
    29   43   15 1    
    30   19   18 1    
    31   22   18 1    
    32   44   18 1    
    33   20   19 ar   
    34   21   19 ar   
    35   23   22 1    
    36   27   22 1    
    37   45   22 1    
    38   24   23 1    
    39   46   23 1    
    40   47   23 1    
    41   25   24 1    
    42   48   24 1    
    43   49   24 1    
    44   26   25 1    
    45   29   25 am   
    46   27   26 1    
    47   50   26 1    
    48   51   26 1    
    49   52   27 1    
    50   53   27 1    
    51   55   28 1    
    52   56   28 1    
    53   57   28 1    
    54   30   29 1    
    55   31   29 2    
    56   32   30 1    
    57   33   32 1    
    58   34   32 1    
    59   54   32 1    
    60   58   33 1    
    61   59   33 1    
    62   60   33 1    
    63   61   34 1    
    64   62   34 1    
    65   63   34 1    
@<TRIPOS>SUBSTRUCTURE
     1 24F400      1 GROUP   
@<TRIPOS>SET

