#    Name: 3sop_GDP_1_INTS_M
#    Modification time : Mon Mar 24 18:00:20 2014

@<TRIPOS>MOLECULE
3sop_GDP_1_INTS_M
   51     0    15     0     0
SMALL
NO_CHARGES


@<TRIPOS>ATOM
      1 Zn         18.0110   44.5155   10.6055 Zn        4 ZIC7        0.0000 
      2 Zn         16.9440   44.2850   10.8800 Zn       14 ZIL7        0.0000 
      3 Zn         19.0780   44.7460   10.3310 Zn        9 ZIP7        0.0000 
      4 N          16.1635   41.4705   12.9530 N.am      2 SEC2        0.0000 
      5 N          16.1240   42.2670   12.0290 N.am     12 SEL2        0.0000 
      6 N          16.2030   40.6740   13.8770 N.am      7 SEP2        0.0000 
      7 NZ         17.5285   44.5075   14.2125 N.4       3 LYC4        0.0000 
      8 NZ         16.2410   44.4080   13.2400 N.4      13 LYL4        0.0000 
      9 NZ         18.8160   44.6070   15.1850 N.4       8 LYP4        0.0000 
     10 N          15.1875   43.3450   14.0350 N.am      2 SEC2        0.0000 
     11 N          16.2410   44.4080   13.2400 N.am     12 SEL2        0.0000 
     12 N          14.1340   42.2820   14.8300 N.am      7 SEP2        0.0000 
     13 N          14.6380   44.4540   13.4720 N.am      2 SEC2        0.0000 
     14 N          13.0350   44.5000   13.7040 N.am      7 SEP2        0.0000 
     15 N          15.3935   45.5790   13.2655 N.am      2 SEC2        0.0000 
     16 N          14.5460   46.7500   13.2910 N.am      7 SEP2        0.0000 
     17 N          17.5285   44.5075   14.2125 N.am      2 SEC2        0.0000 
     18 N          18.8160   44.6070   15.1850 N.am      7 SEP2        0.0000 
     19 N          13.7500   44.3035   12.5715 N.am      2 SEC2        0.0000 
     20 N          14.4650   44.1070   11.4390 N.am     12 SEL2        0.0000 
     21 N          15.7860   42.4170    9.2385 N.am      2 SEC2        0.0000 
     22 N          15.3310   44.0290    9.0290 N.am     12 SEL2        0.0000 
     23 N          16.2410   40.8050    9.4480 N.am      7 SEP2        0.0000 
     24 N          13.6220   46.7540    9.3705 N.am      2 SEC2        0.0000 
     25 N          13.3220   45.3970    9.5390 N.am     12 SEL2        0.0000 
     26 N          13.9220   48.1110    9.2020 N.am      7 SEP2        0.0000 
     27 CA         13.5515   41.3925   12.1250 C.3       5 GLC5        0.0000 
     28 CA         12.2740   42.4260   10.7250 C.3      15 GLL5        0.0000 
     29 CA         14.8290   40.3590   13.5250 C.3      10 GLP5        0.0000 
     30 CA         12.3725   43.9995   11.8160 C.3       5 GLC5        0.0000 
     31 CA         12.4710   45.5730   12.9070 C.3      10 GLP5        0.0000 
     32 N           7.2395   42.9030    8.5965 N.am      2 SEC2        0.0000 
     33 N           8.4530   42.4090    7.9130 N.am     12 SEL2        0.0000 
     34 N           6.0260   43.3970    9.2800 N.am      7 SEP2        0.0000 
     35 CA          9.0355   42.0790   12.4270 C.3       5 GLC5        0.0000 
     36 CA          8.8490   42.6940   10.2810 C.3      15 GLL5        0.0000 
     37 CA          9.2220   41.4640   14.5730 C.3      10 GLP5        0.0000 
     38 N           6.8620   48.4385   13.2885 N.am      2 SEC2        0.0000 
     39 N           6.5480   47.1680   13.6670 N.am     12 SEL2        0.0000 
     40 N           7.1760   49.7090   12.9100 N.am      7 SEP2        0.0000 
     41 O           4.7295   45.1055   14.6685 O.2       1 ALC1        0.0000 
     42 O           5.6350   45.1080   13.6530 O.2      11 ALL1        0.0000 
     43 O           3.8240   45.1030   15.6840 O.2       6 ALP1        0.0000 
     44 O           3.6100   43.8355   13.8090 O.2       1 ALC1        0.0000 
     45 O           4.6520   43.0040   13.6790 O.2      11 ALL1        0.0000 
     46 O           2.5680   44.6670   13.9390 O.2       6 ALP1        0.0000 
     47 CA          7.8245   44.1420   13.8592 C.3       5 GLC5        0.0000 
     48 CA          7.5100   44.1330   11.8390 C.3      15 GLL5        0.0000 
     49 CA          8.1040   43.4510   15.6590 C.3      10 GLP5        0.0000 
     50 CA          5.5205   45.1990   11.4333 C.3       5 GLC5        0.0000 
     51 CA          3.4960   45.5650   10.8070 C.3      10 GLP5        0.0000 
@<TRIPOS>BOND
@<TRIPOS>SUBSTRUCTURE
     1 ALC1       41 GROUP        1 X    ALC  0     ROOT ALC X 1
     2 SEC2        4 GROUP        1 X    SEC  0     **** SEC X 2
     3 LYC4        7 GROUP        1 X    LYC  0     **** LYC X 4
     4 ZIC7        1 GROUP        1 X    ZIC  0     **** ZIC X 5
     5 GLC5       27 GROUP        1 X    GLC  0     **** GLC X 6
     6 ALP1       43 GROUP        1 Y    ALP  0     ROOT ALP Y 8
     7 SEP2        6 GROUP        1 Y    SEP  0     **** SEP Y 9
     8 LYP4        9 GROUP        1 Y    LYP  0     **** LYP Y 11
     9 ZIP7        3 GROUP        1 Y    ZIP  0     **** ZIP Y 12
    10 GLP5       29 GROUP        1 Y    GLP  0     **** GLP Y 13
    11 ALL1       42 GROUP        1 Z    ALL  0     ROOT ALL Z 15
    12 SEL2        5 GROUP        1 Z    SEL  0     **** SEL Z 16
    13 LYL4        8 GROUP        1 Z    LYL  0     **** LYL Z 18
    14 ZIL7        2 GROUP        1 Z    ZIL  0     **** ZIL Z 19
    15 GLL5       28 GROUP        1 Z    GLL  0     **** GLL Z 20
@<TRIPOS>SET

