#    Name: 3sop_GDP_1_ligand
#    Modification time : Mon Mar 24 18:00:20 2014

@<TRIPOS>MOLECULE
3sop_GDP_1_ligand
   40    42     1     0     0
SMALL
NO_CHARGES


@<TRIPOS>ATOM
      1 PB         15.9660   43.7630   11.9040 P.3       1 GDP402      0.0000 
      2 O1B        16.9440   44.2850   10.8800 O.co2     1 GDP402      0.0000 
      3 O2B        16.1240   42.2670   12.0290 O.co2     1 GDP402      0.0000 
      4 O3B        16.2410   44.4080   13.2400 O.co2     1 GDP402      0.0000 
      5 O3A        14.4650   44.1070   11.4390 O.3       1 GDP402      0.0000 
      6 PA         14.0860   44.1400    9.8750 P.3       1 GDP402      0.0000 
      7 O1A        15.3310   44.0290    9.0290 O.co2     1 GDP402      0.0000 
      8 O2A        13.3220   45.3970    9.5390 O.co2     1 GDP402      0.0000 
      9 O5'        13.1520   42.8440    9.6820 O.3       1 GDP402      0.0000 
     10 C5'        12.2740   42.4260   10.7250 C.3       1 GDP402      0.0000 
     11 C4'        11.0310   41.7900   10.1170 C.3       1 GDP402      0.0000 
     12 O4'         9.9060   42.0210   10.9700 O.3       1 GDP402      0.0000 
     13 C3'        10.7140   42.3890    8.7570 C.3       1 GDP402      0.0000 
     14 O3'        10.7110   41.3620    7.7610 O.3       1 GDP402      0.0000 
     15 C2'         9.3330   43.0000    8.8730 C.3       1 GDP402      0.0000 
     16 O2'         8.4530   42.4090    7.9130 O.3       1 GDP402      0.0000 
     17 C1'         8.8490   42.6940   10.2810 C.3       1 GDP402      0.0000 
     18 N9          8.5210   43.9580   10.9850 N.pl3     1 GDP402      0.0000 
     19 C8          9.1900   45.1200   10.8720 C.2       1 GDP402      0.0000 
     20 N7          8.6330   46.0830   11.6490 N.2       1 GDP402      0.0000 
     21 C5          7.5800   45.5330   12.2800 C.2       1 GDP402      0.0000 
     22 C6          6.5540   45.9920   13.2460 C.2       1 GDP402      0.0000 
     23 O6          6.5480   47.1680   13.6670 O.2       1 GDP402      0.0000 
     24 N1          5.6350   45.1080   13.6530 N.am      1 GDP402      0.0000 
     25 C2          5.6170   43.8350   13.2170 C.2       1 GDP402      0.0000 
     26 N2          4.6520   43.0040   13.6790 N.pl3     1 GDP402      0.0000 
     27 N3          6.5250   43.3470   12.3330 N.2       1 GDP402      0.0000 
     28 C4          7.5100   44.1330   11.8390 C.2       1 GDP402      0.0000 
     29 H          11.9508   43.2685   11.3465 H         1 GDP402      0.0000 
     30 H          12.7448   41.6846   11.3801 H         1 GDP402      0.0000 
     31 H          11.2065   40.7357    9.9919 H         1 GDP402      0.0000 
     32 H          11.4152   43.1596    8.5517 H         1 GDP402      0.0000 
     33 H           9.4140   44.0544    8.7630 H         1 GDP402      0.0000 
     34 H           7.9775   42.0771   10.2109 H         1 GDP402      0.0000 
     35 H           9.9789   45.2593   10.3033 H         1 GDP402      0.0000 
     36 H           4.8930   45.4190   14.3440 H         1 GDP402      0.0000 
     37 H           3.7680   43.4256   13.8811 H         1 GDP402      0.0000 
     38 H           4.9091   42.0426   13.7770 H         1 GDP402      0.0000 
     39 H           9.7752   41.3459    7.4088 H         1 GDP402      0.0000 
     40 H           8.4843   43.0206    7.1225 H         1 GDP402      0.0000 
@<TRIPOS>BOND
     1    2    1 ar   
     2    3    1 ar   
     3    4    1 ar   
     4    5    1 1    
     5    6    5 1    
     6    7    6 ar   
     7    8    6 ar   
     8    9    6 1    
     9   10    9 1    
    10   11   10 1    
    11   29   10 1    
    12   30   10 1    
    13   12   11 1    
    14   13   11 1    
    15   31   11 1    
    16   17   12 1    
    17   14   13 1    
    18   15   13 1    
    19   32   13 1    
    20   39   14 1    
    21   16   15 1    
    22   17   15 1    
    23   33   15 1    
    24   40   16 1    
    25   18   17 1    
    26   34   17 1    
    27   19   18 1    
    28   28   18 1    
    29   20   19 2    
    30   35   19 1    
    31   21   20 1    
    32   22   21 1    
    33   28   21 2    
    34   23   22 2    
    35   24   22 am   
    36   25   24 1    
    37   36   24 1    
    38   26   25 1    
    39   27   25 2    
    40   37   26 1    
    41   38   26 1    
    42   28   27 1    
@<TRIPOS>SUBSTRUCTURE
     1 GDP402      1 GROUP   
@<TRIPOS>SET

