#    Name: 3ovv_1SB_1_INTS_M
#    Modification time : Tue Mar 25 05:20:51 2014

@<TRIPOS>MOLECULE
3ovv_1SB_1_INTS_M
   62     0     9     0     0
SMALL
NO_CHARGES


@<TRIPOS>ATOM
      1 N          -8.0660   -7.5940   22.2085 N.am      2 SEC2        0.0000 
      2 N          -8.6640   -8.0400   20.9920 N.am      8 SEL2        0.0000 
      3 N          -7.4680   -7.1480   23.4250 N.am      5 SEP2        0.0000 
      4 CA        -10.2010   -6.6730   20.9295 C.3       3 GLC5        0.0000 
      5 CA         -8.5030   -5.9550   19.8250 C.3       9 GLL5        0.0000 
      6 CA        -11.8990   -7.3910   22.0340 C.3       6 GLP5        0.0000 
      7 N          -4.4835   -1.7425   21.7705 N.am      2 SEC2        0.0000 
      8 N          -5.5320   -2.8840   21.9780 N.am      8 SEL2        0.0000 
      9 N          -3.4350   -0.6010   21.5630 N.am      5 SEP2        0.0000 
     10 N          -9.2715  -16.8565   15.7745 N.am      2 SEC2        0.0000 
     11 N          -8.7510  -15.7480   16.5370 N.am      8 SEL2        0.0000 
     12 N          -9.7920  -17.9650   15.0120 N.am      5 SEP2        0.0000 
     13 O          -8.5425  -16.7085   17.4185 O.2       1 ALC1        0.0000 
     14 O          -8.7510  -15.7480   16.5370 O.2       7 ALL1        0.0000 
     15 O          -8.3340  -17.6690   18.3000 O.2       4 ALP1        0.0000 
     16 CA         -3.4035   -5.7325   18.4120 C.3       3 GLC5        0.0000 
     17 CA         -4.8260   -5.4930   19.6660 C.3       9 GLL5        0.0000 
     18 CA         -1.9810   -5.9720   17.1580 C.3       6 GLP5        0.0000 
     19 CA         -2.7885   -3.8385   20.0070 C.3       3 GLC5        0.0000 
     20 CA         -4.6430   -4.4860   20.5510 C.3       9 GLL5        0.0000 
     21 CA         -0.9340   -3.1910   19.4630 C.3       6 GLP5        0.0000 
     22 CA         -6.3435   -2.0410   20.4285 C.3       3 GLC5        0.0000 
     23 CA         -6.6450   -2.1740   22.6030 C.3       9 GLL5        0.0000 
     24 CA         -6.0420   -1.9080   18.2540 C.3       6 GLP5        0.0000 
     25 CA         -6.1665   -0.2355   22.0615 C.3       3 GLC5        0.0000 
     26 CA         -5.6880    1.7030   21.5200 C.3       6 GLP5        0.0000 
     27 CA         -5.4865   -2.2145   23.8305 C.3       3 GLC5        0.0000 
     28 CA         -4.3280   -2.2550   25.0580 C.3       6 GLP5        0.0000 
     29 CA         -7.7140  -12.6395   20.0610 C.3       3 GLC5        0.0000 
     30 CA         -8.9600  -12.5750   18.4750 C.3       9 GLL5        0.0000 
     31 CA         -6.4680  -12.7040   21.6470 C.3       6 GLP5        0.0000 
     32 CA         -9.9270  -15.2830   19.3450 C.3       3 GLC5        0.0000 
     33 CA         -8.8770  -13.9570   18.1410 C.3       9 GLL5        0.0000 
     34 CA        -10.9770  -16.6090   20.5490 C.3       6 GLP5        0.0000 
     35 CA         -8.3265  -13.8070   20.2820 C.3       3 GLC5        0.0000 
     36 CA         -7.7760  -13.6570   22.4230 C.3       6 GLP5        0.0000 
     37 CA         -7.1065  -13.5830   14.5630 C.3       3 GLC5        0.0000 
     38 CA         -8.7890  -13.4640   15.8540 C.3       9 GLL5        0.0000 
     39 CA         -5.4240  -13.7020   13.2720 C.3       6 GLP5        0.0000 
     40 CA         -7.2180  -10.7075   16.2385 C.3       3 GLC5        0.0000 
     41 CA         -8.8450  -12.0960   16.1640 C.3       9 GLL5        0.0000 
     42 CA         -5.5910   -9.3190   16.3130 C.3       6 GLP5        0.0000 
     43 CA         -6.3455   -3.7812   19.0248 C.3       3 GLC5        0.0000 
     44 CA         -6.1030   -5.9260   19.4790 C.3       9 GLL5        0.0000 
     45 CA         -6.8590  -11.7660   17.6822 C.3       3 GLC5        0.0000 
     46 CA         -8.9240  -11.6270   17.4700 C.3       9 GLL5        0.0000 
     47 CA         -4.7760  -11.4310   17.3920 C.3       6 GLP5        0.0000 
     48 CA         -5.3882   -3.4487   19.1812 C.3       3 GLC5        0.0000 
     49 CA         -6.2168   -3.0160   19.6630 C.3       3 GLC5        0.0000 
     50 CA         -5.7350   -3.9220   21.1520 C.3       9 GLL5        0.0000 
     51 CA         -4.0769   -5.0159   22.0781 C.3       3 GLC5        0.0000 
     52 CA         -2.9190   -5.5760   23.5260 C.3       6 GLP5        0.0000 
     53 CA         -6.7542   -6.1552   21.7646 C.3       3 GLC5        0.0000 
     54 CA         -7.0480   -4.3260   20.9920 C.3       9 GLL5        0.0000 
     55 CA         -6.0600   -7.3130   23.0490 C.3       6 GLP5        0.0000 
     56 CA        -10.6983  -12.9565   18.6309 C.3       3 GLC5        0.0000 
     57 CA        -12.4870  -12.8840   19.2050 C.3       6 GLP5        0.0000 
     58 CA         -7.1778  -14.4958   16.8760 C.3       3 GLC5        0.0000 
     59 CA         -5.5400  -15.1640   17.0750 C.3       6 GLP5        0.0000 
     60 CA        -10.5880  -12.8660   14.9260 C.3       3 GLC5        0.0000 
     61 CA        -12.3590  -12.9520   13.8430 C.3       6 GLP5        0.0000 
     62 CA         -5.6934   -6.1349   21.6305 C.3       3 GLC5        0.0000 
@<TRIPOS>BOND
@<TRIPOS>SUBSTRUCTURE
     1 ALC1       13 GROUP        1 X    ALC  0     ROOT ALC X 1
     2 SEC2        1 GROUP        1 X    SEC  0     **** SEC X 2
     3 GLC5        4 GROUP        1 X    GLC  0     **** GLC X 6
     4 ALP1       15 GROUP        1 Y    ALP  0     ROOT ALP Y 8
     5 SEP2        3 GROUP        1 Y    SEP  0     **** SEP Y 9
     6 GLP5        6 GROUP        1 Y    GLP  0     **** GLP Y 13
     7 ALL1       14 GROUP        1 Z    ALL  0     ROOT ALL Z 15
     8 SEL2        2 GROUP        1 Z    SEL  0     **** SEL Z 16
     9 GLL5        5 GROUP        1 Z    GLL  0     **** GLL Z 20
@<TRIPOS>SET

