#    Name: 3ovv_1SB_1_ligand
#    Modification time : Tue Mar 25 05:20:52 2014

@<TRIPOS>MOLECULE
3ovv_1SB_1_ligand
   37    38     1     0     0
SMALL
NO_CHARGES


@<TRIPOS>ATOM
      1 C1         -7.1950   -5.3830   20.1120 C.ar      1 1SB2001     0.0000 
      2 N1         -8.8170   -8.2500   18.8130 N.am      1 1SB2001     0.0000 
      3 O1         -8.6640   -8.0400   20.9920 O.2       1 1SB2001     0.0000 
      4 C2         -8.5030   -5.9550   19.8250 C.3       1 1SB2001     0.0000 
      5 N2         -8.8060   -9.6510   18.7500 N.2       1 1SB2001     0.0000 
      6 O2         -5.5320   -2.8840   21.9780 O.3       1 1SB2001     0.0000 
      7 C3         -8.6610   -7.4850   19.9010 C.2       1 1SB2001     0.0000 
      8 O3         -8.7510  -15.7480   16.5370 O.3       1 1SB2001     0.0000 
      9 C4         -8.9450  -10.1210   17.5620 C.2       1 1SB2001     0.0000 
     10 C5         -8.9240  -11.6270   17.4700 C.ar      1 1SB2001     0.0000 
     11 C6         -6.1030   -5.9260   19.4790 C.ar      1 1SB2001     0.0000 
     12 C7         -4.8260   -5.4930   19.6660 C.ar      1 1SB2001     0.0000 
     13 C8         -4.6430   -4.4860   20.5510 C.ar      1 1SB2001     0.0000 
     14 C9         -5.7350   -3.9220   21.1520 C.ar      1 1SB2001     0.0000 
     15 C10        -6.6450   -2.1740   22.6030 C.3       1 1SB2001     0.0000 
     16 C11        -7.0480   -4.3260   20.9920 C.ar      1 1SB2001     0.0000 
     17 C12        -8.9600  -12.5750   18.4750 C.ar      1 1SB2001     0.0000 
     18 C13        -8.8770  -13.9570   18.1410 C.ar      1 1SB2001     0.0000 
     19 C14        -8.8070  -14.4250   16.8590 C.ar      1 1SB2001     0.0000 
     20 C15        -8.7890  -13.4640   15.8540 C.ar      1 1SB2001     0.0000 
     21 C16        -8.8450  -12.0960   16.1640 C.ar      1 1SB2001     0.0000 
     22 H          -8.9709   -7.7513   17.8599 H         1 1SB2001     0.0000 
     23 H          -8.8480   -5.6401   18.7977 H         1 1SB2001     0.0000 
     24 H          -9.2808   -5.5103   20.5112 H         1 1SB2001     0.0000 
     25 H          -9.0633   -9.6295   16.7043 H         1 1SB2001     0.0000 
     26 H          -6.2705   -6.7304   18.8054 H         1 1SB2001     0.0000 
     27 H          -4.0462   -5.9108   19.1606 H         1 1SB2001     0.0000 
     28 H          -3.6955   -4.1431   20.7743 H         1 1SB2001     0.0000 
     29 H          -7.8053   -3.9020   21.4595 H         1 1SB2001     0.0000 
     30 H          -9.0452  -12.3056   19.4564 H         1 1SB2001     0.0000 
     31 H          -8.8708  -14.6385   18.9443 H         1 1SB2001     0.0000 
     32 H          -8.7338  -13.7546   14.8650 H         1 1SB2001     0.0000 
     33 H          -8.8262  -11.4082   15.3782 H         1 1SB2001     0.0000 
     34 H          -6.3278   -1.4271   23.1873 H         1 1SB2001     0.0000 
     35 H          -7.2589   -1.7735   21.9228 H         1 1SB2001     0.0000 
     36 H          -7.1973   -2.7798   23.1757 H         1 1SB2001     0.0000 
     37 H          -8.6042  -16.2198   17.4064 H         1 1SB2001     0.0000 
@<TRIPOS>BOND
     1    4    1 1    
     2   11    1 ar   
     3   16    1 ar   
     4    5    2 1    
     5    7    2 am   
     6   22    2 1    
     7    7    3 2    
     8    7    4 1    
     9   23    4 1    
    10   24    4 1    
    11    9    5 2    
    12   14    6 1    
    13   15    6 1    
    14   19    8 1    
    15   37    8 1    
    16   10    9 1    
    17   25    9 1    
    18   17   10 ar   
    19   21   10 ar   
    20   12   11 ar   
    21   26   11 1    
    22   13   12 ar   
    23   27   12 1    
    24   14   13 ar   
    25   28   13 1    
    26   16   14 ar   
    27   34   15 1    
    28   35   15 1    
    29   36   15 1    
    30   29   16 1    
    31   18   17 ar   
    32   30   17 1    
    33   19   18 ar   
    34   31   18 1    
    35   20   19 ar   
    36   21   20 ar   
    37   32   20 1    
    38   33   21 1    
@<TRIPOS>SUBSTRUCTURE
     1 1SB2001     1 GROUP   
@<TRIPOS>SET

