#    Name: 1p1k_NAI_2_INTS_M
#    Modification time : Mon Mar 24 21:02:49 2014

@<TRIPOS>MOLECULE
1p1k_NAI_2_INTS_M
  100     0     9     0     0
SMALL
NO_CHARGES


@<TRIPOS>ATOM
      1 N          18.6530    4.8380    9.2005 N.am      2 SEC2        0.0000 
      2 N          18.0090    5.8070   10.2700 N.am      8 SEL2        0.0000 
      3 N          19.2970    3.8690    8.1310 N.am      5 SEP2        0.0000 
      4 N          20.0765    8.9045   11.3910 N.am      2 SEC2        0.0000 
      5 N          19.3450    7.8890   10.5530 N.am      8 SEL2        0.0000 
      6 N          20.8080    9.9200   12.2290 N.am      5 SEP2        0.0000 
      7 CA         20.7400    4.2665   15.1490 C.3       3 GLC5        0.0000 
      8 CA         20.2230    4.4260   13.3350 C.3       9 GLL5        0.0000 
      9 CA         21.2570    4.1070   16.9630 C.3       6 GLP5        0.0000 
     10 N          22.7430    4.7960   10.8230 N.am      2 SEC2        0.0000 
     11 N          22.3650    4.6050   12.1630 N.am      8 SEL2        0.0000 
     12 N          23.1210    4.9870    9.4830 N.am      5 SEP2        0.0000 
     13 O          23.1045    4.2965   13.3005 O.2       1 ALC1        0.0000 
     14 O          22.3650    4.6050   12.1630 O.2       7 ALL1        0.0000 
     15 O          23.8440    3.9880   14.4380 O.2       4 ALP1        0.0000 
     16 O          23.3080    3.3205   12.8440 O.2       1 ALC1        0.0000 
     17 O          24.2510    2.0360   13.5250 O.2       4 ALP1        0.0000 
     18 CA         21.6955    2.0400   10.2175 C.3       3 GLC5        0.0000 
     19 CA         21.0620    2.4690   12.1840 C.3       9 GLL5        0.0000 
     20 CA         22.3290    1.6110    8.2510 C.3       6 GLP5        0.0000 
     21 N          22.4140    2.3425   10.4220 N.am      2 SEC2        0.0000 
     22 N          22.3130    1.8880   11.7570 N.am      8 SEL2        0.0000 
     23 N          22.5150    2.7970    9.0870 N.am      5 SEP2        0.0000 
     24 O          23.2820    1.9620   12.6410 O.2       1 ALC1        0.0000 
     25 O          22.3130    1.8880   11.7570 O.2       7 ALL1        0.0000 
     26 CA         21.0640    3.1815   15.3175 C.3       3 GLC5        0.0000 
     27 CA         20.8710    2.2560   13.6720 C.3       9 GLL5        0.0000 
     28 CA         19.3590    2.1540   15.0555 C.3       3 GLC5        0.0000 
     29 CA         17.8470    2.0520   16.4390 C.3       6 GLP5        0.0000 
     30 O          19.9150   -4.2620   16.6150 O.2       1 ALC1        0.0000 
     31 O          19.2470   -3.0020   16.2470 O.2       7 ALL1        0.0000 
     32 O          20.5830   -5.5220   16.9830 O.2       4 ALP1        0.0000 
     33 N          21.8160   -2.1590   17.8715 N.am      2 SEC2        0.0000 
     34 N          20.9410   -1.5440   17.1370 N.am      8 SEL2        0.0000 
     35 N          22.6910   -2.7740   18.6060 N.am      5 SEP2        0.0000 
     36 CA         20.7530    0.1840   18.5420 C.3       3 GLC5        0.0000 
     37 CA         21.6670   -0.3370   17.0480 C.3       9 GLL5        0.0000 
     38 CA         19.8390    0.7050   20.0360 C.3       6 GLP5        0.0000 
     39 CA         21.4620    1.8850   17.0055 C.3       3 GLC5        0.0000 
     40 CA         23.2260    0.3965   16.6640 C.3       3 GLC5        0.0000 
     41 CA         24.7850    1.1300   16.2800 C.3       6 GLP5        0.0000 
     42 CA         22.2145   -1.6840   15.5705 C.3       3 GLC5        0.0000 
     43 CA         22.7620   -3.0310   14.0930 C.3       6 GLP5        0.0000 
     44 CA         22.8410   -1.4715   17.5905 C.3       3 GLC5        0.0000 
     45 CA         24.0150   -2.6060   18.1330 C.3       6 GLP5        0.0000 
     46 N          23.0355   -0.0145   15.3395 N.am      2 SEC2        0.0000 
     47 N          21.6080    0.5720   16.0650 N.am      8 SEL2        0.0000 
     48 N          24.4630   -0.6010   14.6140 N.am      5 SEP2        0.0000 
     49 CA         20.9585    2.1760   16.0395 C.3       3 GLC5        0.0000 
     50 CA         20.6600    0.2450   15.1160 C.3       9 GLL5        0.0000 
     51 CA         22.7225    0.6875   15.6980 C.3       3 GLC5        0.0000 
     52 CA         21.7475   -0.5285   13.6975 C.3       3 GLC5        0.0000 
     53 CA         22.8350   -1.3020   12.2790 C.3       6 GLP5        0.0000 
     54 N          18.7400   10.1765   13.9755 N.am      2 SEC2        0.0000 
     55 N          17.9800    8.9340   13.6790 N.am      8 SEL2        0.0000 
     56 N          19.5000   11.4190   14.2720 N.am      5 SEP2        0.0000 
     57 N          18.9905    8.6555   14.5270 N.am      2 SEC2        0.0000 
     58 N          20.0010    8.3770   15.3750 N.am      5 SEP2        0.0000 
     59 CA         16.3980    5.2605   15.1745 C.3       3 GLC5        0.0000 
     60 CA         15.5270    7.1450   14.4380 C.3       9 GLL5        0.0000 
     61 CA         17.2690    3.3760   15.9110 C.3       6 GLP5        0.0000 
     62 N          11.6520    4.2100   13.5595 N.am      2 SEC2        0.0000 
     63 N          12.9320    5.0400   13.6910 N.am      8 SEL2        0.0000 
     64 N          10.3720    3.3800   13.4280 N.am      5 SEP2        0.0000 
     65 O          13.9370    4.2565   14.5155 O.2       1 ALC1        0.0000 
     66 O          12.9320    5.0400   13.6910 O.2       7 ALL1        0.0000 
     67 O          14.9420    3.4730   15.3400 O.2       4 ALP1        0.0000 
     68 CA          9.8055    6.8790   13.4935 C.3       3 GLC5        0.0000 
     69 CA         11.8080    7.1790   14.2480 C.3       9 GLL5        0.0000 
     70 CA          7.8030    6.5790   12.7390 C.3       6 GLP5        0.0000 
     71 N           9.7975    6.8530   14.3320 N.am      2 SEC2        0.0000 
     72 N          10.9850    6.2770   14.9920 N.am      8 SEL2        0.0000 
     73 N           8.6100    7.4290   13.6720 N.am      5 SEP2        0.0000 
     74 O          10.6785    4.8285   14.2100 O.2       1 ALC1        0.0000 
     75 O          10.9850    6.2770   14.9920 O.2       7 ALL1        0.0000 
     76 O          10.3720    3.3800   13.4280 O.2       4 ALP1        0.0000 
     77 CA         12.7990    9.3435   16.7150 C.3       3 GLC5        0.0000 
     78 CA         12.2860    8.3410   15.1100 C.3       9 GLL5        0.0000 
     79 CA         13.3120   10.3460   18.3200 C.3       6 GLP5        0.0000 
     80 O          13.3880   10.1770   10.7625 O.2       1 ALC1        0.0000 
     81 O          14.5360   11.3020   11.2730 O.2       7 ALL1        0.0000 
     82 O          12.2400    9.0520   10.2520 O.2       4 ALP1        0.0000 
     83 CA         12.6045   13.7410   11.9850 C.3       3 GLC5        0.0000 
     84 CA         12.0840   12.4790   13.7120 C.3       9 GLL5        0.0000 
     85 CA         13.1250   15.0030   10.2580 C.3       6 GLP5        0.0000 
     86 CA         18.4177    4.0687   14.5495 C.3       3 GLC5        0.0000 
     87 CA         21.1581    6.1661   12.7617 C.3       3 GLC5        0.0000 
     88 CA         18.9100    5.0970   13.0410 C.3       9 GLL5        0.0000 
     89 CA         22.0000    7.9430   12.8760 C.3       6 GLP5        0.0000 
     90 CA         21.9008    0.5302   12.6035 C.3       3 GLC5        0.0000 
     91 CA         21.3257   -2.2058   14.8618 C.3       3 GLC5        0.0000 
     92 CA         19.7970   -0.8930   15.0980 C.3       9 GLL5        0.0000 
     93 CA         19.0609    0.7421   15.9061 C.3       3 GLC5        0.0000 
     94 CA         15.7165    6.5670   16.5535 C.3       3 GLC5        0.0000 
     95 CA         16.6180    6.1280   18.4290 C.3       6 GLP5        0.0000 
     96 CA         10.9155   11.0563   16.5160 C.3       3 GLC5        0.0000 
     97 CA         10.9620   11.9380   14.4750 C.3       9 GLL5        0.0000 
     98 CA         10.8480   10.8430   18.3550 C.3       6 GLP5        0.0000 
     99 CA         12.9459   13.0903   15.0661 C.3       3 GLC5        0.0000 
    100 CA         14.0750   14.1860   16.1180 C.3       6 GLP5        0.0000 
@<TRIPOS>BOND
@<TRIPOS>SUBSTRUCTURE
     1 ALC1       13 GROUP        1 X    ALC  0     ROOT ALC X 1
     2 SEC2        1 GROUP        1 X    SEC  0     **** SEC X 2
     3 GLC5        7 GROUP        1 X    GLC  0     **** GLC X 6
     4 ALP1       15 GROUP        1 Y    ALP  0     ROOT ALP Y 8
     5 SEP2        3 GROUP        1 Y    SEP  0     **** SEP Y 9
     6 GLP5        9 GROUP        1 Y    GLP  0     **** GLP Y 13
     7 ALL1       14 GROUP        1 Z    ALL  0     ROOT ALL Z 15
     8 SEL2        2 GROUP        1 Z    SEL  0     **** SEL Z 16
     9 GLL5        8 GROUP        1 Z    GLL  0     **** GLL Z 20
@<TRIPOS>SET

