#    Name: 1p1k_NAI_2_ligand
#    Modification time : Mon Mar 24 21:02:49 2014

@<TRIPOS>MOLECULE
1p1k_NAI_2_ligand
   71    75     1     0     0
SMALL
NO_CHARGES


@<TRIPOS>ATOM
      1 PA         18.4110    6.9120   11.1580 P.3       1 NAI660      0.0000 
      2 O1A        18.0090    5.8070   10.2700 O.co2     1 NAI660      0.0000 
      3 O2A        19.3450    7.8890   10.5530 O.co2     1 NAI660      0.0000 
      4 O5B        19.1830    6.3990   12.4630 O.3       1 NAI660      0.0000 
      5 C5B        18.9100    5.0970   13.0410 C.3       1 NAI660      0.0000 
      6 C4B        20.2230    4.4260   13.3350 C.3       1 NAI660      0.0000 
      7 O4B        19.8790    3.1710   13.9630 O.3       1 NAI660      0.0000 
      8 C3B        21.0660    4.0170   12.1070 C.3       1 NAI660      0.0000 
      9 O3B        22.3650    4.6050   12.1630 O.3       1 NAI660      0.0000 
     10 C2B        21.0620    2.4690   12.1840 C.3       1 NAI660      0.0000 
     11 O2B        22.3130    1.8880   11.7570 O.3       1 NAI660      0.0000 
     12 C1B        20.8710    2.2560   13.6720 C.3       1 NAI660      0.0000 
     13 N9A        20.3210    0.9590   14.0010 N.pl3     1 NAI660      0.0000 
     14 C8A        19.2630    0.2810   13.4180 C.2       1 NAI660      0.0000 
     15 N7A        18.8990   -0.8560   14.0420 N.2       1 NAI660      0.0000 
     16 C5A        19.7970   -0.8930   15.0980 C.ar      1 NAI660      0.0000 
     17 C6A        19.9820   -1.8680   16.1630 C.ar      1 NAI660      0.0000 
     18 N6A        19.2470   -3.0020   16.2470 N.pl3     1 NAI660      0.0000 
     19 N1A        20.9410   -1.5440   17.1370 N.ar      1 NAI660      0.0000 
     20 C2A        21.6670   -0.3370   17.0480 C.ar      1 NAI660      0.0000 
     21 N3A        21.6080    0.5720   16.0650 N.ar      1 NAI660      0.0000 
     22 C4A        20.6600    0.2450   15.1160 C.ar      1 NAI660      0.0000 
     23 O3         17.1380    7.5530   11.7400 O.3       1 NAI660      0.0000 
     24 PN         16.8280    8.7110   12.7890 P.3       1 NAI660      0.0000 
     25 O1N        16.5310    9.8650   11.9300 O.co2     1 NAI660      0.0000 
     26 O2N        17.9800    8.9340   13.6790 O.co2     1 NAI660      0.0000 
     27 O5D        15.4910    8.2090   13.4620 O.3       1 NAI660      0.0000 
     28 C5D        15.5270    7.1450   14.4380 C.3       1 NAI660      0.0000 
     29 C4D        14.1030    6.8670   14.9180 C.3       1 NAI660      0.0000 
     30 O4D        13.5820    8.0420   15.6220 O.3       1 NAI660      0.0000 
     31 C3D        13.1120    6.4570   13.8290 C.3       1 NAI660      0.0000 
     32 O3D        12.9320    5.0400   13.6910 O.3       1 NAI660      0.0000 
     33 C2D        11.8080    7.1790   14.2480 C.3       1 NAI660      0.0000 
     34 O2D        10.9850    6.2770   14.9920 O.3       1 NAI660      0.0000 
     35 C1D        12.2860    8.3410   15.1100 C.3       1 NAI660      0.0000 
     36 N1N        12.1420    9.7480   14.5340 N.pl3     1 NAI660      0.0000 
     37 C2N        13.1880   10.2620   13.7130 C.2       1 NAI660      0.0000 
     38 C3N        13.2590   11.6230   13.3950 C.2       1 NAI660      0.0000 
     39 C7N        14.2440   12.0850   12.3150 C.2       1 NAI660      0.0000 
     40 O7N        14.7770   13.1710   12.3970 O.2       1 NAI660      0.0000 
     41 N7N        14.5360   11.3020   11.2730 N.am      1 NAI660      0.0000 
     42 C4N        12.0840   12.4790   13.7120 C.3       1 NAI660      0.0000 
     43 C5N        10.9620   11.9380   14.4750 C.2       1 NAI660      0.0000 
     44 C6N        11.0040   10.6010   14.8790 C.2       1 NAI660      0.0000 
     45 H          18.3430    4.4737   12.3497 H         1 NAI660      0.0000 
     46 H          18.3474    5.1920   13.9696 H         1 NAI660      0.0000 
     47 H          20.8128    5.0067   13.9921 H         1 NAI660      0.0000 
     48 H          20.5006    4.2956   11.2396 H         1 NAI660      0.0000 
     49 H          20.2162    2.1150   11.6805 H         1 NAI660      0.0000 
     50 H          21.7625    2.4656   14.1745 H         1 NAI660      0.0000 
     51 H          18.8131    0.6276   12.5908 H         1 NAI660      0.0000 
     52 H          19.7011   -3.7910   16.6607 H         1 NAI660      0.0000 
     53 H          18.3152   -2.9500   15.8879 H         1 NAI660      0.0000 
     54 H          22.3382   -0.1490   17.8781 H         1 NAI660      0.0000 
     55 H          16.1293    7.4183   15.3048 H         1 NAI660      0.0000 
     56 H          15.9262    6.2246   14.0110 H         1 NAI660      0.0000 
     57 H          14.1545    6.0351   15.6466 H         1 NAI660      0.0000 
     58 H          13.4346    6.9322   12.9087 H         1 NAI660      0.0000 
     59 H          11.3531    7.5574   13.3762 H         1 NAI660      0.0000 
     60 H          11.5741    8.3176   16.0260 H         1 NAI660      0.0000 
     61 H          13.8994    9.6103   13.3526 H         1 NAI660      0.0000 
     62 H          15.2295   11.6497   10.6420 H         1 NAI660      0.0000 
     63 H          14.0349   10.4384   11.2175 H         1 NAI660      0.0000 
     64 H          11.6891   12.9082   12.7291 H         1 NAI660      0.0000 
     65 H          12.4679   13.4190   14.2366 H         1 NAI660      0.0000 
     66 H          10.1849   12.5415   14.6917 H         1 NAI660      0.0000 
     67 H          10.2449   10.1868   15.4230 H         1 NAI660      0.0000 
     68 H          22.7562    4.2864   13.0264 H         1 NAI660      0.0000 
     69 H          22.9271    1.9925   12.5393 H         1 NAI660      0.0000 
     70 H          13.6142    4.6323   14.2979 H         1 NAI660      0.0000 
     71 H          11.2974    5.3644   14.7283 H         1 NAI660      0.0000 
@<TRIPOS>BOND
     1    2    1 ar   
     2    3    1 ar   
     3    4    1 1    
     4   23    1 1    
     5    5    4 1    
     6    6    5 1    
     7   45    5 1    
     8   46    5 1    
     9    7    6 1    
    10    8    6 1    
    11   47    6 1    
    12   12    7 1    
    13    9    8 1    
    14   10    8 1    
    15   48    8 1    
    16   68    9 1    
    17   11   10 1    
    18   12   10 1    
    19   49   10 1    
    20   69   11 1    
    21   13   12 1    
    22   50   12 1    
    23   14   13 1    
    24   22   13 1    
    25   15   14 2    
    26   51   14 1    
    27   16   15 1    
    28   17   16 ar   
    29   22   16 ar   
    30   18   17 1    
    31   19   17 ar   
    32   52   18 1    
    33   53   18 1    
    34   20   19 ar   
    35   21   20 ar   
    36   54   20 1    
    37   22   21 ar   
    38   24   23 1    
    39   25   24 ar   
    40   26   24 ar   
    41   27   24 1    
    42   28   27 1    
    43   29   28 1    
    44   55   28 1    
    45   56   28 1    
    46   30   29 1    
    47   31   29 1    
    48   57   29 1    
    49   35   30 1    
    50   32   31 1    
    51   33   31 1    
    52   58   31 1    
    53   70   32 1    
    54   34   33 1    
    55   35   33 1    
    56   59   33 1    
    57   71   34 1    
    58   36   35 1    
    59   60   35 1    
    60   37   36 1    
    61   44   36 1    
    62   38   37 2    
    63   61   37 1    
    64   39   38 1    
    65   42   38 1    
    66   40   39 2    
    67   41   39 am   
    68   62   41 1    
    69   63   41 1    
    70   43   42 1    
    71   64   42 1    
    72   65   42 1    
    73   44   43 2    
    74   66   43 1    
    75   67   44 1    
@<TRIPOS>SUBSTRUCTURE
     1 NAI660      1 GROUP   
@<TRIPOS>SET

