#    Name: 2flr_7NH_1_INTS_M
#    Modification time : Tue Mar 25 12:52:59 2014

@<TRIPOS>MOLECULE
2flr_7NH_1_INTS_M
   63     0     6     0     0
SMALL
NO_CHARGES


@<TRIPOS>ATOM
      1 CA         44.4935   -7.2760   12.2505 C.3       2 GLC5        0.0000 
      2 CA         46.4130   -7.6110   12.1280 C.3       6 GLL5        0.0000 
      3 CA         42.5740   -6.9410   12.3730 C.3       4 GLP5        0.0000 
      4 CA         47.5585   -5.0325   10.6365 C.3       2 GLC5        0.0000 
      5 CA         47.4030   -6.9860   11.3620 C.3       6 GLL5        0.0000 
      6 CA         47.7140   -3.0790    9.9110 C.3       4 GLP5        0.0000 
      7 CA         48.8195   -6.9565   13.0320 C.3       2 GLC5        0.0000 
      8 CA         50.2360   -6.9270   14.7020 C.3       4 GLP5        0.0000 
      9 CA         46.1040   -9.8080   10.8215 C.3       2 GLC5        0.0000 
     10 CA         47.6490   -9.6670   12.1060 C.3       6 GLL5        0.0000 
     11 CA         44.5590   -9.9490    9.5370 C.3       4 GLP5        0.0000 
     12 CA         46.3285  -11.4855   12.1880 C.3       2 GLC5        0.0000 
     13 CA         45.0080  -13.3040   12.2700 C.3       4 GLP5        0.0000 
     14 O          49.5620   -5.9930   10.3385 O.2       1 ALC1        0.0000 
     15 O          49.5160   -7.4030   10.2960 O.2       5 ALL1        0.0000 
     16 O          49.6080   -4.5830   10.3810 O.2       3 ALP1        0.0000 
     17 O          51.6490   -5.0090    9.9415 O.2       1 ALC1        0.0000 
     18 O          51.1820   -5.9680    9.0090 O.2       5 ALL1        0.0000 
     19 O          52.1160   -4.0500   10.8740 O.2       3 ALP1        0.0000 
     20 CA         58.3065   -3.0790    8.3870 C.3       2 GLC5        0.0000 
     21 CA         56.9380   -4.0350    7.1660 C.3       6 GLL5        0.0000 
     22 CA         59.6750   -2.1230    9.6080 C.3       4 GLP5        0.0000 
     23 O          56.9690   -2.9575    8.9510 O.2       1 ALC1        0.0000 
     24 O          57.5030   -4.3370    8.5110 O.2       5 ALL1        0.0000 
     25 O          56.4350   -1.5780    9.3910 O.2       3 ALP1        0.0000 
     26 O          57.9525   -3.6320    9.9705 O.2       1 ALC1        0.0000 
     27 O          58.4020   -2.9270   11.4300 O.2       3 ALP1        0.0000 
     28 O          58.6105   -4.2250   10.6600 O.2       1 ALC1        0.0000 
     29 O          58.8190   -5.5230    9.8900 O.2       5 ALL1        0.0000 
     30 CA         45.7335   -8.6237   10.6410 C.3       2 GLC5        0.0000 
     31 CA         46.0070   -5.7652   11.8850 C.3       2 GLC5        0.0000 
     32 CA         45.1060   -4.2320   12.0250 C.3       4 GLP5        0.0000 
     33 CA         47.8200   -8.2850    9.4010 C.3       2 GLC5        0.0000 
     34 CA         47.7080   -9.2050    7.6150 C.3       4 GLP5        0.0000 
     35 CA         49.9192   -7.7160   12.3805 C.3       2 GLC5        0.0000 
     36 CA         48.4610   -7.7440   11.0120 C.3       6 GLL5        0.0000 
     37 CA         51.3050   -7.0460   13.5780 C.3       4 GLP5        0.0000 
     38 CA         48.7390   -9.0170    9.1184 C.3       2 GLC5        0.0000 
     39 CA         50.3550   -8.4160   10.1490 C.3       6 GLL5        0.0000 
     40 CA         51.0454   -7.8320   11.7655 C.3       2 GLC5        0.0000 
     41 CA         51.5120   -8.3000    9.4140 C.3       6 GLL5        0.0000 
     42 CA         52.8398   -9.6617    6.8662 C.3       2 GLC5        0.0000 
     43 CA         53.4650   -9.3890    8.5040 C.3       6 GLL5        0.0000 
     44 CA         52.0080  -10.5350    5.4950 C.3       4 GLP5        0.0000 
     45 CA         52.9805   -5.4718    9.5830 C.3       2 GLC5        0.0000 
     46 CA         53.1330   -7.0100    8.1370 C.3       6 GLL5        0.0000 
     47 CA         53.4180   -3.8900   10.6680 C.3       4 GLP5        0.0000 
     48 CA         50.9089   -8.8905    7.8357 C.3       2 GLC5        0.0000 
     49 CA         51.9530   -7.0970    8.8590 C.3       6 GLL5        0.0000 
     50 CA         49.8900   -9.7980    6.5840 C.3       4 GLP5        0.0000 
     51 CA         53.2990   -4.6387    8.9620 C.3       2 GLC5        0.0000 
     52 CA         53.6040   -5.8310    7.5910 C.3       6 GLL5        0.0000 
     53 CA         54.0535   -2.2805    4.8327 C.3       2 GLC5        0.0000 
     54 CA         53.2370   -3.7760    6.3440 C.3       6 GLL5        0.0000 
     55 CA         54.1930   -0.9320    3.2760 C.3       4 GLP5        0.0000 
     56 CA         53.6660   -3.7595    8.5287 C.3       2 GLC5        0.0000 
     57 CA         54.5910   -3.4820    6.4350 C.3       6 GLL5        0.0000 
     58 CA         52.3934   -2.7125    6.7709 C.3       2 GLC5        0.0000 
     59 CA         50.9930   -1.5040    7.0080 C.3       4 GLP5        0.0000 
     60 CA         54.3123   -4.4075    9.0243 C.3       2 GLC5        0.0000 
     61 CA         55.4540   -4.3460    7.0940 C.3       6 GLL5        0.0000 
     62 CA         54.4850   -2.2047    7.4039 C.3       2 GLC5        0.0000 
     63 CA         54.2860   -0.4220    8.0660 C.3       4 GLP5        0.0000 
@<TRIPOS>BOND
@<TRIPOS>SUBSTRUCTURE
     1 ALC1       14 GROUP        1 X    ALC  0     ROOT ALC X 1
     2 GLC5        1 GROUP        1 X    GLC  0     **** GLC X 6
     3 ALP1       16 GROUP        1 Y    ALP  0     ROOT ALP Y 8
     4 GLP5        3 GROUP        1 Y    GLP  0     **** GLP Y 13
     5 ALL1       15 GROUP        1 Z    ALL  0     ROOT ALL Z 15
     6 GLL5        2 GROUP        1 Z    GLL  0     **** GLL Z 20
@<TRIPOS>SET

