#    Name: 2flr_7NH_1_ligand
#    Modification time : Tue Mar 25 12:52:59 2014

@<TRIPOS>MOLECULE
2flr_7NH_1_ligand
   45    48     1     0     0
SMALL
NO_CHARGES


@<TRIPOS>ATOM
      1 N1         46.6130   -8.9030   12.4410 N.ar      1 7NH258      0.0000 
      2 C2         46.4130   -7.6110   12.1280 C.ar      1 7NH258      0.0000 
      3 C3         47.4030   -6.9860   11.3620 C.ar      1 7NH258      0.0000 
      4 C4         48.4610   -7.7440   11.0120 C.ar      1 7NH258      0.0000 
      5 C5         48.6060   -9.0280   11.3540 C.ar      1 7NH258      0.0000 
      6 C6         47.6490   -9.6670   12.1060 C.ar      1 7NH258      0.0000 
      7 N3         49.5160   -7.4030   10.2960 N.pl3     1 7NH258      0.0000 
      8 CN4        49.7640   -9.4560   10.8350 C.2       1 7NH258      0.0000 
      9 C8         50.3550   -8.4160   10.1490 C.2       1 7NH258      0.0000 
     10 C1'        51.5120   -8.3000    9.4140 C.ar      1 7NH258      0.0000 
     11 C2'        52.2930   -9.4380    9.2180 C.ar      1 7NH258      0.0000 
     12 C3'        53.4650   -9.3890    8.5040 C.ar      1 7NH258      0.0000 
     13 C4'        53.8780   -8.1880    7.9710 C.ar      1 7NH258      0.0000 
     14 C5'        53.1330   -7.0100    8.1370 C.ar      1 7NH258      0.0000 
     15 C6'        51.9530   -7.0970    8.8590 C.ar      1 7NH258      0.0000 
     16 O6'        51.1820   -5.9680    9.0090 O.3       1 7NH258      0.0000 
     17 C1B        53.6040   -5.8310    7.5910 C.ar      1 7NH258      0.0000 
     18 C2B        52.7560   -4.9440    6.9210 C.ar      1 7NH258      0.0000 
     19 C3B        53.2370   -3.7760    6.3440 C.ar      1 7NH258      0.0000 
     20 C4B        54.5910   -3.4820    6.4350 C.ar      1 7NH258      0.0000 
     21 C5B        55.4540   -4.3460    7.0940 C.ar      1 7NH258      0.0000 
     22 C6B        54.9590   -5.5040    7.6670 C.ar      1 7NH258      0.0000 
     23 C51        56.9380   -4.0350    7.1660 C.3       1 7NH258      0.0000 
     24 N52        57.5030   -4.3370    8.5110 N.am      1 7NH258      0.0000 
     25 C53        58.3490   -5.3150    8.6900 C.2       1 7NH258      0.0000 
     26 O53        58.7140   -6.0480    7.7960 O.2       1 7NH258      0.0000 
     27 N54        58.8190   -5.5230    9.8900 N.am      1 7NH258      0.0000 
     28 H          45.5936   -7.0914   12.4200 H         1 7NH258      0.0000 
     29 H          47.3066   -6.0156   11.0977 H         1 7NH258      0.0000 
     30 H          47.7452  -10.6308   12.3687 H         1 7NH258      0.0000 
     31 H          49.6645   -6.4949    9.9123 H         1 7NH258      0.0000 
     32 H          50.1418  -10.3399   10.9147 H         1 7NH258      0.0000 
     33 H          51.9729  -10.3407    9.6256 H         1 7NH258      0.0000 
     34 H          54.0289  -10.2377    8.3679 H         1 7NH258      0.0000 
     35 H          54.7652   -8.1409    7.4285 H         1 7NH258      0.0000 
     36 H          51.7444   -5.1672    6.8556 H         1 7NH258      0.0000 
     37 H          52.6005   -3.1390    5.8571 H         1 7NH258      0.0000 
     38 H          54.9572   -2.6160    6.0101 H         1 7NH258      0.0000 
     39 H          55.6046   -6.1467    8.1651 H         1 7NH258      0.0000 
     40 H          57.0888   -2.9736    6.9268 H         1 7NH258      0.0000 
     41 H          57.4603   -4.6242    6.4002 H         1 7NH258      0.0000 
     42 H          57.1677   -3.7115    9.2701 H         1 7NH258      0.0000 
     43 H          58.4986   -4.8986   10.6024 H         1 7NH258      0.0000 
     44 H          59.4563   -6.2876    9.9866 H         1 7NH258      0.0000 
     45 H          51.7982   -5.2840    9.3993 H         1 7NH258      0.0000 
@<TRIPOS>BOND
     1    2    1 ar   
     2    6    1 ar   
     3    3    2 ar   
     4   28    2 1    
     5    4    3 ar   
     6   29    3 1    
     7    5    4 ar   
     8    7    4 1    
     9    6    5 ar   
    10    8    5 1    
    11   30    6 1    
    12    9    7 1    
    13   31    7 1    
    14    9    8 2    
    15   32    8 1    
    16   10    9 1    
    17   11   10 ar   
    18   15   10 ar   
    19   12   11 ar   
    20   33   11 1    
    21   13   12 ar   
    22   34   12 1    
    23   14   13 ar   
    24   35   13 1    
    25   15   14 ar   
    26   17   14 1    
    27   16   15 1    
    28   45   16 1    
    29   18   17 ar   
    30   22   17 ar   
    31   19   18 ar   
    32   36   18 1    
    33   20   19 ar   
    34   37   19 1    
    35   21   20 ar   
    36   38   20 1    
    37   22   21 ar   
    38   23   21 1    
    39   39   22 1    
    40   24   23 1    
    41   40   23 1    
    42   41   23 1    
    43   25   24 am   
    44   42   24 1    
    45   26   25 2    
    46   27   25 am   
    47   43   27 1    
    48   44   27 1    
@<TRIPOS>SUBSTRUCTURE
     1 7NH258      1 GROUP   
@<TRIPOS>SET

