#    Name: 3IAL_1_CAVITY_N1_6.mol2
#    Modification time : Tue Mar 11 01:56:19 2014

@<TRIPOS>MOLECULE
3IAL_1_CAVITY_N1_6.mol2
  167     0     7     0     0
SMALL
NO_CHARGES


@<TRIPOS>ATOM
      1 N          54.0295   85.3312    8.0160 N.2       2 ALA2        0.0000 
      2 O          55.7358   84.9480    9.9374 O.2       2 ALA2        0.0000 
      3 O          52.4643   85.4943    9.4385 O.2       2 ALA2        0.0000 
      4 N          53.7202   84.6812    9.3320 N.2       2 ALA2        0.0000 
      5 OG         54.9762   83.8680    9.2255 O.2       1 SER1        0.0000 
      6 O          51.7047   84.4144    8.7266 O.2       2 ALA2        0.0000 
      7 N          52.9607   83.6012    8.6201 N.2       2 ALA2        0.0000 
      8 OG         54.2166   82.7881    8.5136 O.2       1 SER1        0.0000 
      9 OG         57.9845   80.3487    8.1941 O.2       1 SER1        0.0000 
     10 CZ         49.2119   82.6275   14.0972 C.ar      5 PHE5        0.0000 
     11 CZ         50.4678   81.8144   13.9907 C.ar      5 PHE5        0.0000 
     12 O          51.7238   81.0012   13.8841 O.2       2 ALA2        0.0000 
     13 O          47.1963   82.3607   13.4918 O.2       2 ALA2        0.0000 
     14 O          48.4523   81.5476   13.3853 O.2       2 ALA2        0.0000 
     15 O          49.7083   80.7344   13.2788 O.2       2 ALA2        0.0000 
     16 DU         50.9642   79.9213   13.1723 H         7 CUB7        0.0000 
     17 O          52.2202   79.1081   13.0658 O.2       2 ALA2        0.0000 
     18 CA         55.9881   76.6687   12.7462 C.3       6 GLY6        0.0000 
     19 N          46.4368   81.2807   12.7799 N.2       2 ALA2        0.0000 
     20 N          47.6927   80.4676   12.6734 N.2       2 ALA2        0.0000 
     21 N          48.9487   79.6545   12.5669 N.2       2 ALA2        0.0000 
     22 DU         50.2047   78.8413   12.4604 H         7 CUB7        0.0000 
     23 DU         51.4606   78.0282   12.3539 H         7 CUB7        0.0000 
     24 O          52.7166   77.2150   12.2474 O.2       2 ALA2        0.0000 
     25 O          53.9726   76.4019   12.1408 O.2       2 ALA2        0.0000 
     26 OG         55.2285   75.5887   12.0343 O.2       1 SER1        0.0000 
     27 N          46.9332   79.3877   11.9615 N.2       2 ALA2        0.0000 
     28 N          48.1892   78.5745   11.8550 N.2       2 ALA2        0.0000 
     29 DU         49.4451   77.7614   11.7485 H         7 CUB7        0.0000 
     30 DU         51.9571   76.1351   11.5355 H         7 CUB7        0.0000 
     31 DU         53.2130   75.3219   11.4290 H         7 CUB7        0.0000 
     32 OG         54.4690   74.5088   11.3224 O.2       1 SER1        0.0000 
     33 DU         51.1975   75.0551   10.8236 H         7 CUB7        0.0000 
     34 DU         52.4535   74.2420   10.7171 H         7 CUB7        0.0000 
     35 DU         53.7094   73.4288   10.6106 H         7 CUB7        0.0000 
     36 CA         54.9654   72.6157   10.5040 C.3       6 GLY6        0.0000 
     37 O          54.2058   71.5357    9.7922 O.2       2 ALA2        0.0000 
     38 NZ         54.2656   87.2141   17.5501 N.2       4 LYS4        0.0000 
     39 CA         52.2501   86.9473   16.9447 C.3       6 GLY6        0.0000 
     40 NZ         53.5061   86.1342   16.8382 N.2       4 LYS4        0.0000 
     41 CA         51.4905   85.8674   16.2328 C.3       6 GLY6        0.0000 
     42 CZ         52.7465   85.0542   16.1263 C.ar      5 PHE5        0.0000 
     43 CZ         51.9870   83.9743   15.4144 C.ar      5 PHE5        0.0000 
     44 CZ         53.2429   83.1611   15.3079 C.ar      5 PHE5        0.0000 
     45 CZ         51.2274   82.8943   14.7025 C.ar      5 PHE5        0.0000 
     46 O          52.4834   82.0812   14.5960 O.2       2 ALA2        0.0000 
     47 CA         53.2591   72.9989    8.5827 C.3       6 GLY6        0.0000 
     48 CA         52.5593   87.5973   15.6287 C.3       6 GLY6        0.0000 
     49 CA         53.8153   86.7842   15.5222 C.3       6 GLY6        0.0000 
     50 N          51.7998   86.5174   14.9168 N.2       2 ALA2        0.0000 
     51 CZ         53.0557   85.7042   14.8103 C.ar      5 PHE5        0.0000 
     52 N          52.2962   84.6243   14.0984 N.2       2 ALA2        0.0000 
     53 CZ         53.5521   83.8111   13.9919 C.ar      5 PHE5        0.0000 
     54 N          51.5366   83.5443   13.3865 N.2       2 ALA2        0.0000 
     55 DU         52.7926   82.7312   13.2800 H         7 CUB7        0.0000 
     56 O          54.0485   81.9180   13.1735 O.2       2 ALA2        0.0000 
     57 O          49.5211   83.2775   12.7812 O.2       2 ALA2        0.0000 
     58 O          50.7771   82.4644   12.6747 O.2       2 ALA2        0.0000 
     59 O          52.0330   81.6512   12.5681 O.2       2 ALA2        0.0000 
     60 O          53.2890   80.8381   12.4616 O.2       2 ALA2        0.0000 
     61 O          54.5450   80.0249   12.3551 O.2       2 ALA2        0.0000 
     62 O          55.8009   79.2118   12.2486 O.2       2 ALA2        0.0000 
     63 O          51.2735   80.5713   11.8563 O.2       2 ALA2        0.0000 
     64 O          52.5294   79.7581   11.7497 O.2       2 ALA2        0.0000 
     65 O          53.7854   78.9450   11.6432 O.2       2 ALA2        0.0000 
     66 O          55.0414   78.1318   11.5367 O.2       2 ALA2        0.0000 
     67 CA         56.2973   77.3187   11.4302 C.3       6 GLY6        0.0000 
     68 N          57.5533   76.5056   11.3237 N.2       2 ALA2        0.0000 
     69 N          50.5139   79.4913   11.1444 N.2       2 ALA2        0.0000 
     70 DU         51.7699   78.6782   11.0379 H         7 CUB7        0.0000 
     71 O          53.0258   77.8650   10.9313 O.2       2 ALA2        0.0000 
     72 O          54.2818   77.0519   10.8248 O.2       2 ALA2        0.0000 
     73 OG         55.5378   76.2387   10.7183 O.2       1 SER1        0.0000 
     74 OG         56.7937   75.4256   10.6118 O.2       1 SER1        0.0000 
     75 N          49.7543   78.4114   10.4325 N.2       2 ALA2        0.0000 
     76 O          51.0103   77.5982   10.3260 O.2       2 ALA2        0.0000 
     77 O          52.2663   76.7851   10.2195 O.2       2 ALA2        0.0000 
     78 O          53.5222   75.9719   10.1129 O.2       2 ALA2        0.0000 
     79 O          54.7782   75.1588   10.0064 O.2       2 ALA2        0.0000 
     80 CA         56.0342   74.3457    9.8999 C.3       6 GLY6        0.0000 
     81 DU         50.2507   76.5183    9.6141 H         7 CUB7        0.0000 
     82 O          51.5067   75.7051    9.5076 O.2       2 ALA2        0.0000 
     83 O          52.7627   74.8920    9.4011 O.2       2 ALA2        0.0000 
     84 CA         54.0186   74.0788    9.2946 C.3       6 GLY6        0.0000 
     85 CA         55.2746   73.2657    9.1880 C.3       6 GLY6        0.0000 
     86 CZ         49.8494   80.5144   16.6227 C.ar      5 PHE5        0.0000 
     87 CZ         51.1054   79.7012   16.5162 C.ar      5 PHE5        0.0000 
     88 CA         47.8339   80.2475   16.0173 C.3       6 GLY6        0.0000 
     89 CA         49.0898   79.4344   15.9108 C.3       6 GLY6        0.0000 
     90 CZ         50.3458   78.6213   15.8043 C.ar      5 PHE5        0.0000 
     91 O          51.6018   77.8081   15.6978 O.2       2 ALA2        0.0000 
     92 O          52.8577   76.9950   15.5913 O.2       2 ALA2        0.0000 
     93 N          47.0743   79.1676   15.3054 N.2       2 ALA2        0.0000 
     94 DU         48.3303   78.3545   15.1989 H         7 CUB7        0.0000 
     95 DU         49.5862   77.5413   15.0924 H         7 CUB7        0.0000 
     96 DU         50.8422   76.7282   14.9859 H         7 CUB7        0.0000 
     97 N          54.1706   85.1111   11.3599 N.2       2 ALA2        0.0000 
     98 CZ         55.4265   84.2980   11.2534 C.ar      5 PHE5        0.0000 
     99 O          52.1551   84.8443   10.7545 O.2       2 ALA2        0.0000 
    100 N          53.4110   84.0312   10.6480 N.2       2 ALA2        0.0000 
    101 DU         54.6670   83.2180   10.5415 H         7 CUB7        0.0000 
    102 CA         55.9230   82.4049   10.4350 C.3       6 GLY6        0.0000 
    103 CA         57.1789   81.5917   10.3285 C.3       6 GLY6        0.0000 
    104 O          52.6515   82.9512    9.9361 O.2       2 ALA2        0.0000 
    105 DU         53.9074   82.1381    9.8296 H         7 CUB7        0.0000 
    106 OG         55.1634   81.3249    9.7231 O.2       1 SER1        0.0000 
    107 OG         56.4194   80.5118    9.6166 O.2       1 SER1        0.0000 
    108 CA         57.6753   79.6987    9.5101 C.3       6 GLY6        0.0000 
    109 CA         58.9313   78.8855    9.4035 C.3       6 GLY6        0.0000 
    110 N          51.8919   81.8713    9.2242 N.2       2 ALA2        0.0000 
    111 O          53.1479   81.0581    9.1177 O.2       2 ALA2        0.0000 
    112 OD1        54.4038   80.2450    9.0112 O.3       3 ASP3        0.0000 
    113 O          55.6598   79.4318    8.9047 O.2       2 ALA2        0.0000 
    114 N          56.9158   78.6187    8.7982 N.2       2 ALA2        0.0000 
    115 O          58.1717   77.8056    8.6917 O.2       2 ALA2        0.0000 
    116 O          49.6132   78.6314    7.0886 O.2       2 ALA2        0.0000 
    117 CA         50.0366   77.9713   17.1203 C.3       6 GLY6        0.0000 
    118 CZ         51.2925   77.1581   17.0138 C.ar      5 PHE5        0.0000 
    119 N          46.1276   80.6307   14.0959 N.2       2 ALA2        0.0000 
    120 N          47.3835   79.8176   13.9894 N.2       2 ALA2        0.0000 
    121 DU         48.6395   79.0045   13.8829 H         7 CUB7        0.0000 
    122 DU         49.8955   78.1913   13.7764 H         7 CUB7        0.0000 
    123 O          51.1514   77.3782   13.6699 O.2       2 ALA2        0.0000 
    124 O          52.4074   76.5650   13.5634 O.2       2 ALA2        0.0000 
    125 NZ         53.6634   75.7519   13.4568 N.2       4 LYS4        0.0000 
    126 NZ         46.6240   78.7377   13.2775 N.2       4 LYS4        0.0000 
    127 DU         47.8799   77.9245   13.1710 H         7 CUB7        0.0000 
    128 DU         51.6478   75.4851   12.8515 H         7 CUB7        0.0000 
    129 NZ         52.9038   74.6719   12.7450 N.2       4 LYS4        0.0000 
    130 NZ         54.1598   73.8588   12.6384 N.2       4 LYS4        0.0000 
    131 NZ         53.4002   72.7788   11.9266 N.2       4 LYS4        0.0000 
    132 CA         54.6562   71.9657   11.8201 C.3       6 GLY6        0.0000 
    133 CZ         52.1741   81.4312   15.9120 C.ar      5 PHE5        0.0000 
    134 CZ         50.1586   81.1644   15.3067 C.ar      5 PHE5        0.0000 
    135 O          51.4146   80.3512   15.2002 O.2       2 ALA2        0.0000 
    136 O          46.8871   81.7107   14.8078 O.2       2 ALA2        0.0000 
    137 CA         48.1431   80.8976   14.7013 C.3       6 GLY6        0.0000 
    138 DU         49.3991   80.0844   14.5948 H         7 CUB7        0.0000 
    139 DU         50.6550   79.2713   14.4883 H         7 CUB7        0.0000 
    140 O          51.9110   78.4581   14.3818 O.2       2 ALA2        0.0000 
    141 CA         53.3650   86.3542   13.4943 C.3       6 GLY6        0.0000 
    142 CA         52.6054   85.2743   12.7824 C.3       6 GLY6        0.0000 
    143 CZ         53.8614   84.4611   12.6759 C.ar      5 PHE5        0.0000 
    144 O          51.8458   84.1943   12.0705 O.2       2 ALA2        0.0000 
    145 DU         53.1018   83.3812   11.9640 H         7 CUB7        0.0000 
    146 CZ         54.3578   82.5680   11.8575 C.ar      5 PHE5        0.0000 
    147 CZ         55.6137   81.7549   11.7510 C.ar      5 PHE5        0.0000 
    148 CA         56.8697   80.9417   11.6445 C.3       6 GLY6        0.0000 
    149 O          52.3422   82.3012   11.2521 O.2       2 ALA2        0.0000 
    150 DU         53.5982   81.4881   11.1456 H         7 CUB7        0.0000 
    151 DU         54.8542   80.6749   11.0391 H         7 CUB7        0.0000 
    152 CA         56.1101   79.8618   10.9326 C.3       6 GLY6        0.0000 
    153 O          51.5827   81.2213   10.5402 O.2       2 ALA2        0.0000 
    154 O          52.8386   80.4081   10.4337 O.2       2 ALA2        0.0000 
    155 OD1        54.0946   79.5950   10.3272 O.3       3 ASP3        0.0000 
    156 O          55.3506   78.7818   10.2207 O.2       2 ALA2        0.0000 
    157 CA         56.6065   77.9687   10.1142 C.3       6 GLY6        0.0000 
    158 N          57.8625   77.1556   10.0077 N.2       2 ALA2        0.0000 
    159 O          50.8231   80.1413    9.8284 O.2       2 ALA2        0.0000 
    160 O          52.0791   79.3282    9.7219 O.2       2 ALA2        0.0000 
    161 O          53.3351   78.5150    9.6153 O.2       2 ALA2        0.0000 
    162 O          55.8470   76.8888    9.4023 O.2       2 ALA2        0.0000 
    163 O          57.1030   76.0756    9.2958 O.2       2 ALA2        0.0000 
    164 O          50.0636   79.0614    9.1165 O.2       2 ALA2        0.0000 
    165 O          55.0874   75.8088    8.6904 O.2       2 ALA2        0.0000 
    166 CA         56.3434   74.9957    8.5839 C.3       6 GLY6        0.0000 
    167 O          50.5600   77.1683    8.2981 O.2       2 ALA2        0.0000 
@<TRIPOS>BOND
@<TRIPOS>SUBSTRUCTURE
     1 SER1        5 GROUP   
     2 ALA2        1 GROUP   
     3 ASP3      112 GROUP   
     4 LYS4       38 GROUP   
     5 PHE5       10 GROUP   
     6 GLY6       18 GROUP   
     7 CUB7       16 GROUP   
@<TRIPOS>SET

