#    Name: 3ial_PR8_1_INTS_M
#    Modification time : Tue Mar 25 16:08:47 2014

@<TRIPOS>MOLECULE
3ial_PR8_1_INTS_M
   74     0    12     0     0
SMALL
NO_CHARGES


@<TRIPOS>ATOM
      1 OD1        54.0505   85.4130   19.2270 O.co2     3 ASC3        0.0000 
      2 OD1        53.7310   85.9300   17.4620 O.co2    11 ASL3        0.0000 
      3 OD1        54.3700   84.8960   20.9920 O.co2     7 ASP3        0.0000 
      4 OD1        53.4625   86.1730   18.7105 O.co2     3 ASC3        0.0000 
      5 OD1        53.1940   86.4160   19.9590 O.co2     7 ASP3        0.0000 
      6 N          58.8220   76.6180    8.1565 N.am      2 SEC2        0.0000 
      7 N          58.0160   78.0200    8.4510 N.am     10 SEL2        0.0000 
      8 N          59.6280   75.2160    7.8620 N.am      6 SEP2        0.0000 
      9 CA         59.7145   78.3000    7.8705 C.3       4 GLC5        0.0000 
     10 CA         58.0290   79.2070    7.8470 C.3      12 GLL5        0.0000 
     11 CA         61.4000   77.3930    7.8940 C.3       8 GLP5        0.0000 
     12 CA         59.0905   80.0595    9.0845 C.3       4 GLC5        0.0000 
     13 CA         60.1520   80.9120   10.3220 C.3       8 GLP5        0.0000 
     14 CA         56.8985   80.1395    6.4595 C.3       4 GLC5        0.0000 
     15 CA         55.7680   81.0720    5.0720 C.3       8 GLP5        0.0000 
     16 N          57.3285   81.5740    7.8860 N.am      2 SEC2        0.0000 
     17 N          57.2340   80.1960    8.2390 N.am     10 SEL2        0.0000 
     18 N          57.4230   82.9520    7.5330 N.am      6 SEP2        0.0000 
     19 CA         58.2700   80.4725    9.7920 C.3       4 GLC5        0.0000 
     20 CA         56.3880   80.0330    9.2620 C.3      12 GLL5        0.0000 
     21 CA         57.2580   81.8660    8.8830 C.3       4 GLC5        0.0000 
     22 CA         58.1280   83.6990    8.5040 C.3       8 GLP5        0.0000 
     23 CA         55.4485   80.3900    7.5315 C.3       4 GLC5        0.0000 
     24 CA         54.5090   80.7470    5.8010 C.3       8 GLP5        0.0000 
     25 CA         57.4515   76.3400    7.9575 C.3       4 GLC5        0.0000 
     26 CA         57.1980   77.7820    9.4890 C.3      12 GLL5        0.0000 
     27 CA         57.7050   74.8980    6.4260 C.3       8 GLP5        0.0000 
     28 O          58.5490   75.9175   10.3300 O.2       1 ALC1        0.0000 
     29 O          57.1940   76.5950   10.1040 O.2       9 ALL1        0.0000 
     30 O          59.9040   75.2400   10.5560 O.2       5 ALP1        0.0000 
     31 CA         54.6805   85.2140   15.9790 C.3       4 GLC5        0.0000 
     32 CA         52.6760   86.0580   16.4230 C.3      12 GLL5        0.0000 
     33 CA         56.6850   84.3700   15.5350 C.3       8 GLP5        0.0000 
     34 CA         52.0650   84.8170   17.7385 C.3       4 GLC5        0.0000 
     35 CA         51.4540   83.5760   19.0540 C.3       8 GLP5        0.0000 
     36 CA         55.0695   87.9945   18.6880 C.3       4 GLC5        0.0000 
     37 CA         54.7170   86.9670   17.1530 C.3      12 GLL5        0.0000 
     38 CA         55.4220   89.0220   20.2230 C.3       8 GLP5        0.0000 
     39 CA         52.8890   87.8750   17.8725 C.3       4 GLC5        0.0000 
     40 CA         51.0610   88.7830   18.5920 C.3       8 GLP5        0.0000 
     41 CA         56.6475   82.9690    9.0160 C.3       4 GLC5        0.0000 
     42 CA         55.1670   82.2390    9.5280 C.3      12 GLL5        0.0000 
     43 N          50.5040   85.3945   14.6445 N.am      2 SEC2        0.0000 
     44 N          51.7750   84.8120   14.5070 N.am     10 SEL2        0.0000 
     45 N          49.2330   85.9770   14.7820 N.am      6 SEP2        0.0000 
     46 O          52.7195   82.8810    7.1225 O.2       1 ALC1        0.0000 
     47 O          53.8650   83.6040    7.9950 O.2       9 ALL1        0.0000 
     48 O          51.5740   82.1580    6.2500 O.2       5 ALP1        0.0000 
     49 N          50.5595   83.4105    9.9430 N.am      2 SEC2        0.0000 
     50 N          51.9240   83.8510    9.5720 N.am     10 SEL2        0.0000 
     51 N          49.1950   82.9700   10.3140 N.am      6 SEP2        0.0000 
     52 CA         55.7380   84.1865   11.9490 C.3       4 GLC5        0.0000 
     53 CA         54.0770   83.9300   10.6820 C.3      12 GLL5        0.0000 
     54 CA         57.3990   84.4430   13.2160 C.3       8 GLP5        0.0000 
     55 CA         55.0500   84.2945   13.1190 C.3       4 GLC5        0.0000 
     56 CA         53.6660   84.4370   12.0600 C.3      12 GLL5        0.0000 
     57 CA         56.4340   84.1520   14.1780 C.3       8 GLP5        0.0000 
     58 CA         54.1430   86.3680   12.2205 C.3       4 GLC5        0.0000 
     59 CA         54.6200   88.2990   12.3810 C.3       8 GLP5        0.0000 
     60 CA         58.0360   78.3768   10.9905 C.3       4 GLC5        0.0000 
     61 CA         56.3560   78.8030    9.9130 C.3      12 GLL5        0.0000 
     62 CA         59.2950   78.4610   12.2800 C.3       8 GLP5        0.0000 
     63 CA         51.0840   86.8328   15.8342 C.3       4 GLC5        0.0000 
     64 CA         49.3160   87.0120   15.6830 C.3       8 GLP5        0.0000 
     65 CA         51.9565   87.7182   17.2888 C.3       4 GLC5        0.0000 
     66 CA         53.1082   89.0425   14.8950 C.3       4 GLC5        0.0000 
     67 CA         53.0280   87.2490   15.5480 C.3      12 GLL5        0.0000 
     68 CA         52.4390   90.8140   14.1800 C.3       8 GLP5        0.0000 
     69 CA         54.1987   87.7850   13.9955 C.3       4 GLC5        0.0000 
     70 CA         55.6535   85.7500   15.9738 C.3       4 GLC5        0.0000 
     71 CA         54.5270   87.2930   15.6720 C.3      12 GLL5        0.0000 
     72 CA         56.2490   87.9040   16.2888 C.3       4 GLC5        0.0000 
     73 CA         57.8760   88.6780   16.1650 C.3       8 GLP5        0.0000 
     74 CA         54.4898   81.5607    7.5120 C.3       4 GLC5        0.0000 
@<TRIPOS>BOND
@<TRIPOS>SUBSTRUCTURE
     1 ALC1       28 GROUP        1 X    ALC  0     ROOT ALC X 1
     2 SEC2        6 GROUP        1 X    SEC  0     **** SEC X 2
     3 ASC3        1 GROUP        1 X    ASC  0     **** ASC X 3
     4 GLC5        9 GROUP        1 X    GLC  0     **** GLC X 6
     5 ALP1       30 GROUP        1 Y    ALP  0     ROOT ALP Y 8
     6 SEP2        8 GROUP        1 Y    SEP  0     **** SEP Y 9
     7 ASP3        3 GROUP        1 Y    ASP  0     **** ASP Y 10
     8 GLP5       11 GROUP        1 Y    GLP  0     **** GLP Y 13
     9 ALL1       29 GROUP        1 Z    ALL  0     ROOT ALL Z 15
    10 SEL2        7 GROUP        1 Z    SEL  0     **** SEL Z 16
    11 ASL3        2 GROUP        1 Z    ASL  0     **** ASL Z 17
    12 GLL5       10 GROUP        1 Z    GLL  0     **** GLL Z 20
@<TRIPOS>SET

