#    Name: 3ial_PR8_1_ligand
#    Modification time : Tue Mar 25 16:08:47 2014

@<TRIPOS>MOLECULE
3ial_PR8_1_ligand
   49    52     1     0     0
SMALL
NO_CHARGES


@<TRIPOS>ATOM
      1 C          52.6970   84.8030   15.5210 C.2       1 PR8601      0.0000 
      2 N          53.7310   85.9300   17.4620 N.4       1 PR8601      0.0000 
      3 O          53.5010   83.8950   15.7450 O.2       1 PR8601      0.0000 
      4 P          51.7710   83.4670   13.5840 P.3       1 PR8601      0.0000 
      5 N1         58.0160   78.0200    8.4510 N.ar      1 PR8601      0.0000 
      6 C2         58.0290   79.2070    7.8470 C.ar      1 PR8601      0.0000 
      7 N3         57.2340   80.1960    8.2390 N.ar      1 PR8601      0.0000 
      8 C4         56.3880   80.0330    9.2620 C.ar      1 PR8601      0.0000 
      9 C5         56.3560   78.8030    9.9130 C.ar      1 PR8601      0.0000 
     10 C6         57.1980   77.7820    9.4890 C.ar      1 PR8601      0.0000 
     11 N6         57.1940   76.5950   10.1040 N.pl3     1 PR8601      0.0000 
     12 N7         55.4590   78.8900   10.8850 N.2       1 PR8601      0.0000 
     13 C8         54.9370   80.1170   10.8500 C.2       1 PR8601      0.0000 
     14 N9         55.4950   80.8220    9.8590 N.pl3     1 PR8601      0.0000 
     15 CA         52.6760   86.0580   16.4230 C.3       1 PR8601      0.0000 
     16 CB         53.0280   87.2490   15.5480 C.3       1 PR8601      0.0000 
     17 CD         54.7170   86.9670   17.1530 C.3       1 PR8601      0.0000 
     18 CG         54.5270   87.2930   15.6720 C.3       1 PR8601      0.0000 
     19 C1'        55.1670   82.2390    9.5280 C.3       1 PR8601      0.0000 
     20 O10        51.7750   84.8120   14.5070 O.3       1 PR8601      0.0000 
     21 O1P        51.3350   82.2640   14.3260 O.co2     1 PR8601      0.0000 
     22 C2'        53.7740   82.5100    8.9180 C.3       1 PR8601      0.0000 
     23 O2'        53.8650   83.6040    7.9950 O.3       1 PR8601      0.0000 
     24 O2P        50.7660   83.8390   12.3710 O.co2     1 PR8601      0.0000 
     25 C3'        52.9920   83.0440   10.0810 C.3       1 PR8601      0.0000 
     26 O3'        51.9240   83.8510    9.5720 O.3       1 PR8601      0.0000 
     27 C4'        54.0770   83.9300   10.6820 C.3       1 PR8601      0.0000 
     28 O4'        55.2000   83.0220   10.7670 O.3       1 PR8601      0.0000 
     29 C5'        53.6660   84.4370   12.0600 C.3       1 PR8601      0.0000 
     30 O5'        53.2380   83.3620   12.9110 O.3       1 PR8601      0.0000 
     31 H          58.6900   79.3644    7.0345 H         1 PR8601      0.0000 
     32 H          58.0513   76.0810   10.0741 H         1 PR8601      0.0000 
     33 H          56.3341   76.3276   10.5388 H         1 PR8601      0.0000 
     34 H          54.2467   80.4546   11.4590 H         1 PR8601      0.0000 
     35 H          51.7283   86.1802   16.8392 H         1 PR8601      0.0000 
     36 H          52.5996   88.1273   15.9502 H         1 PR8601      0.0000 
     37 H          52.7471   87.0537   14.5482 H         1 PR8601      0.0000 
     38 H          55.7203   86.6086   17.3007 H         1 PR8601      0.0000 
     39 H          54.5392   87.8588   17.7274 H         1 PR8601      0.0000 
     40 H          54.8859   88.2641   15.4755 H         1 PR8601      0.0000 
     41 H          54.9689   86.5377   15.0848 H         1 PR8601      0.0000 
     42 H          55.9099   82.6512    8.8530 H         1 PR8601      0.0000 
     43 H          53.3636   81.6584    8.5555 H         1 PR8601      0.0000 
     44 H          52.7466   82.3002   10.7219 H         1 PR8601      0.0000 
     45 H          54.2715   84.7237   10.0229 H         1 PR8601      0.0000 
     46 H          52.8640   85.1809   11.9197 H         1 PR8601      0.0000 
     47 H          54.5277   84.9721   12.4927 H         1 PR8601      0.0000 
     48 H          53.2184   83.3814    7.2654 H         1 PR8601      0.0000 
     49 H          51.3248   84.0118   10.3563 H         1 PR8601      0.0000 
@<TRIPOS>BOND
     1    3    1 2    
     2   15    1 1    
     3   20    1 1    
     4   15    2 1    
     5   17    2 1    
     6   20    4 1    
     7   21    4 ar   
     8   24    4 ar   
     9   30    4 1    
    10    6    5 ar   
    11   10    5 ar   
    12    7    6 ar   
    13   31    6 1    
    14    8    7 ar   
    15    9    8 ar   
    16   14    8 1    
    17   10    9 ar   
    18   12    9 1    
    19   11   10 1    
    20   32   11 1    
    21   33   11 1    
    22   13   12 2    
    23   14   13 1    
    24   34   13 1    
    25   19   14 1    
    26   16   15 1    
    27   35   15 1    
    28   18   16 1    
    29   36   16 1    
    30   37   16 1    
    31   18   17 1    
    32   38   17 1    
    33   39   17 1    
    34   40   18 1    
    35   41   18 1    
    36   22   19 1    
    37   28   19 1    
    38   42   19 1    
    39   23   22 1    
    40   25   22 1    
    41   43   22 1    
    42   48   23 1    
    43   26   25 1    
    44   27   25 1    
    45   44   25 1    
    46   49   26 1    
    47   28   27 1    
    48   29   27 1    
    49   45   27 1    
    50   30   29 1    
    51   46   29 1    
    52   47   29 1    
@<TRIPOS>SUBSTRUCTURE
     1 PR8601      1 GROUP   
@<TRIPOS>SET

