#    Name: 1IKG_1_CAVITY_N1_ALL.mol2
#    Modification time : Tue Mar 11 08:18:18 2014

@<TRIPOS>MOLECULE
1IKG_1_CAVITY_N1_ALL.mol2
  117     0     5     0     0
SMALL
NO_CHARGES


@<TRIPOS>ATOM
      1 OG         26.1319  -17.8374   40.7148 O.2       1 SER1        0.0000 
      2 DU         25.1359  -16.7786   40.3447 H         5 CUB7        0.0000 
      3 N          25.7212  -16.7103   38.9652 N.2       2 ALA2        0.0000 
      4 OG         26.3065  -16.6419   37.5858 O.2       1 SER1        0.0000 
      5 N          23.5938  -17.9072   41.2656 N.2       2 ALA2        0.0000 
      6 N          24.1791  -17.8389   39.8862 N.2       2 ALA2        0.0000 
      7 OG         24.7644  -17.7706   38.5068 O.2       1 SER1        0.0000 
      8 CA         25.3496  -17.7022   37.1273 C.3       4 GLY6        0.0000 
      9 N          21.4664  -19.1041   43.5659 N.2       2 ALA2        0.0000 
     10 N          22.0517  -19.0358   42.1865 N.2       2 ALA2        0.0000 
     11 CA         22.6370  -18.9675   40.8071 C.3       4 GLY6        0.0000 
     12 CA         24.3928  -18.7626   36.6689 C.3       4 GLY6        0.0000 
     13 N          25.6821  -14.5911   39.0536 N.2       2 ALA2        0.0000 
     14 DU         24.1400  -15.7197   39.9745 H         5 CUB7        0.0000 
     15 DU         24.7253  -15.6514   38.5951 H         5 CUB7        0.0000 
     16 CA         25.3105  -15.5831   37.2157 C.3       4 GLY6        0.0000 
     17 CA         25.8958  -15.5148   35.8363 C.3       4 GLY6        0.0000 
     18 DU         22.0126  -16.9167   42.2749 H         5 CUB7        0.0000 
     19 DU         22.5979  -16.8484   40.8955 H         5 CUB7        0.0000 
     20 DU         23.1832  -16.7801   39.5160 H         5 CUB7        0.0000 
     21 DU         23.7684  -16.7117   38.1366 H         5 CUB7        0.0000 
     22 CA         24.3537  -16.6434   36.7572 C.3       4 GLY6        0.0000 
     23 CA         24.9390  -16.5751   35.3778 C.3       4 GLY6        0.0000 
     24 N          20.4705  -18.0453   43.1958 N.2       2 ALA2        0.0000 
     25 N          21.0558  -17.9770   41.8164 N.2       2 ALA2        0.0000 
     26 CA         21.6410  -17.9087   40.4370 C.3       4 GLY6        0.0000 
     27 CA         22.2263  -17.8404   39.0576 C.3       4 GLY6        0.0000 
     28 CA         22.8116  -17.7721   37.6781 C.3       4 GLY6        0.0000 
     29 O          23.3969  -17.7037   36.2987 O.2       2 ALA2        0.0000 
     30 CA         24.6862  -13.5323   38.6834 C.3       4 GLY6        0.0000 
     31 O          25.2714  -13.4640   37.3040 O.2       2 ALA2        0.0000 
     32 DU         23.1440  -14.6609   39.6044 H         5 CUB7        0.0000 
     33 CA         23.7293  -14.5926   38.2250 C.3       4 GLY6        0.0000 
     34 CA         24.3146  -14.5243   36.8455 C.3       4 GLY6        0.0000 
     35 OG         24.8999  -14.4560   35.4661 O.2       1 SER1        0.0000 
     36 DU         21.0167  -15.8579   41.9047 H         5 CUB7        0.0000 
     37 DU         21.6019  -15.7895   40.5253 H         5 CUB7        0.0000 
     38 DU         22.1872  -15.7212   39.1459 H         5 CUB7        0.0000 
     39 DU         22.7725  -15.6529   37.7665 H         5 CUB7        0.0000 
     40 DU         23.3578  -15.5846   36.3871 H         5 CUB7        0.0000 
     41 OG         23.9430  -15.5163   35.0076 O.2       1 SER1        0.0000 
     42 OG         20.0598  -16.9182   41.4462 O.2       1 SER1        0.0000 
     43 CZ         20.6451  -16.8499   40.0668 C.ar      3 PHE5        0.0000 
     44 CZ         21.2304  -16.7815   38.6874 C.ar      3 PHE5        0.0000 
     45 CZ         21.8156  -16.7132   37.3080 C.ar      3 PHE5        0.0000 
     46 O          22.4009  -16.6449   35.9286 O.2       2 ALA2        0.0000 
     47 CZ         19.6883  -17.9102   39.6083 C.ar      3 PHE5        0.0000 
     48 DU         21.5628  -13.6704   40.6137 H         5 CUB7        0.0000 
     49 CA         22.1481  -13.6021   39.2342 C.3       4 GLY6        0.0000 
     50 DU         20.0207  -14.7990   41.5346 H         5 CUB7        0.0000 
     51 DU         20.6060  -14.7307   40.1552 H         5 CUB7        0.0000 
     52 CA         21.1913  -14.6624   38.7758 C.3       4 GLY6        0.0000 
     53 CA         21.7765  -14.5941   37.3963 C.3       4 GLY6        0.0000 
     54 CA         22.3618  -14.5258   36.0169 C.3       4 GLY6        0.0000 
     55 OG         19.0639  -15.8593   41.0761 O.2       1 SER1        0.0000 
     56 DU         19.6491  -15.7910   39.6967 H         5 CUB7        0.0000 
     57 CZ         20.2344  -15.7227   38.3173 C.ar      3 PHE5        0.0000 
     58 DU         20.8197  -15.6544   36.9379 H         5 CUB7        0.0000 
     59 O          21.4050  -15.5861   35.5584 O.2       2 ALA2        0.0000 
     60 OG         18.6923  -16.8513   39.2382 O.2       1 SER1        0.0000 
     61 CZ         19.2776  -16.7830   37.8588 C.ar      3 PHE5        0.0000 
     62 DU         20.9384  -11.6196   42.0814 H         5 CUB7        0.0000 
     63 CZ         19.3963  -12.7482   43.0023 C.ar      3 PHE5        0.0000 
     64 DU         19.9816  -12.6799   41.6229 H         5 CUB7        0.0000 
     65 CA         20.5669  -12.6116   40.2435 C.3       4 GLY6        0.0000 
     66 CZ         18.4395  -13.8085   42.5439 C.ar      3 PHE5        0.0000 
     67 CZ         19.0248  -13.7402   41.1644 C.ar      3 PHE5        0.0000 
     68 DU         19.6100  -13.6719   39.7850 H         5 CUB7        0.0000 
     69 CA         20.1953  -13.6036   38.4056 C.3       4 GLY6        0.0000 
     70 O          18.0679  -14.8005   40.7060 O.2       2 ALA2        0.0000 
     71 O          18.6532  -14.7322   39.3265 O.2       2 ALA2        0.0000 
     72 N          19.2385  -14.6639   37.9471 N.2       2 ALA2        0.0000 
     73 N          19.8237  -14.5956   36.5677 N.2       2 ALA2        0.0000 
     74 O          17.6964  -15.7925   38.8681 O.2       2 ALA2        0.0000 
     75 CZ         18.2816  -15.7242   37.4886 C.ar      3 PHE5        0.0000 
     76 OG         21.4846   -9.4322   40.7903 O.2       1 SER1        0.0000 
     77 CZ         18.7719  -10.6974   44.4701 C.ar      3 PHE5        0.0000 
     78 DU         19.3572  -10.6291   43.0907 H         5 CUB7        0.0000 
     79 DU         19.9425  -10.5608   41.7113 H         5 CUB7        0.0000 
     80 OG         20.5278  -10.4925   40.3319 O.2       1 SER1        0.0000 
     81 CZ         17.8151  -11.7577   44.0116 C.ar      3 PHE5        0.0000 
     82 CZ         18.4004  -11.6894   42.6322 C.ar      3 PHE5        0.0000 
     83 DU         18.9857  -11.6211   41.2528 H         5 CUB7        0.0000 
     84 CA         19.5709  -11.5528   39.8734 C.3       4 GLY6        0.0000 
     85 CZ         18.0288  -12.6814   40.7943 C.ar      3 PHE5        0.0000 
     86 CA         18.6141  -12.6131   39.4149 C.3       4 GLY6        0.0000 
     87 N          19.1994  -12.5448   38.0355 N.2       2 ALA2        0.0000 
     88 O          17.0720  -13.7417   40.3358 O.2       2 ALA2        0.0000 
     89 O          17.6572  -13.6734   38.9564 O.2       2 ALA2        0.0000 
     90 N          18.2425  -13.6051   37.5770 N.2       2 ALA2        0.0000 
     91 O          16.7004  -14.7337   38.4979 O.2       2 ALA2        0.0000 
     92 O          18.7328   -8.5783   44.5585 O.2       2 ALA2        0.0000 
     93 O          19.3181   -8.5100   43.1790 O.2       2 ALA2        0.0000 
     94 OG         19.9034   -8.4417   41.7996 O.2       1 SER1        0.0000 
     95 OG         20.4887   -8.3734   40.4202 O.2       1 SER1        0.0000 
     96 O          17.7760   -9.6386   44.1000 O.2       2 ALA2        0.0000 
     97 O          18.3613   -9.5703   42.7206 O.2       2 ALA2        0.0000 
     98 DU         18.9465   -9.5020   41.3411 H         5 CUB7        0.0000 
     99 OG         19.5318   -9.4337   39.9617 O.2       1 SER1        0.0000 
    100 CZ         16.8192  -10.6989   43.6415 C.ar      3 PHE5        0.0000 
    101 CZ         17.4044  -10.6306   42.2621 C.ar      3 PHE5        0.0000 
    102 OG         17.9897  -10.5623   40.8826 O.2       1 SER1        0.0000 
    103 CA         18.5750  -10.4940   39.5032 C.3       4 GLY6        0.0000 
    104 OG         17.0329  -11.6226   40.4242 O.2       1 SER1        0.0000 
    105 OG         17.6181  -11.5543   39.0447 O.2       1 SER1        0.0000 
    106 OG         16.6613  -12.6146   38.5863 O.2       1 SER1        0.0000 
    107 N          15.7045  -13.6749   38.1278 N.2       2 ALA2        0.0000 
    108 CZ         16.2897  -13.6066   36.7484 C.ar      3 PHE5        0.0000 
    109 N          16.8750  -13.5383   35.3689 N.2       2 ALA2        0.0000 
    110 O          18.3222   -7.4512   42.8089 O.2       2 ALA2        0.0000 
    111 O          17.3653   -8.5115   42.3504 O.2       2 ALA2        0.0000 
    112 OG         17.9506   -8.4432   40.9710 O.2       1 SER1        0.0000 
    113 OG         18.5359   -8.3749   39.5916 O.2       1 SER1        0.0000 
    114 CZ         16.4085   -9.5718   41.8919 C.ar      3 PHE5        0.0000 
    115 OG         16.9938   -9.5035   40.5125 O.2       1 SER1        0.0000 
    116 O          17.5790   -9.4352   39.1331 O.2       2 ALA2        0.0000 
    117 OG         16.6222  -10.4955   38.6746 O.2       1 SER1        0.0000 
@<TRIPOS>BOND
@<TRIPOS>SUBSTRUCTURE
     1 SER1        1 GROUP   
     2 ALA2        3 GROUP   
     3 PHE5       43 GROUP   
     4 GLY6        8 GROUP   
     5 CUB7        2 GROUP   
@<TRIPOS>SET

