#    Name: 1ikg_REX_1_INTS_M
#    Modification time : Tue Mar 25 07:10:08 2014

@<TRIPOS>MOLECULE
1ikg_REX_1_INTS_M
   67     0    12     0     0
SMALL
NO_CHARGES


@<TRIPOS>ATOM
      1 CA         20.8175  -13.0560   37.5410 C.3       4 GLC5        0.0000 
      2 CA         19.5550  -14.4690   38.4250 C.3      12 GLL5        0.0000 
      3 CA         22.0800  -11.6430   36.6570 C.3       8 GLP5        0.0000 
      4 CA         22.0395  -13.5695   36.7800 C.3       4 GLC5        0.0000 
      5 CA         21.9990  -15.4960   36.9030 C.3      12 GLL5        0.0000 
      6 O          18.2310  -12.6440   36.6225 O.2       1 ALC1        0.0000 
      7 O          17.5710  -13.2470   37.7530 O.2       9 ALL1        0.0000 
      8 O          18.8910  -12.0410   35.4920 O.2       5 ALP1        0.0000 
      9 N          16.3980  -15.1840   39.9780 N.am      2 SEC2        0.0000 
     10 N          17.5310  -14.4050   39.7350 N.am     10 SEL2        0.0000 
     11 N          15.2650  -15.9630   40.2210 N.am      6 SEP2        0.0000 
     12 CA         15.6190  -11.1595   35.2565 C.3       4 GLC5        0.0000 
     13 CA         15.4210  -12.6620   36.7960 C.3      12 GLL5        0.0000 
     14 CA         15.8170   -9.6570   33.7170 C.3       8 GLP5        0.0000 
     15 CA         16.2935  -14.3530   36.0000 C.3       4 GLC5        0.0000 
     16 CA         17.1660  -16.0440   35.2040 C.3       8 GLP5        0.0000 
     17 CA         14.2405  -14.1930   35.6585 C.3       4 GLC5        0.0000 
     18 CA         13.0600  -15.7240   34.5210 C.3       8 GLP5        0.0000 
     19 CA         13.9380  -12.2995   35.4205 C.3       4 GLC5        0.0000 
     20 CA         12.4550  -11.9370   34.0450 C.3       8 GLP5        0.0000 
     21 N          15.8505   -9.6945   36.5580 N.am      2 SEC2        0.0000 
     22 N          16.8870  -10.2610   37.2340 N.am     10 SEL2        0.0000 
     23 N          14.8140   -9.1280   35.8820 N.am      6 SEP2        0.0000 
     24 N          18.0275   -9.7305   36.6305 N.am      2 SEC2        0.0000 
     25 N          19.1680   -9.2000   36.0270 N.am      6 SEP2        0.0000 
     26 O          15.8250  -11.4455   40.2365 O.2       1 ALC1        0.0000 
     27 O          16.9890  -10.6550   39.4850 O.2       9 ALL1        0.0000 
     28 O          14.6610  -12.2360   40.9880 O.2       5 ALP1        0.0000 
     29 CA         15.7565   -9.1430   39.0180 C.3       4 GLC5        0.0000 
     30 CA         17.4090   -9.2710   39.7970 C.3      12 GLL5        0.0000 
     31 CA         14.1040   -9.0150   38.2390 C.3       8 GLP5        0.0000 
     32 CA         17.6905   -8.2015   37.9545 C.3       4 GLC5        0.0000 
     33 CA         17.9720   -7.1320   36.1120 C.3       8 GLP5        0.0000 
     34 CA         19.9495   -9.9415   38.5705 C.3       4 GLC5        0.0000 
     35 CA         18.9000   -9.2650   40.1230 C.3      12 GLL5        0.0000 
     36 CA         20.9990  -10.6180   37.0180 C.3       8 GLP5        0.0000 
     37 NZ         16.1510   -7.6590   42.6280 N.4       3 LYC4        0.0000 
     38 NZ         16.2440   -9.4990   41.8580 N.4      11 LYL4        0.0000 
     39 NZ         15.7940   -6.5390   44.3570 N.4       7 LYP4        0.0000 
     40 N          16.0365   -8.6825   43.0585 N.am      2 SEC2        0.0000 
     41 N          16.2440   -9.4990   41.8580 N.am     10 SEL2        0.0000 
     42 N          15.8290   -7.8660   44.2590 N.am      6 SEP2        0.0000 
     43 NZ         16.4730   -7.4520   40.9970 N.4      11 LYL4        0.0000 
     44 N          16.1590   -6.6190   42.1270 N.am      2 SEC2        0.0000 
     45 N          16.4730   -7.4520   40.9970 N.am     10 SEL2        0.0000 
     46 N          15.8450   -5.7860   43.2570 N.am      6 SEP2        0.0000 
     47 N          16.1510   -7.6590   42.6280 N.am      2 SEC2        0.0000 
     48 N          17.3355   -6.3770   40.8025 N.am      2 SEC2        0.0000 
     49 N          18.1980   -5.3020   40.6080 N.am      6 SEP2        0.0000 
     50 CA         23.7715  -19.1715   39.1395 C.3       4 GLC5        0.0000 
     51 CA         25.3070  -17.7400   39.6760 C.3      12 GLL5        0.0000 
     52 CA         22.2360  -20.6030   38.6030 C.3       8 GLP5        0.0000 
     53 O          25.1195  -20.1330   39.9860 O.2       1 ALC1        0.0000 
     54 O          25.8650  -19.0970   39.7770 O.2       9 ALL1        0.0000 
     55 O          24.3740  -21.1690   40.1950 O.2       5 ALP1        0.0000 
     56 O          26.8500  -19.0390   38.7550 O.2       1 ALC1        0.0000 
     57 O          27.8350  -18.9810   37.7330 O.2       5 ALP1        0.0000 
     58 N          24.7630  -14.0250   34.0715 N.am      2 SEC2        0.0000 
     59 N          24.0870  -14.7650   34.8510 N.am     10 SEL2        0.0000 
     60 N          25.4390  -13.2850   33.2920 N.am      6 SEP2        0.0000 
     61 CA         20.1938  -17.9030   37.8195 C.3       4 GLC5        0.0000 
     62 CA         21.1050  -16.3750   37.8060 C.3      12 GLL5        0.0000 
     63 CA         20.0150  -19.6880   37.8450 C.3       8 GLP5        0.0000 
     64 CA         18.3818  -15.6045   36.6537 C.3       4 GLC5        0.0000 
     65 CA         19.6400  -15.8610   37.7820 C.3      12 GLL5        0.0000 
     66 CA         14.9995  -10.7918   37.8135 C.3       4 GLC5        0.0000 
     67 CA         16.3690  -12.4750   37.9800 C.3      12 GLL5        0.0000 
@<TRIPOS>BOND
@<TRIPOS>SUBSTRUCTURE
     1 ALC1        6 GROUP        1 X    ALC  0     ROOT ALC X 1
     2 SEC2        9 GROUP        1 X    SEC  0     **** SEC X 2
     3 LYC4       37 GROUP        1 X    LYC  0     **** LYC X 4
     4 GLC5        1 GROUP        1 X    GLC  0     **** GLC X 6
     5 ALP1        8 GROUP        1 Y    ALP  0     ROOT ALP Y 8
     6 SEP2       11 GROUP        1 Y    SEP  0     **** SEP Y 9
     7 LYP4       39 GROUP        1 Y    LYP  0     **** LYP Y 11
     8 GLP5        3 GROUP        1 Y    GLP  0     **** GLP Y 13
     9 ALL1        7 GROUP        1 Z    ALL  0     ROOT ALL Z 15
    10 SEL2       10 GROUP        1 Z    SEL  0     **** SEL Z 16
    11 LYL4       38 GROUP        1 Z    LYL  0     **** LYL Z 18
    12 GLL5        2 GROUP        1 Z    GLL  0     **** GLL Z 20
@<TRIPOS>SET

