#    Name: 1ikg_REX_1_ligand
#    Modification time : Tue Mar 25 07:10:08 2014

@<TRIPOS>MOLECULE
1ikg_REX_1_ligand
   51    50     1     0     0
SMALL
NO_CHARGES


@<TRIPOS>ATOM
      1 C1         19.6400  -15.8610   37.7820 C.3       1 REX400      0.0000 
      2 C2         21.1050  -16.3750   37.8060 C.3       1 REX400      0.0000 
      3 C3         19.5550  -14.4690   38.4250 C.3       1 REX400      0.0000 
      4 C4         21.9990  -15.4960   36.9030 C.3       1 REX400      0.0000 
      5 C5         18.1170  -14.0650   38.7300 C.2       1 REX400      0.0000 
      6 N1         17.5710  -13.2470   37.7530 N.am      1 REX400      0.0000 
      7 O1         17.5310  -14.4050   39.7350 O.2       1 REX400      0.0000 
      8 C6         16.3690  -12.4750   37.9800 C.3       1 REX400      0.0000 
      9 C7         16.7640  -11.0270   38.1580 C.2       1 REX400      0.0000 
     10 C8         15.4210  -12.6620   36.7960 C.3       1 REX400      0.0000 
     11 O2         16.8870  -10.2610   37.2340 O.2       1 REX400      0.0000 
     12 N2         16.9890  -10.6550   39.4850 N.am      1 REX400      0.0000 
     13 C9         17.4090   -9.2710   39.7970 C.3       1 REX400      0.0000 
     14 C10        23.5090  -15.9370   36.8500 C.3       1 REX400      0.0000 
     15 C11        18.9000   -9.2650   40.1230 C.3       1 REX400      0.0000 
     16 C12        16.6390   -8.7020   40.9830 C.2       1 REX400      0.0000 
     17 O3         16.2440   -9.4990   41.8580 O.co2     1 REX400      0.0000 
     18 O4         16.4730   -7.4520   40.9970 O.co2     1 REX400      0.0000 
     19 N3         24.1290  -16.2320   38.1470 N.am      1 REX400      0.0000 
     20 C13        24.2650  -14.8070   36.0980 C.2       1 REX400      0.0000 
     21 C14        24.6700  -17.5280   38.3270 C.2       1 REX400      0.0000 
     22 C15        25.3070  -17.7400   39.6760 C.3       1 REX400      0.0000 
     23 O5         24.6490  -18.4060   37.4890 O.2       1 REX400      0.0000 
     24 N4         25.8650  -19.0970   39.7770 N.4       1 REX400      0.0000 
     25 O6         24.0870  -14.7650   34.8510 O.co2     1 REX400      0.0000 
     26 O7         24.9840  -13.9950   36.7860 O.co2     1 REX400      0.0000 
     27 H          19.0173  -16.5534   38.3343 H         1 REX400      0.0000 
     28 H          19.3056  -15.8057   36.7538 H         1 REX400      0.0000 
     29 H          21.1261  -17.3952   37.4454 H         1 REX400      0.0000 
     30 H          21.4752  -16.3359   38.8223 H         1 REX400      0.0000 
     31 H          20.0003  -13.7371   37.7452 H         1 REX400      0.0000 
     32 H          20.1349  -14.4713   39.3523 H         1 REX400      0.0000 
     33 H          21.9599  -14.4573   37.2575 H         1 REX400      0.0000 
     34 H          21.6036  -15.5116   35.8785 H         1 REX400      0.0000 
     35 H          18.0188  -13.1688   36.8230 H         1 REX400      0.0000 
     36 H          15.8724  -12.8131   38.8743 H         1 REX400      0.0000 
     37 H          16.8757  -11.3005   40.2547 H         1 REX400      0.0000 
     38 H          17.2523   -8.6327   38.9430 H         1 REX400      0.0000 
     39 H          23.5480  -16.8127   36.1875 H         1 REX400      0.0000 
     40 H          24.1558  -15.5359   38.8527 H         1 REX400      0.0000 
     41 H          24.5512  -17.5802   40.4541 H         1 REX400      0.0000 
     42 H          26.0965  -16.9922   39.8168 H         1 REX400      0.0000 
     43 H          15.8329  -12.3544   35.9382 H         1 REX400      0.0000 
     44 H          15.1667  -13.6211   36.6717 H         1 REX400      0.0000 
     45 H          14.5722  -12.1468   36.9149 H         1 REX400      0.0000 
     46 H          19.4491   -9.5982   39.3565 H         1 REX400      0.0000 
     47 H          19.2287   -8.3462   40.3414 H         1 REX400      0.0000 
     48 H          19.1106   -9.8462   40.9090 H         1 REX400      0.0000 
     49 H          26.2901  -19.2584   40.6677 H         1 REX400      0.0000 
     50 H          25.1618  -19.7976   39.6566 H         1 REX400      0.0000 
     51 H          26.5659  -19.2630   39.0832 H         1 REX400      0.0000 
@<TRIPOS>BOND
     1    2    1 1    
     2    3    1 1    
     3   27    1 1    
     4   28    1 1    
     5    4    2 1    
     6   29    2 1    
     7   30    2 1    
     8    5    3 1    
     9   31    3 1    
    10   32    3 1    
    11   14    4 1    
    12   33    4 1    
    13   34    4 1    
    14    6    5 am   
    15    7    5 2    
    16    8    6 1    
    17   35    6 1    
    18    9    8 1    
    19   10    8 1    
    20   36    8 1    
    21   11    9 2    
    22   12    9 am   
    23   43   10 1    
    24   44   10 1    
    25   45   10 1    
    26   13   12 1    
    27   37   12 1    
    28   15   13 1    
    29   16   13 1    
    30   38   13 1    
    31   19   14 1    
    32   20   14 1    
    33   39   14 1    
    34   46   15 1    
    35   47   15 1    
    36   48   15 1    
    37   17   16 ar   
    38   18   16 ar   
    39   21   19 am   
    40   40   19 1    
    41   25   20 ar   
    42   26   20 ar   
    43   22   21 1    
    44   23   21 2    
    45   24   22 1    
    46   41   22 1    
    47   42   22 1    
    48   49   24 1    
    49   50   24 1    
    50   51   24 1    
@<TRIPOS>SUBSTRUCTURE
     1 REX400      1 GROUP   
@<TRIPOS>SET

