#    Name: 3M96_1_CAVITY_N1_6.mol2
#    Modification time : Tue Mar 11 13:09:43 2014

@<TRIPOS>MOLECULE
3M96_1_CAVITY_N1_6.mol2
   85     0     6     0     0
SMALL
NO_CHARGES


@<TRIPOS>ATOM
      1 CA         -1.1335    6.2576   14.6105 C.3       5 GLY6        0.0000 
      2 CZ         -2.1814    7.3078   14.3894 C.ar      4 PHE5        0.0000 
      3 CA         -1.2263    5.8611   13.1669 C.3       5 GLY6        0.0000 
      4 N          -0.2713    4.4143   11.9443 N.2       2 ALA2        0.0000 
      5 DU         -1.3192    5.4645   11.7232 H         6 CUB7        0.0000 
      6 CZ          0.6838    2.9675   10.7217 C.ar      4 PHE5        0.0000 
      7 DU         -0.3641    4.0177   10.5006 H         6 CUB7        0.0000 
      8 DU         -1.4120    5.0680   10.2795 H         6 CUB7        0.0000 
      9 CA          0.5910    2.5709    9.2781 C.3       5 GLY6        0.0000 
     10 O          -0.4569    3.6212    9.0570 O.2       2 ALA2        0.0000 
     11 CA         -2.2028    5.2627   14.9525 C.3       5 GLY6        0.0000 
     12 CZ         -3.2507    6.3130   14.7314 C.ar      4 PHE5        0.0000 
     13 OG         -1.2477    3.8160   13.7300 O.2       1 SER1        0.0000 
     14 OG         -2.2956    4.8662   13.5089 O.2       1 SER1        0.0000 
     15 CZ         -3.3435    5.9165   13.2878 C.ar      4 PHE5        0.0000 
     16 CZ         -4.3914    6.9667   13.0667 C.ar      4 PHE5        0.0000 
     17 OG         -0.2926    2.3692   12.5074 O.2       1 SER1        0.0000 
     18 OG         -1.3405    3.4194   12.2863 O.2       1 SER1        0.0000 
     19 DU         -2.3884    4.4697   12.0652 H         6 CUB7        0.0000 
     20 DU         -3.4363    5.5199   11.8441 H         6 CUB7        0.0000 
     21 CZ         -0.3854    1.9726   11.0638 C.ar      4 PHE5        0.0000 
     22 O          -1.4333    3.0229   10.8427 O.2       2 ALA2        0.0000 
     23 O          -2.4812    4.0731   10.6216 O.2       2 ALA2        0.0000 
     24 DU         -3.5291    5.1234   10.4005 H         6 CUB7        0.0000 
     25 O          -4.5770    6.1736   10.1794 O.2       2 ALA2        0.0000 
     26 CA         -0.4783    1.5761    9.6201 C.3       5 GLY6        0.0000 
     27 O          -1.5262    2.6263    9.3990 O.2       2 ALA2        0.0000 
     28 O          -2.5741    3.6766    9.1779 O.2       2 ALA2        0.0000 
     29 O          -3.6220    4.7269    8.9568 O.2       2 ALA2        0.0000 
     30 O          -4.6698    5.7771    8.7357 O.2       2 ALA2        0.0000 
     31 CA         -3.2720    4.2679   15.2945 C.3       5 GLY6        0.0000 
     32 CZ         -4.3199    5.3182   15.0734 C.ar      4 PHE5        0.0000 
     33 OG         -3.3648    3.8714   13.8509 O.2       1 SER1        0.0000 
     34 DU         -4.4127    4.9216   13.6298 H         6 CUB7        0.0000 
     35 CZ         -5.4606    5.9719   13.4087 C.ar      4 PHE5        0.0000 
     36 OG         -2.4098    2.4246   12.6283 O.2       1 SER1        0.0000 
     37 OG         -3.4577    3.4748   12.4072 O.2       1 SER1        0.0000 
     38 O          -4.5056    4.5251   12.1861 O.2       2 ALA2        0.0000 
     39 O          -5.5534    5.5753   11.9650 O.2       2 ALA2        0.0000 
     40 OG         -1.4547    0.9778   11.4058 O.2       1 SER1        0.0000 
     41 O          -2.5026    2.0280   11.1847 O.2       2 ALA2        0.0000 
     42 O          -3.5505    3.0783   10.9636 O.2       2 ALA2        0.0000 
     43 O          -4.5984    4.1285   10.7425 O.2       2 ALA2        0.0000 
     44 CA         -1.5475    0.5812    9.9621 C.3       5 GLY6        0.0000 
     45 CA         -4.3413    3.2730   15.6365 C.3       5 GLY6        0.0000 
     46 CA         -5.3892    4.3233   15.4154 C.3       5 GLY6        0.0000 
     47 CA         -6.4371    5.3736   15.1943 C.3       5 GLY6        0.0000 
     48 OG         -4.4341    2.8765   14.1929 O.2       1 SER1        0.0000 
     49 O          -5.4820    3.9268   13.9718 O.2       2 ALA2        0.0000 
     50 O          -6.5299    4.9770   13.7507 O.2       2 ALA2        0.0000 
     51 OG         -3.4790    1.4297   12.9703 O.2       1 SER1        0.0000 
     52 O          -4.5269    2.4800   12.7492 O.2       2 ALA2        0.0000 
     53 O          -5.5748    3.5302   12.5281 O.2       2 ALA2        0.0000 
     54 CA         -2.5240   -0.0171   11.7478 C.3       5 GLY6        0.0000 
     55 CA         -3.5718    1.0332   11.5267 C.3       5 GLY6        0.0000 
     56 O          -4.6197    2.0834   11.3056 O.2       2 ALA2        0.0000 
     57 CA         -2.6168   -0.4136   10.3041 C.3       5 GLY6        0.0000 
     58 O          -3.6647    0.6366   10.0830 O.2       2 ALA2        0.0000 
     59 N          -4.7126    1.6869    9.8619 N.2       2 ALA2        0.0000 
     60 CA         -5.2249    3.0713   18.8659 C.3       5 GLY6        0.0000 
     61 O          -4.2698    1.6245   17.6433 O.2       2 ALA2        0.0000 
     62 CA         -5.3177    2.6747   17.4222 C.3       5 GLY6        0.0000 
     63 CA         -6.3656    3.7250   17.2011 C.3       5 GLY6        0.0000 
     64 O          -4.3626    1.2279   16.1997 O.2       2 ALA2        0.0000 
     65 DU         -5.4105    2.2782   15.9786 H         6 CUB7        0.0000 
     66 CA         -6.4584    3.3285   15.7575 C.3       5 GLY6        0.0000 
     67 OG         -4.4555    0.8314   14.7560 O.2       1 SER1        0.0000 
     68 N          -5.5033    1.8817   14.5349 N.2       2 ALA2        0.0000 
     69 CA         -6.5512    2.9319   14.3138 C.3       5 GLY6        0.0000 
     70 N          -4.5483    0.4349   13.3123 N.2       2 ALA2        0.0000 
     71 N          -5.5962    1.4851   13.0912 N.2       2 ALA2        0.0000 
     72 CA         -2.5453   -2.0622   12.3109 C.3       5 GLY6        0.0000 
     73 CA         -3.5932   -1.0119   12.0898 C.3       5 GLY6        0.0000 
     74 N          -4.6411    0.0383   11.8687 N.2       2 ALA2        0.0000 
     75 O          -5.6890    1.0886   11.6476 O.2       2 ALA2        0.0000 
     76 CA         -2.6381   -2.4587   10.8672 C.3       5 GLY6        0.0000 
     77 CA         -3.6860   -1.4085   10.6461 C.3       5 GLY6        0.0000 
     78 N          -4.7339   -0.3582   10.4250 N.2       2 ALA2        0.0000 
     79 O          -5.3391    0.6296   17.9853 O.2       2 ALA2        0.0000 
     80 CZ         -6.3870    1.6799   17.7642 C.ar      4 PHE5        0.0000 
     81 CA         -7.4348    2.7301   17.5431 C.3       5 GLY6        0.0000 
     82 OD1        -5.4319    0.2331   16.5417 O.3       3 ASP3        0.0000 
     83 OD1        -6.4798    1.2834   16.3206 O.3       3 ASP3        0.0000 
     84 CA         -7.5277    2.3336   16.0995 C.3       5 GLY6        0.0000 
     85 N          -4.6625   -2.0068   12.4318 N.2       2 ALA2        0.0000 
@<TRIPOS>BOND
@<TRIPOS>SUBSTRUCTURE
     1 SER1       13 GROUP   
     2 ALA2        4 GROUP   
     3 ASP3       82 GROUP   
     4 PHE5        2 GROUP   
     5 GLY6        1 GROUP   
     6 CUB7        5 GROUP   
@<TRIPOS>SET

