#    Name: 3m96_E38_1_INTS_M
#    Modification time : Mon Mar 24 22:52:29 2014

@<TRIPOS>MOLECULE
3m96_E38_1_INTS_M
   57     0    12     0     0
SMALL
NO_CHARGES


@<TRIPOS>ATOM
      1 CA          0.2900    1.3505   11.1995 C.3       4 GLC5        0.0000 
      2 CA         -1.6170    2.1790   10.8660 C.3      12 GLL5        0.0000 
      3 CA          2.1970    0.5220   11.5330 C.3       8 GLP5        0.0000 
      4 CA         -0.2750    1.1570    9.5685 C.3       4 GLC5        0.0000 
      5 CA          1.0670    0.1350    8.2710 C.3       8 GLP5        0.0000 
      6 CA         -1.0365    1.2175   12.7650 C.3       4 GLC5        0.0000 
      7 CA         -0.4560    0.2560   14.6640 C.3       8 GLP5        0.0000 
      8 CA         -2.1865    0.4615   13.1645 C.3       4 GLC5        0.0000 
      9 CA         -3.0000    1.7600   12.0340 C.3      12 GLL5        0.0000 
     10 CA         -1.3730   -0.8370   14.2950 C.3       8 GLP5        0.0000 
     11 CA         -3.1325    9.2865   14.5125 C.3       4 GLC5        0.0000 
     12 CA         -1.2970    8.7700   15.0770 C.3      12 GLL5        0.0000 
     13 CA         -4.9680    9.8030   13.9480 C.3       8 GLP5        0.0000 
     14 CA         -1.8115   10.1780   16.3160 C.3       4 GLC5        0.0000 
     15 CA         -2.3260   11.5860   17.5550 C.3       8 GLP5        0.0000 
     16 CA         -1.4160    7.0505   16.2720 C.3       4 GLC5        0.0000 
     17 CA         -1.5350    5.3310   17.4670 C.3       8 GLP5        0.0000 
     18 CA          0.3090    7.9060   15.7420 C.3       4 GLC5        0.0000 
     19 CA          1.9150    7.0420   16.4070 C.3       8 GLP5        0.0000 
     20 CA         -0.4620    9.0550   16.9885 C.3       4 GLC5        0.0000 
     21 CA          0.3730    9.3400   18.9000 C.3       8 GLP5        0.0000 
     22 CA         -7.6305    5.1125   15.3420 C.3       4 GLC5        0.0000 
     23 CA         -5.7520    4.5410   15.1320 C.3      12 GLL5        0.0000 
     24 CA         -9.5090    5.6840   15.5520 C.3       8 GLP5        0.0000 
     25 CA         -6.3010    5.8955   16.8380 C.3       4 GLC5        0.0000 
     26 CA         -6.8500    7.2500   18.5440 C.3       8 GLP5        0.0000 
     27 CA         -8.1060    4.7410   16.5080 C.3       4 GLC5        0.0000 
     28 CA         -6.7030    3.7980   17.4640 C.3      12 GLL5        0.0000 
     29 CA         -6.7765    5.5240   18.0040 C.3       4 GLC5        0.0000 
     30 CA         -8.1335    3.4070   18.3280 C.3       4 GLC5        0.0000 
     31 CA         -9.5640    3.0160   19.1920 C.3       8 GLP5        0.0000 
     32 CA         -5.2070    4.5250   18.0720 C.3       4 GLC5        0.0000 
     33 CA         -3.7110    5.2520   18.6800 C.3       8 GLP5        0.0000 
     34 CA         -6.4400    4.1490   19.5580 C.3       4 GLC5        0.0000 
     35 CA         -6.1770    4.5000   21.6520 C.3       8 GLP5        0.0000 
     36 N          -3.9540    0.5975   18.4855 N.am      2 SEC2        0.0000 
     37 N          -5.2650    1.0420   17.9690 N.am     10 SEL2        0.0000 
     38 N          -2.6430    0.1530   19.0020 N.am      6 SEP2        0.0000 
     39 O          -4.4235   -1.3610   16.7480 O.2       1 ALC1        0.0000 
     40 O          -5.2850   -0.5600   16.0000 O.2       9 ALL1        0.0000 
     41 O          -3.5620   -2.1620   17.4960 O.2       5 ALP1        0.0000 
     42 Zn         -5.9505   -1.1385   15.6070 Zn        3 ZIC7        0.0000 
     43 Zn         -5.2850   -0.5600   16.0000 Zn       11 ZIL7        0.0000 
     44 Zn         -6.6160   -1.7170   15.2140 Zn        7 ZIP7        0.0000 
     45 CA          0.3798    5.7625   13.8675 C.3       4 GLC5        0.0000 
     46 CA         -1.2880    5.5040   12.7800 C.3      12 GLL5        0.0000 
     47 CA          1.5600    5.9230   15.4350 C.3       8 GLP5        0.0000 
     48 CA          0.9475    6.6430   13.8347 C.3       4 GLC5        0.0000 
     49 CA          0.2040    7.8520   12.7210 C.3      12 GLL5        0.0000 
     50 CA         -1.3752    6.1715   15.5853 C.3       4 GLC5        0.0000 
     51 CA         -0.8230    7.5760   13.6760 C.3      12 GLL5        0.0000 
     52 CA          0.1723    6.4675   14.5693 C.3       4 GLC5        0.0000 
     53 CA         -1.6080    6.4480   13.7310 C.3      12 GLL5        0.0000 
     54 CA         -7.7108    3.0530   15.3390 C.3       4 GLC5        0.0000 
     55 CA         -5.9720    3.4660   16.0130 C.3      12 GLL5        0.0000 
     56 CA         -9.6630    3.2740   14.8570 C.3       8 GLP5        0.0000 
     57 CA         -4.7865    4.6277   17.1262 C.3       4 GLC5        0.0000 
@<TRIPOS>BOND
@<TRIPOS>SUBSTRUCTURE
     1 ALC1       39 GROUP        1 X    ALC  0     ROOT ALC X 1
     2 SEC2       36 GROUP        1 X    SEC  0     **** SEC X 2
     3 ZIC7       42 GROUP        1 X    ZIC  0     **** ZIC X 5
     4 GLC5        1 GROUP        1 X    GLC  0     **** GLC X 6
     5 ALP1       41 GROUP        1 Y    ALP  0     ROOT ALP Y 8
     6 SEP2       38 GROUP        1 Y    SEP  0     **** SEP Y 9
     7 ZIP7       44 GROUP        1 Y    ZIP  0     **** ZIP Y 12
     8 GLP5        3 GROUP        1 Y    GLP  0     **** GLP Y 13
     9 ALL1       40 GROUP        1 Z    ALL  0     ROOT ALL Z 15
    10 SEL2       37 GROUP        1 Z    SEL  0     **** SEL Z 16
    11 ZIL7       43 GROUP        1 Z    ZIL  0     **** ZIL Z 19
    12 GLL5        2 GROUP        1 Z    GLL  0     **** GLL Z 20
@<TRIPOS>SET

