#    Name: 3m96_E38_1_ligand
#    Modification time : Mon Mar 24 22:52:29 2014

@<TRIPOS>MOLECULE
3m96_E38_1_ligand
   35    37     1     0     0
SMALL
NO_CHARGES


@<TRIPOS>ATOM
      1 N1         -0.2710    4.6250   11.0300 N.pl3     1 E38265      0.0000 
      2 C2         -1.1940    3.7840   11.5270 C.2       1 E38265      0.0000 
      3 N3         -1.8170    4.3030   12.6130 N.2       1 E38265      0.0000 
      4 C4         -1.2880    5.5040   12.7800 C.ar      1 E38265      0.0000 
      5 C5         -0.3130    5.7000   11.8200 C.ar      1 E38265      0.0000 
      6 C6          0.4660    6.8740   11.7480 C.ar      1 E38265      0.0000 
      7 C7          0.2040    7.8520   12.7210 C.ar      1 E38265      0.0000 
      8 C8         -0.8230    7.5760   13.6760 C.ar      1 E38265      0.0000 
      9 C9         -1.6080    6.4480   13.7310 C.ar      1 E38265      0.0000 
     10 S10        -1.6170    2.1790   10.8660 S.3       1 E38265      0.0000 
     11 C11        -3.0000    1.7600   12.0340 C.3       1 E38265      0.0000 
     12 C12        -4.1650    2.7500   12.1140 C.2       1 E38265      0.0000 
     13 O13        -4.6320    3.3460   11.0770 O.2       1 E38265      0.0000 
     14 BR14       -1.2970    8.7700   15.0770 Br        1 E38265      0.0000 
     15 C15        -4.7670    3.0550   13.5230 C.ar      1 E38265      0.0000 
     16 C16        -5.0000    1.9870   14.4210 C.ar      1 E38265      0.0000 
     17 C17        -5.5450    2.1980   15.6290 C.ar      1 E38265      0.0000 
     18 C18        -5.9720    3.4660   16.0130 C.ar      1 E38265      0.0000 
     19 C19        -5.7520    4.5410   15.1320 C.ar      1 E38265      0.0000 
     20 C20        -5.1900    4.3260   13.9260 C.ar      1 E38265      0.0000 
     21 S21        -5.8940    0.7730   16.6870 S.o2      1 E38265      0.0000 
     22 O22        -7.3930    0.6870   16.6940 O.2       1 E38265      0.0000 
     23 CL23       -6.7030    3.7980   17.4640 Cl        1 E38265      0.0000 
     24 O24        -5.2650    1.0420   17.9690 O.2       1 E38265      0.0000 
     25 N25        -5.2850   -0.5600   16.0000 N.pl3     1 E38265      0.0000 
     26 H           0.2891    4.4799   10.2766 H         1 E38265      0.0000 
     27 H           1.1612    6.9990   11.0460 H         1 E38265      0.0000 
     28 H           0.7118    8.7154   12.7545 H         1 E38265      0.0000 
     29 H          -2.3350    6.3249   14.3915 H         1 E38265      0.0000 
     30 H          -2.4566    1.6470   12.9714 H         1 E38265      0.0000 
     31 H          -3.2882    0.7733   11.6733 H         1 E38265      0.0000 
     32 H          -4.7323    1.0296   14.1089 H         1 E38265      0.0000 
     33 H          -6.0319    5.4896   15.4357 H         1 E38265      0.0000 
     34 H          -5.0565    5.1196   13.2552 H         1 E38265      0.0000 
     35 H          -4.5906   -1.0491   16.5278 H         1 E38265      0.0000 
@<TRIPOS>BOND
     1    2    1 1    
     2    5    1 1    
     3   26    1 1    
     4    3    2 2    
     5   10    2 1    
     6    4    3 1    
     7    5    4 ar   
     8    9    4 ar   
     9    6    5 ar   
    10    7    6 ar   
    11   27    6 1    
    12    8    7 ar   
    13   28    7 1    
    14    9    8 ar   
    15   14    8 1    
    16   29    9 1    
    17   11   10 1    
    18   12   11 1    
    19   30   11 1    
    20   31   11 1    
    21   13   12 2    
    22   15   12 1    
    23   16   15 ar   
    24   20   15 ar   
    25   17   16 ar   
    26   32   16 1    
    27   18   17 ar   
    28   21   17 1    
    29   19   18 ar   
    30   23   18 1    
    31   20   19 ar   
    32   33   19 1    
    33   34   20 1    
    34   22   21 2    
    35   24   21 2    
    36   25   21 1    
    37   35   25 1    
@<TRIPOS>SUBSTRUCTURE
     1 E38265      1 GROUP   
@<TRIPOS>SET

