#    Name: 3nf6_IMV_4_INTS_M
#    Modification time : Tue Mar 25 01:27:28 2014

@<TRIPOS>MOLECULE
3nf6_IMV_4_INTS_M
   46     0     3     0     0
SMALL
NO_CHARGES


@<TRIPOS>ATOM
      1 CA          8.1670  -24.8990  -19.9210 C.3       1 GLC5        0.0000 
      2 CA          6.7280  -25.4400  -21.0860 C.3       3 GLL5        0.0000 
      3 CA          9.6060  -24.3580  -18.7560 C.3       2 GLP5        0.0000 
      4 CA          5.1640  -27.1885  -18.9190 C.3       1 GLC5        0.0000 
      5 CA          5.7080  -27.7660  -20.7930 C.3       3 GLL5        0.0000 
      6 CA          4.6200  -26.6110  -17.0450 C.3       2 GLP5        0.0000 
      7 CA         10.3355  -25.6500  -20.1305 C.3       1 GLC5        0.0000 
      8 CA         11.0650  -26.9420  -21.5050 C.3       3 GLL5        0.0000 
      9 CA         11.1660  -28.7535  -21.2340 C.3       1 GLC5        0.0000 
     10 CA         11.2670  -30.5650  -20.9630 C.3       2 GLP5        0.0000 
     11 CA         13.7775  -26.4100  -19.9315 C.3       1 GLC5        0.0000 
     12 CA         12.2810  -27.3270  -20.9910 C.3       3 GLL5        0.0000 
     13 CA         15.2740  -25.4930  -18.8720 C.3       2 GLP5        0.0000 
     14 CA         14.7745  -26.5165  -20.8495 C.3       1 GLC5        0.0000 
     15 CA         13.3030  -27.4930  -21.8880 C.3       3 GLL5        0.0000 
     16 CA         16.2460  -25.5400  -19.8110 C.3       2 GLP5        0.0000 
     17 CA         13.7170  -29.2125  -22.6355 C.3       1 GLC5        0.0000 
     18 CA         15.1280  -28.0570  -22.8670 C.3       3 GLL5        0.0000 
     19 CA         12.3060  -30.3680  -22.4040 C.3       2 GLP5        0.0000 
     20 CA         15.9200  -27.4905  -24.4195 C.3       1 GLC5        0.0000 
     21 CA         16.7120  -26.9240  -25.9720 C.3       2 GLP5        0.0000 
     22 CA         16.6590  -29.4780  -23.2355 C.3       1 GLC5        0.0000 
     23 CA         18.1900  -30.8990  -23.6040 C.3       2 GLP5        0.0000 
     24 CA         15.6870  -26.7985  -21.3390 C.3       1 GLC5        0.0000 
     25 CA         14.5875  -27.7745  -24.8565 C.3       1 GLC5        0.0000 
     26 CA         13.1320  -27.2970  -23.2220 C.3       3 GLL5        0.0000 
     27 CA         16.0430  -28.2520  -26.4910 C.3       2 GLP5        0.0000 
     28 CA          7.6688  -27.8498  -19.5985 C.3       1 GLC5        0.0000 
     29 CA          6.7030  -26.9090  -21.2010 C.3       3 GLL5        0.0000 
     30 CA          9.1320  -28.3620  -18.2000 C.3       2 GLP5        0.0000 
     31 CA          6.1227  -28.2032  -22.8900 C.3       1 GLC5        0.0000 
     32 CA          6.0400  -29.0690  -24.7830 C.3       2 GLP5        0.0000 
     33 CA          7.8102  -28.8472  -19.7578 C.3       1 GLC5        0.0000 
     34 CA          7.0680  -29.5550  -21.6180 C.3       3 GLL5        0.0000 
     35 CA          6.2643  -29.2007  -23.0493 C.3       1 GLC5        0.0000 
     36 CA          6.7052  -31.2017  -21.6433 C.3       1 GLC5        0.0000 
     37 CA          6.9220  -33.0710  -21.9710 C.3       2 GLP5        0.0000 
     38 CA          9.4162  -29.8445  -21.3938 C.3       1 GLC5        0.0000 
     39 CA          8.5415  -28.1940  -20.0590 C.3       1 GLC5        0.0000 
     40 CA          8.0630  -28.6930  -22.0310 C.3       3 GLL5        0.0000 
     41 CA          6.9955  -28.5475  -23.3505 C.3       1 GLC5        0.0000 
     42 CA          7.8390  -27.3590  -21.8050 C.3       3 GLL5        0.0000 
     43 CA         10.4025  -27.7482  -19.7240 C.3       1 GLC5        0.0000 
     44 CA         12.8890  -27.9660  -19.5918 C.3       1 GLC5        0.0000 
     45 CA         12.9860  -28.5220  -17.7440 C.3       2 GLP5        0.0000 
     46 CA         12.4178  -28.8023  -22.3790 C.3       1 GLC5        0.0000 
@<TRIPOS>BOND
@<TRIPOS>SUBSTRUCTURE
     1 GLC5        1 GROUP        1 X    GLC  0     ROOT GLC X 6
     2 GLP5        3 GROUP        1 Y    GLP  0     ROOT GLP Y 13
     3 GLL5        2 GROUP        1 Z    GLL  0     ROOT GLL Z 20
@<TRIPOS>SET

