#    Name: 3nf6_IMV_4_ligand
#    Modification time : Tue Mar 25 01:27:28 2014

@<TRIPOS>MOLECULE
3nf6_IMV_4_ligand
   35    38     1     0     0
SMALL
NO_CHARGES


@<TRIPOS>ATOM
      1 O1         10.6010  -26.9530  -25.7220 O.co2     1 IMV231      0.0000 
      2 C2         11.7570  -26.7400  -25.2460 C.2       1 IMV231      0.0000 
      3 O3         12.7730  -26.4680  -25.9320 O.co2     1 IMV231      0.0000 
      4 C4         11.9240  -26.9160  -23.7650 C.ar      1 IMV231      0.0000 
      5 C5         10.8810  -26.7420  -22.8650 C.ar      1 IMV231      0.0000 
      6 C6          9.5130  -26.3380  -23.2820 C.3       1 IMV231      0.0000 
      7 N7          8.6630  -26.2740  -22.1130 N.am      1 IMV231      0.0000 
      8 C8          8.0170  -25.0990  -21.7790 C.2       1 IMV231      0.0000 
      9 O9          8.4030  -23.9520  -21.9830 O.2       1 IMV231      0.0000 
     10 C10         6.7280  -25.4400  -21.0860 C.3       1 IMV231      0.0000 
     11 C11         6.7030  -26.9090  -21.2010 C.ar      1 IMV231      0.0000 
     12 C12         5.7080  -27.7660  -20.7930 C.ar      1 IMV231      0.0000 
     13 C13         5.9090  -29.1100  -21.0130 C.ar      1 IMV231      0.0000 
     14 C14         7.0680  -29.5550  -21.6180 C.ar      1 IMV231      0.0000 
     15 C15         8.0630  -28.6930  -22.0310 C.ar      1 IMV231      0.0000 
     16 C16         7.8390  -27.3590  -21.8050 C.ar      1 IMV231      0.0000 
     17 C17        11.0650  -26.9420  -21.5050 C.ar      1 IMV231      0.0000 
     18 C18        12.2810  -27.3270  -20.9910 C.ar      1 IMV231      0.0000 
     19 C19        13.3030  -27.4930  -21.8880 C.ar      1 IMV231      0.0000 
     20 O20        14.5760  -27.8790  -21.5560 O.3       1 IMV231      0.0000 
     21 C21        15.1280  -28.0570  -22.8670 C.3       1 IMV231      0.0000 
     22 O22        14.2900  -27.5380  -23.9040 O.3       1 IMV231      0.0000 
     23 C23        13.1320  -27.2970  -23.2220 C.ar      1 IMV231      0.0000 
     24 H           9.1272  -27.0669  -24.0025 H         1 IMV231      0.0000 
     25 H           9.5622  -25.3636  -23.7795 H         1 IMV231      0.0000 
     26 H           5.9132  -25.0045  -21.6096 H         1 IMV231      0.0000 
     27 H           6.7775  -25.1398  -20.0686 H         1 IMV231      0.0000 
     28 H           4.8636  -27.4240  -20.3498 H         1 IMV231      0.0000 
     29 H           5.1873  -29.7937  -20.7235 H         1 IMV231      0.0000 
     30 H           7.1958  -30.5843  -21.7685 H         1 IMV231      0.0000 
     31 H           8.9036  -29.0280  -22.4725 H         1 IMV231      0.0000 
     32 H          10.2584  -26.7955  -20.8606 H         1 IMV231      0.0000 
     33 H          12.4117  -27.4794  -19.9997 H         1 IMV231      0.0000 
     34 H          15.3248  -29.1443  -23.0481 H         1 IMV231      0.0000 
     35 H          16.1372  -27.5748  -22.9191 H         1 IMV231      0.0000 
@<TRIPOS>BOND
     1    2    1 ar   
     2    3    2 ar   
     3    4    2 1    
     4    5    4 ar   
     5   23    4 ar   
     6    6    5 1    
     7   17    5 ar   
     8    7    6 1    
     9   24    6 1    
    10   25    6 1    
    11    8    7 am   
    12   16    7 1    
    13    9    8 2    
    14   10    8 1    
    15   11   10 1    
    16   26   10 1    
    17   27   10 1    
    18   12   11 ar   
    19   16   11 ar   
    20   13   12 ar   
    21   28   12 1    
    22   14   13 ar   
    23   29   13 1    
    24   15   14 ar   
    25   30   14 1    
    26   16   15 ar   
    27   31   15 1    
    28   18   17 ar   
    29   32   17 1    
    30   19   18 ar   
    31   33   18 1    
    32   20   19 1    
    33   23   19 ar   
    34   21   20 1    
    35   22   21 1    
    36   34   21 1    
    37   35   21 1    
    38   23   22 1    
@<TRIPOS>SUBSTRUCTURE
     1 IMV231      1 GROUP   
@<TRIPOS>SET

