#    Name: 4fv6_E57_1_INTS_M
#    Modification time : Mon Mar 24 20:50:59 2014

@<TRIPOS>MOLECULE
4fv6_E57_1_INTS_M
   96     0     9     0     0
SMALL
NO_CHARGES


@<TRIPOS>ATOM
      1 N          12.9590   -2.9620  -13.3150 N.am      2 SEC2        0.0000 
      2 N          11.7130   -3.0300  -14.0300 N.am      8 SEL2        0.0000 
      3 N          14.2050   -2.8940  -12.6000 N.am      5 SEP2        0.0000 
      4 CA         13.5195   -2.7005  -16.3540 C.3       3 GLC5        0.0000 
      5 CA         13.0060   -4.6420  -15.9720 C.3       9 GLL5        0.0000 
      6 CA         14.0330   -0.7590  -16.7360 C.3       6 GLP5        0.0000 
      7 CA         13.7155   -7.2310  -16.8875 C.3       3 GLC5        0.0000 
      8 CA         13.3280   -5.1810  -17.3590 C.3       9 GLL5        0.0000 
      9 CA         14.1030   -9.2810  -16.4160 C.3       6 GLP5        0.0000 
     10 O          14.1125   -3.3850  -18.0780 O.2       1 ALC1        0.0000 
     11 O          13.0330   -4.2230  -18.3570 O.2       7 ALL1        0.0000 
     12 O          15.1920   -2.5470  -17.7990 O.2       4 ALP1        0.0000 
     13 CA         11.4755   -8.7665  -14.7465 C.3       3 GLC5        0.0000 
     14 CA         12.5840   -7.3950  -13.3860 C.3       9 GLL5        0.0000 
     15 CA         10.3670  -10.1380  -16.1070 C.3       6 GLP5        0.0000 
     16 CA         11.4535   -9.0735  -12.6840 C.3       3 GLC5        0.0000 
     17 CA         10.3230  -10.7520  -11.9820 C.3       6 GLP5        0.0000 
     18 CA         12.2235   -6.1295  -11.8880 C.3       3 GLC5        0.0000 
     19 CA         11.8630   -4.8640  -10.3900 C.3       6 GLP5        0.0000 
     20 CA         15.3305   -8.3310  -14.8745 C.3       3 GLC5        0.0000 
     21 CA         16.5580   -7.3810  -13.3330 C.3       9 GLL5        0.0000 
     22 CA         18.2670   -7.4100  -13.2805 C.3       3 GLC5        0.0000 
     23 CA         19.9760   -7.4390  -13.2280 C.3       6 GLP5        0.0000 
     24 CA         16.0600   -7.2330  -11.6060 C.3       3 GLC5        0.0000 
     25 CA         15.5620   -7.0850   -9.8790 C.3       6 GLP5        0.0000 
     26 CA          9.3165   -4.7880  -14.2950 C.3       3 GLC5        0.0000 
     27 CA          9.6100   -3.0970  -15.1290 C.3       9 GLL5        0.0000 
     28 CA          9.0230   -6.4790  -13.4610 C.3       6 GLP5        0.0000 
     29 CA          7.5100    1.6435  -12.1700 C.3       3 GLC5        0.0000 
     30 CA          7.0490   -0.3790  -12.5560 C.3       9 GLL5        0.0000 
     31 CA          7.9710    3.6660  -11.7840 C.3       6 GLP5        0.0000 
     32 CA          7.2435    0.3305  -10.6670 C.3       3 GLC5        0.0000 
     33 CA          7.4380    1.0400   -8.7780 C.3       6 GLP5        0.0000 
     34 CA          3.0310    0.0335  -12.2700 C.3       3 GLC5        0.0000 
     35 CA          4.6740   -0.4430  -13.3470 C.3       9 GLL5        0.0000 
     36 CA          1.3880    0.5100  -11.1930 C.3       6 GLP5        0.0000 
     37 CA          3.7550    1.3415  -14.1090 C.3       3 GLC5        0.0000 
     38 CA          2.8360    3.1260  -14.8710 C.3       6 GLP5        0.0000 
     39 N           2.4345    0.0690  -13.8380 N.am      2 SEC2        0.0000 
     40 N           3.6530   -0.8470  -14.1040 N.am      8 SEL2        0.0000 
     41 N           1.2160    0.9850  -13.5720 N.am      5 SEP2        0.0000 
     42 CA          3.7215   -3.4730  -14.1400 C.3       3 GLC5        0.0000 
     43 CA          3.9560   -1.7310  -15.0570 C.3       9 GLL5        0.0000 
     44 CA          3.4870   -5.2150  -13.2230 C.3       6 GLP5        0.0000 
     45 CA          2.4215   -2.1430  -13.5705 C.3       3 GLC5        0.0000 
     46 CA          0.8870   -2.5550  -12.0840 C.3       6 GLP5        0.0000 
     47 CA          2.9540    0.2030  -15.3415 C.3       3 GLC5        0.0000 
     48 CA          1.9520    2.1370  -15.6260 C.3       6 GLP5        0.0000 
     49 CA          5.0175   -0.6810  -16.3645 C.3       3 GLC5        0.0000 
     50 CA          6.0790    0.3690  -17.6720 C.3       6 GLP5        0.0000 
     51 O           1.4955   -1.3405  -15.6330 O.2       1 ALC1        0.0000 
     52 O           2.9240   -2.1050  -15.8330 O.2       7 ALL1        0.0000 
     53 O           0.0670   -0.5760  -15.4330 O.2       4 ALP1        0.0000 
     54 CA          3.1830   -4.1265  -15.0910 C.3       3 GLC5        0.0000 
     55 CA          2.8790   -3.0380  -16.9590 C.3       9 GLL5        0.0000 
     56 CA          2.0120   -1.5335  -19.1180 C.3       3 GLC5        0.0000 
     57 CA          3.7260   -2.4910  -18.0960 C.3       9 GLL5        0.0000 
     58 CA          0.2980   -0.5760  -20.1400 C.3       6 GLP5        0.0000 
     59 CA          4.2645   -1.5390  -19.8345 C.3       3 GLC5        0.0000 
     60 CA          4.8030   -0.5870  -21.5730 C.3       6 GLP5        0.0000 
     61 CA          4.9025   -1.0610  -17.8840 C.3       3 GLC5        0.0000 
     62 O           4.2760   -2.9920  -20.3570 O.2       1 ALC1        0.0000 
     63 O           3.3790   -3.0590  -19.3540 O.2       7 ALL1        0.0000 
     64 O           5.1730   -2.9250  -21.3600 O.2       4 ALP1        0.0000 
     65 CA          0.8545   -1.8930  -18.7545 C.3       3 GLC5        0.0000 
     66 CA          1.4110   -3.2100  -17.3690 C.3       9 GLL5        0.0000 
     67 CA          0.9155   -5.6140  -15.3400 C.3       3 GLC5        0.0000 
     68 CA          0.6250   -4.0260  -16.4010 C.3       9 GLL5        0.0000 
     69 CA          1.2060   -7.2020  -14.2790 C.3       6 GLP5        0.0000 
     70 CA         14.0382   -7.5633  -15.5925 C.3       3 GLC5        0.0000 
     71 CA         13.3140   -5.7190  -14.9510 C.3       9 GLL5        0.0000 
     72 CA         13.2725   -8.1038  -15.1457 C.3       3 GLC5        0.0000 
     73 CA         12.3000   -6.4580  -14.3650 C.3       9 GLL5        0.0000 
     74 CA         10.7325   -6.7027  -13.6683 C.3       3 GLC5        0.0000 
     75 CA         13.2880   -4.8941  -13.2771 C.3       3 GLC5        0.0000 
     76 CA         13.8460   -3.9690  -11.6410 C.3       6 GLP5        0.0000 
     77 CA         13.6795   -9.3100  -12.3613 C.3       3 GLC5        0.0000 
     78 CA         14.1200  -11.0990  -11.5180 C.3       6 GLP5        0.0000 
     79 CA         14.2505   -8.2900  -14.8760 C.3       3 GLC5        0.0000 
     80 CA         13.8940   -7.6470  -13.0230 C.3       9 GLL5        0.0000 
     81 CA         14.0884   -5.5116  -12.6058 C.3       3 GLC5        0.0000 
     82 CA         14.9800   -7.1920  -11.6075 C.3       3 GLC5        0.0000 
     83 CA         14.9020   -6.9510  -13.6490 C.3       9 GLL5        0.0000 
     84 CA          6.8580   -1.0447  -16.6618 C.3       3 GLC5        0.0000 
     85 CA          7.5090   -2.2700  -15.0010 C.3       9 GLL5        0.0000 
     86 CA          7.1125   -3.7960  -13.4305 C.3       3 GLC5        0.0000 
     87 CA          8.6870   -2.5300  -14.2810 C.3       9 GLL5        0.0000 
     88 CA          7.0750   -5.4940  -12.2610 C.3       6 GLP5        0.0000 
     89 CA          5.0140   -1.3639  -11.7602 C.3       3 GLC5        0.0000 
     90 CA          5.9830   -0.8740  -13.4960 C.3       9 GLL5        0.0000 
     91 CA          4.4330   -2.1930  -10.3340 C.3       6 GLP5        0.0000 
     92 CA          5.9812    0.5745  -14.4897 C.3       3 GLC5        0.0000 
     93 CA          6.3400    1.7990  -15.6600 C.3       6 GLP5        0.0000 
     94 CA          9.0754   -1.0010  -16.1201 C.3       3 GLC5        0.0000 
     95 CA          7.7650   -2.6470  -16.3020 C.3       9 GLL5        0.0000 
     96 CA          9.7580    0.6340  -17.0620 C.3       6 GLP5        0.0000 
@<TRIPOS>BOND
@<TRIPOS>SUBSTRUCTURE
     1 ALC1       10 GROUP        1 X    ALC  0     ROOT ALC X 1
     2 SEC2        1 GROUP        1 X    SEC  0     **** SEC X 2
     3 GLC5        4 GROUP        1 X    GLC  0     **** GLC X 6
     4 ALP1       12 GROUP        1 Y    ALP  0     ROOT ALP Y 8
     5 SEP2        3 GROUP        1 Y    SEP  0     **** SEP Y 9
     6 GLP5        6 GROUP        1 Y    GLP  0     **** GLP Y 13
     7 ALL1       11 GROUP        1 Z    ALL  0     ROOT ALL Z 15
     8 SEL2        2 GROUP        1 Z    SEL  0     **** SEL Z 16
     9 GLL5        5 GROUP        1 Z    GLL  0     **** GLL Z 20
@<TRIPOS>SET

