#    Name: 4fv6_E57_1_ligand
#    Modification time : Mon Mar 24 20:50:59 2014

@<TRIPOS>MOLECULE
4fv6_E57_1_ligand
   57    59     1     0     0
SMALL
NO_CHARGES


@<TRIPOS>ATOM
      1 O1         11.7130   -3.0300  -14.0300 O.2       1 E57401      0.0000 
      2 C8         11.0600   -3.4510  -14.9760 C.2       1 E57401      0.0000 
      3 N1         11.6180   -4.1840  -15.9500 N.am      1 E57401      0.0000 
      4 C7         13.0060   -4.6420  -15.9720 C.3       1 E57401      0.0000 
      5 C22        13.3280   -5.1810  -17.3590 C.3       1 E57401      0.0000 
      6 O3         13.0330   -4.2230  -18.3570 O.3       1 E57401      0.0000 
      7 C3         13.3140   -5.7190  -14.9510 C.ar      1 E57401      0.0000 
      8 C2         14.6330   -5.9720  -14.5870 C.ar      1 E57401      0.0000 
      9 C4         12.3000   -6.4580  -14.3650 C.ar      1 E57401      0.0000 
     10 C5         12.5840   -7.3950  -13.3860 C.ar      1 E57401      0.0000 
     11 C6         13.8940   -7.6470  -13.0230 C.ar      1 E57401      0.0000 
     12 C1         14.9020   -6.9510  -13.6490 C.ar      1 E57401      0.0000 
     13 CL         16.5580   -7.3810  -13.3330 Cl        1 E57401      0.0000 
     14 C9          9.6100   -3.0970  -15.1290 C.2       1 E57401      0.0000 
     15 C12         8.6870   -2.5300  -14.2810 C.2       1 E57401      0.0000 
     16 C11         7.5090   -2.2700  -15.0010 C.2       1 E57401      0.0000 
     17 C10         7.7650   -2.6470  -16.3020 C.2       1 E57401      0.0000 
     18 N2          9.0190   -3.1420  -16.3710 N.pl3     1 E57401      0.0000 
     19 C13         6.2020   -1.7960  -14.5590 C.ar      1 E57401      0.0000 
     20 C16         5.9830   -0.8740  -13.4960 C.ar      1 E57401      0.0000 
     21 C17         7.0490   -0.3790  -12.5560 C.3       1 E57401      0.0000 
     22 C15         4.6740   -0.4430  -13.3470 C.ar      1 E57401      0.0000 
     23 N4          3.6530   -0.8470  -14.1040 N.ar      1 E57401      0.0000 
     24 C14         3.9560   -1.7310  -15.0570 C.ar      1 E57401      0.0000 
     25 N3          5.1770   -2.2360  -15.3140 N.ar      1 E57401      0.0000 
     26 N5          2.9240   -2.1050  -15.8330 N.pl3     1 E57401      0.0000 
     27 C18         2.8790   -3.0380  -16.9590 C.3       1 E57401      0.0000 
     28 C21         3.7260   -2.4910  -18.0960 C.3       1 E57401      0.0000 
     29 O2          3.3790   -3.0590  -19.3540 O.3       1 E57401      0.0000 
     30 C19         1.4110   -3.2100  -17.3690 C.3       1 E57401      0.0000 
     31 C20         0.6250   -4.0260  -16.4010 C.3       1 E57401      0.0000 
     32 H          11.0440   -4.4804  -16.7951 H         1 E57401      0.0000 
     33 H          13.6806   -3.8015  -15.7963 H         1 E57401      0.0000 
     34 H          12.7487   -6.1102  -17.4973 H         1 E57401      0.0000 
     35 H          14.3942   -5.4663  -17.3655 H         1 E57401      0.0000 
     36 H          15.3954   -5.4349  -15.0130 H         1 E57401      0.0000 
     37 H          11.3199   -6.3083  -14.6619 H         1 E57401      0.0000 
     38 H          11.8145   -7.9066  -12.9262 H         1 E57401      0.0000 
     39 H          14.1070   -8.3405  -12.3001 H         1 E57401      0.0000 
     40 H           8.8101   -2.3386  -13.3560 H         1 E57401      0.0000 
     41 H           7.1413   -2.5642  -17.0297 H         1 E57401      0.0000 
     42 H           9.4523   -3.4822  -17.1696 H         1 E57401      0.0000 
     43 H           4.4915    0.2635  -12.5636 H         1 E57401      0.0000 
     44 H           1.9408   -1.6625  -15.6206 H         1 E57401      0.0000 
     45 H           3.2631   -3.9949  -16.6584 H         1 E57401      0.0000 
     46 H           4.7887   -2.6829  -17.8443 H         1 E57401      0.0000 
     47 H           3.6063   -1.3886  -18.1025 H         1 E57401      0.0000 
     48 H           1.3835   -3.6784  -18.3664 H         1 E57401      0.0000 
     49 H           0.9611   -2.2089  -17.4706 H         1 E57401      0.0000 
     50 H           7.4742   -1.1286  -12.0488 H         1 E57401      0.0000 
     51 H           7.7809    0.0980  -13.0426 H         1 E57401      0.0000 
     52 H           6.6810    0.2602  -11.8807 H         1 E57401      0.0000 
     53 H           1.0004   -4.9475  -16.3012 H         1 E57401      0.0000 
     54 H           0.6145   -3.6135  -15.4901 H         1 E57401      0.0000 
     55 H          -0.3276   -4.1271  -16.6880 H         1 E57401      0.0000 
     56 H          13.7740   -3.5539  -18.3004 H         1 E57401      0.0000 
     57 H           4.1891   -2.9336  -19.9267 H         1 E57401      0.0000 
@<TRIPOS>BOND
     1    2    1 2    
     2    3    2 am   
     3   14    2 1    
     4    4    3 1    
     5   32    3 1    
     6    5    4 1    
     7    7    4 1    
     8   33    4 1    
     9    6    5 1    
    10   34    5 1    
    11   35    5 1    
    12   56    6 1    
    13    8    7 ar   
    14    9    7 ar   
    15   12    8 ar   
    16   36    8 1    
    17   10    9 ar   
    18   37    9 1    
    19   11   10 ar   
    20   38   10 1    
    21   12   11 ar   
    22   39   11 1    
    23   13   12 1    
    24   15   14 2    
    25   18   14 1    
    26   16   15 1    
    27   40   15 1    
    28   17   16 2    
    29   19   16 1    
    30   18   17 1    
    31   41   17 1    
    32   42   18 1    
    33   20   19 ar   
    34   25   19 ar   
    35   21   20 1    
    36   22   20 ar   
    37   50   21 1    
    38   51   21 1    
    39   52   21 1    
    40   23   22 ar   
    41   43   22 1    
    42   24   23 ar   
    43   25   24 ar   
    44   26   24 1    
    45   27   26 1    
    46   44   26 1    
    47   28   27 1    
    48   30   27 1    
    49   45   27 1    
    50   29   28 1    
    51   46   28 1    
    52   47   28 1    
    53   57   29 1    
    54   31   30 1    
    55   48   30 1    
    56   49   30 1    
    57   53   31 1    
    58   54   31 1    
    59   55   31 1    
@<TRIPOS>SUBSTRUCTURE
     1 E57401      1 GROUP   
@<TRIPOS>SET

