#    Name: 3e8e_G98_2_INTS_M
#    Modification time : Tue Mar 25 01:12:03 2014

@<TRIPOS>MOLECULE
3e8e_G98_2_INTS_M
   91     0    12     0     0
SMALL
NO_CHARGES


@<TRIPOS>ATOM
      1 N         -19.8380   35.4540   37.6130 N.am      2 SEC2        0.0000 
      2 N         -21.2130   35.9220   36.7180 N.am     10 SEL2        0.0000 
      3 N         -18.4630   34.9860   38.5080 N.am      6 SEP2        0.0000 
      4 CA        -25.9370   37.0375   37.5515 C.3       4 GLC5        0.0000 
      5 CA        -26.1880   36.5140   35.4120 C.3      12 GLL5        0.0000 
      6 CA        -25.6860   37.5610   39.6910 C.3       8 GLP5        0.0000 
      7 CA        -28.0980   37.3460   34.6650 C.3       4 GLC5        0.0000 
      8 CA        -30.0080   38.1780   33.9180 C.3       8 GLP5        0.0000 
      9 CA        -28.2410   36.3430   37.4080 C.3       4 GLC5        0.0000 
     10 CA        -26.7010   35.5930   36.4970 C.3      12 GLL5        0.0000 
     11 CA        -29.7810   37.0930   38.3190 C.3       8 GLP5        0.0000 
     12 CA        -27.4450   34.1515   37.2600 C.3       4 GLC5        0.0000 
     13 CA        -28.1890   32.7100   38.0230 C.3       8 GLP5        0.0000 
     14 CA        -26.0320   35.8540   38.2560 C.3       4 GLC5        0.0000 
     15 CA        -25.3630   36.1150   40.0150 C.3       8 GLP5        0.0000 
     16 CA        -18.9075   38.0400   39.6650 C.3       4 GLC5        0.0000 
     17 CA        -18.2590   39.8730   38.9240 C.3      12 GLL5        0.0000 
     18 CA        -19.5560   36.2070   40.4060 C.3       8 GLP5        0.0000 
     19 CA        -16.2945   38.8585   38.8305 C.3       4 GLC5        0.0000 
     20 CA        -14.3300   37.8440   38.7370 C.3       8 GLP5        0.0000 
     21 CA        -17.0265   39.7190   40.4830 C.3       4 GLC5        0.0000 
     22 CA        -15.7940   39.5650   42.0420 C.3       8 GLP5        0.0000 
     23 CA        -23.1590   34.1070   39.6030 C.3       4 GLC5        0.0000 
     24 CA        -22.4330   32.3670   39.4000 C.3      12 GLL5        0.0000 
     25 CA        -23.8850   35.8470   39.8060 C.3       8 GLP5        0.0000 
     26 N         -16.7475   38.1930   35.8310 N.am      2 SEC2        0.0000 
     27 N         -17.2790   38.7820   37.0250 N.am     10 SEL2        0.0000 
     28 N         -16.2160   37.6040   34.6370 N.am      6 SEP2        0.0000 
     29 O         -16.8910   37.7870   37.7515 O.2       1 ALC1        0.0000 
     30 O         -17.2790   38.7820   37.0250 O.2       9 ALL1        0.0000 
     31 O         -16.5030   36.7920   38.4780 O.2       5 ALP1        0.0000 
     32 CA        -19.1375   41.8105   35.3995 C.3       4 GLC5        0.0000 
     33 CA        -18.5440   40.7720   36.5770 C.3      12 GLL5        0.0000 
     34 CA        -19.7310   42.8490   34.2220 C.3       8 GLP5        0.0000 
     35 CA        -19.3335   40.2885   34.5485 C.3       4 GLC5        0.0000 
     36 CA        -20.1230   39.8050   32.5200 C.3       8 GLP5        0.0000 
     37 CA        -21.0725   38.8295   35.1260 C.3       4 GLC5        0.0000 
     38 CA        -20.6040   38.0240   37.1010 C.3      12 GLL5        0.0000 
     39 CA        -21.5410   39.6350   33.1510 C.3       8 GLP5        0.0000 
     40 CA        -20.6860   34.9145   38.0585 C.3       4 GLC5        0.0000 
     41 CA        -22.0880   34.9650   36.3650 C.3      12 GLL5        0.0000 
     42 CA        -19.2840   34.8640   39.7520 C.3       8 GLP5        0.0000 
     43 CA        -20.6505   35.2770   35.1320 C.3       4 GLC5        0.0000 
     44 CA        -19.2130   35.5890   33.8990 C.3       8 GLP5        0.0000 
     45 OD1       -20.4120   32.9040   34.0775 O.co2     3 ASC3        0.0000 
     46 OD1       -21.6740   32.5730   33.8770 O.co2    11 ASL3        0.0000 
     47 OD1       -19.1500   33.2350   34.2780 O.co2     7 ASP3        0.0000 
     48 O         -20.4120   32.9040   34.0775 O.2       1 ALC1        0.0000 
     49 O         -21.6740   32.5730   33.8770 O.2       9 ALL1        0.0000 
     50 O         -19.1500   33.2350   34.2780 O.2       5 ALP1        0.0000 
     51 CA        -25.7390   38.5865   37.7905 C.3       4 GLC5        0.0000 
     52 CA        -25.7920   39.6120   35.8900 C.3      12 GLL5        0.0000 
     53 O         -24.6100   43.0885   36.4425 O.2       1 ALC1        0.0000 
     54 O         -24.4420   41.7030   36.0350 O.2       9 ALL1        0.0000 
     55 O         -24.7780   44.4740   36.8500 O.2       5 ALP1        0.0000 
     56 CA        -22.0802   39.2968   37.6668 C.3       4 GLC5        0.0000 
     57 CA        -22.8610   37.6240   36.4510 C.3      12 GLL5        0.0000 
     58 CA        -21.9550   41.1690   38.7290 C.3       8 GLP5        0.0000 
     59 CA        -25.8403   40.9890   37.7125 C.3       4 GLC5        0.0000 
     60 CA        -25.9770   41.6710   39.5290 C.3       8 GLP5        0.0000 
     61 CA        -25.6152   40.4505   34.2865 C.3       4 GLC5        0.0000 
     62 CA        -25.6150   41.0020   35.9020 C.3      12 GLL5        0.0000 
     63 CA        -25.5270   40.5940   32.6770 C.3       8 GLP5        0.0000 
     64 CA        -18.4967   38.5085   35.6820 C.3       4 GLC5        0.0000 
     65 CA        -18.4290   39.5240   37.4450 C.3      12 GLL5        0.0000 
     66 CA        -18.5070   36.8690   34.3530 C.3       8 GLP5        0.0000 
     67 CA        -21.7150   29.4443   39.1735 C.3       4 GLC5        0.0000 
     68 CA        -20.6570   31.3180   38.1480 C.3      12 GLL5        0.0000 
     69 CA        -23.0450   27.8170   39.6060 C.3       8 GLP5        0.0000 
     70 CA        -19.8345   32.9677   39.2465 C.3       4 GLC5        0.0000 
     71 CA        -20.1130   30.8250   39.3340 C.3      12 GLL5        0.0000 
     72 CA        -22.1752   29.6555   40.0875 C.3       4 GLC5        0.0000 
     73 CA        -20.7250   31.1070   40.5550 C.3      12 GLL5        0.0000 
     74 CA        -21.6947   30.8740   42.4415 C.3       4 GLC5        0.0000 
     75 CA        -22.0840   30.2540   44.3140 C.3       8 GLP5        0.0000 
     76 CA        -20.2948   33.1790   40.1605 C.3       4 GLC5        0.0000 
     77 CA        -21.8860   31.8810   40.5830 C.3      12 GLL5        0.0000 
     78 CA        -23.5343   32.2360   41.4352 C.3       4 GLC5        0.0000 
     79 CA        -24.9090   32.3480   42.8790 C.3       8 GLP5        0.0000 
     80 CA        -20.7063   33.5470   39.2695 C.3       4 GLC5        0.0000 
     81 CA        -16.9410   40.8786   37.8309 C.3       4 GLC5        0.0000 
     82 CA        -15.4380   41.5220   38.2810 C.3       8 GLP5        0.0000 
     83 CA        -20.1995   40.7021   38.0549 C.3       4 GLC5        0.0000 
     84 CA        -21.0405   39.7707   37.9548 C.3       4 GLC5        0.0000 
     85 CA        -23.1624   36.5140   38.1601 C.3       4 GLC5        0.0000 
     86 CA        -21.5500   37.2250   36.7580 C.3      12 GLL5        0.0000 
     87 CA        -20.1970   37.0029   38.6876 C.3       4 GLC5        0.0000 
     88 CA        -22.3299   37.7680   34.5901 C.3       4 GLC5        0.0000 
     89 CA        -22.2200   38.3550   32.6660 C.3       8 GLP5        0.0000 
     90 CA        -19.6725   37.3339   35.6611 C.3       4 GLC5        0.0000 
     91 CA        -23.3163   35.4928   38.0052 C.3       4 GLC5        0.0000 
@<TRIPOS>BOND
@<TRIPOS>SUBSTRUCTURE
     1 ALC1       29 GROUP        1 X    ALC  0     ROOT ALC X 1
     2 SEC2        1 GROUP        1 X    SEC  0     **** SEC X 2
     3 ASC3       45 GROUP        1 X    ASC  0     **** ASC X 3
     4 GLC5        4 GROUP        1 X    GLC  0     **** GLC X 6
     5 ALP1       31 GROUP        1 Y    ALP  0     ROOT ALP Y 8
     6 SEP2        3 GROUP        1 Y    SEP  0     **** SEP Y 9
     7 ASP3       47 GROUP        1 Y    ASP  0     **** ASP Y 10
     8 GLP5        6 GROUP        1 Y    GLP  0     **** GLP Y 13
     9 ALL1       30 GROUP        1 Z    ALL  0     ROOT ALL Z 15
    10 SEL2        2 GROUP        1 Z    SEL  0     **** SEL Z 16
    11 ASL3       46 GROUP        1 Z    ASL  0     **** ASL Z 17
    12 GLL5        5 GROUP        1 Z    GLL  0     **** GLL Z 20
@<TRIPOS>SET

