#    Name: 3e8e_G98_2_ligand
#    Modification time : Tue Mar 25 01:12:03 2014

@<TRIPOS>MOLECULE
3e8e_G98_2_ligand
   67    70     1     0     0
SMALL
NO_CHARGES


@<TRIPOS>ATOM
      1 N1        -21.2130   35.9220   36.7180 N.ar      1 G98351      0.0000 
      2 N3        -23.4880   38.8250   36.4150 N.2       1 G98351      0.0000 
      3 C4        -24.7490   38.5460   36.0400 C.2       1 G98351      0.0000 
      4 C5        -22.8610   37.6240   36.4510 C.ar      1 G98351      0.0000 
      5 C6        -23.7980   36.6500   36.0900 C.ar      1 G98351      0.0000 
      6 C7        -26.1880   36.5140   35.4120 C.3       1 G98351      0.0000 
      7 C8        -26.7010   35.5930   36.4970 C.3       1 G98351      0.0000 
      8 C10       -25.6150   41.0020   35.9020 C.2       1 G98351      0.0000 
      9 C13       -18.4290   39.5240   37.4450 C.3       1 G98351      0.0000 
     10 C15       -18.2590   39.8730   38.9240 C.3       1 G98351      0.0000 
     11 C17       -22.6970   31.5100   35.8980 C.3       1 G98351      0.0000 
     12 C20       -20.6570   31.3180   38.1480 C.ar      1 G98351      0.0000 
     13 C21       -20.1130   30.8250   39.3340 C.ar      1 G98351      0.0000 
     14 C22       -20.7250   31.1070   40.5550 C.ar      1 G98351      0.0000 
     15 C24       -22.4330   32.3670   39.4000 C.ar      1 G98351      0.0000 
     16 O2        -17.2790   38.7820   37.0250 O.3       1 G98351      0.0000 
     17 C14       -18.5440   40.7720   36.5770 C.3       1 G98351      0.0000 
     18 C12       -19.6480   38.7210   37.2600 C.2       1 G98351      0.0000 
     19 C11       -20.6040   38.0240   37.1010 C.2       1 G98351      0.0000 
     20 C3        -21.5500   37.2250   36.7580 C.ar      1 G98351      0.0000 
     21 C1        -22.0880   34.9650   36.3650 C.ar      1 G98351      0.0000 
     22 O3        -21.6440   33.6630   36.3430 O.3       1 G98351      0.0000 
     23 C16       -22.4410   32.6250   36.9230 C.3       1 G98351      0.0000 
     24 C19       -21.8240   32.0930   38.1740 C.ar      1 G98351      0.0000 
     25 C23       -21.8860   31.8810   40.5830 C.ar      1 G98351      0.0000 
     26 C18       -21.6660   31.4110   34.7660 C.3       1 G98351      0.0000 
     27 N7        -21.6740   32.5730   33.8770 N.4       1 G98351      0.0000 
     28 C2        -23.4070   35.3120   36.0440 C.ar      1 G98351      0.0000 
     29 N2        -24.9760   37.2370   35.8410 N.pl3     1 G98351      0.0000 
     30 C9        -25.7920   39.6120   35.8900 C.2       1 G98351      0.0000 
     31 N6        -24.4420   41.7030   36.0350 N.4       1 G98351      0.0000 
     32 N5        -26.7800   41.6630   35.7480 N.pl3     1 G98351      0.0000 
     33 O1        -27.7130   40.5770   35.6510 O.3       1 G98351      0.0000 
     34 N4        -27.0990   39.2920   35.7550 N.pl3     1 G98351      0.0000 
     35 H         -26.9830   37.2274   35.1505 H         1 G98351      0.0000 
     36 H         -25.9754   35.9161   34.5138 H         1 G98351      0.0000 
     37 H         -23.6994   31.6604   35.4537 H         1 G98351      0.0000 
     38 H         -22.7342   30.5407   36.4307 H         1 G98351      0.0000 
     39 H         -20.2018   31.1134   37.2494 H         1 G98351      0.0000 
     40 H         -19.2596   30.2529   39.3079 H         1 G98351      0.0000 
     41 H         -20.3249   30.7481   41.4270 H         1 G98351      0.0000 
     42 H         -23.2935   32.9333   39.4264 H         1 G98351      0.0000 
     43 H         -20.4459   39.9346   37.4988 H         1 G98351      0.0000 
     44 H         -21.2244   38.3631   38.3424 H         1 G98351      0.0000 
     45 H         -23.4369   33.0345   37.1869 H         1 G98351      0.0000 
     46 H         -22.3376   32.0919   41.4834 H         1 G98351      0.0000 
     47 H         -21.8745   30.4852   34.1988 H         1 G98351      0.0000 
     48 H         -20.6696   31.2799   35.2267 H         1 G98351      0.0000 
     49 H         -24.0770   34.5862   35.7779 H         1 G98351      0.0000 
     50 H         -26.9792   42.5455   35.7091 H         1 G98351      0.0000 
     51 H         -27.5240   38.4876   35.7309 H         1 G98351      0.0000 
     52 H         -26.0227   34.9031   36.7499 H         1 G98351      0.0000 
     53 H         -26.9339   36.0944   37.3303 H         1 G98351      0.0000 
     54 H         -27.5242   35.1032   36.2099 H         1 G98351      0.0000 
     55 H         -18.1716   39.0541   39.4912 H         1 G98351      0.0000 
     56 H         -17.4427   40.4282   39.0831 H         1 G98351      0.0000 
     57 H         -19.0389   40.3910   39.2754 H         1 G98351      0.0000 
     58 H         -17.7308   41.3497   36.6475 H         1 G98351      0.0000 
     59 H         -18.6578   40.5428   35.6103 H         1 G98351      0.0000 
     60 H         -19.3275   41.3356   36.8388 H         1 G98351      0.0000 
     61 H         -20.7900   33.0405   33.8688 H         1 G98351      0.0000 
     62 H         -21.8786   32.3165   32.9324 H         1 G98351      0.0000 
     63 H         -22.3594   33.2469   34.1527 H         1 G98351      0.0000 
     64 H         -23.9821   41.4970   36.8987 H         1 G98351      0.0000 
     65 H         -23.7968   41.4900   35.3013 H         1 G98351      0.0000 
     66 H         -24.5952   42.6909   36.0129 H         1 G98351      0.0000 
     67 H         -17.1620   38.0715   37.7189 H         1 G98351      0.0000 
@<TRIPOS>BOND
     1   20    1 ar   
     2   21    1 ar   
     3    3    2 2    
     4    4    2 1    
     5   29    3 1    
     6   30    3 1    
     7    5    4 ar   
     8   20    4 ar   
     9   28    5 ar   
    10   29    5 1    
    11    7    6 1    
    12   29    6 1    
    13   35    6 1    
    14   36    6 1    
    15   52    7 1    
    16   53    7 1    
    17   54    7 1    
    18   30    8 2    
    19   31    8 1    
    20   32    8 1    
    21   10    9 1    
    22   16    9 1    
    23   17    9 1    
    24   18    9 1    
    25   55   10 1    
    26   56   10 1    
    27   57   10 1    
    28   23   11 1    
    29   26   11 1    
    30   37   11 1    
    31   38   11 1    
    32   13   12 ar   
    33   24   12 ar   
    34   39   12 1    
    35   14   13 ar   
    36   40   13 1    
    37   25   14 ar   
    38   41   14 1    
    39   24   15 ar   
    40   25   15 ar   
    41   42   15 1    
    42   67   16 1    
    43   58   17 1    
    44   59   17 1    
    45   60   17 1    
    46   19   18 2    
    47   43   18 1    
    48   20   19 1    
    49   44   19 1    
    50   22   21 1    
    51   28   21 ar   
    52   23   22 1    
    53   24   23 1    
    54   45   23 1    
    55   46   25 1    
    56   27   26 1    
    57   47   26 1    
    58   48   26 1    
    59   61   27 1    
    60   62   27 1    
    61   63   27 1    
    62   49   28 1    
    63   34   30 1    
    64   64   31 1    
    65   65   31 1    
    66   66   31 1    
    67   33   32 1    
    68   50   32 1    
    69   34   33 1    
    70   51   34 1    
@<TRIPOS>SUBSTRUCTURE
     1 G98351      1 GROUP   
@<TRIPOS>SET

