#    Name: 3G0D_1_CAVITY_N1_6.mol2
#    Modification time : Mon Mar 10 18:00:27 2014

@<TRIPOS>MOLECULE
3G0D_1_CAVITY_N1_6.mol2
  142     0     7     0     0
SMALL
NO_CHARGES


@<TRIPOS>ATOM
      1 CZ         43.4054   -1.1771   10.2310 C.ar      5 PHE5        0.0000 
      2 CZ         42.5040   -1.5057   11.3840 C.ar      5 PHE5        0.0000 
      3 OG         41.6025   -1.8342   12.5370 O.2       1 SER1        0.0000 
      4 CZ         43.4152   -2.6216    9.8269 C.ar      5 PHE5        0.0000 
      5 DU         42.5137   -2.9502   10.9799 H         7 CUB7        0.0000 
      6 OG         41.6123   -3.2788   12.1329 O.2       1 SER1        0.0000 
      7 OG         40.7108   -3.6074   13.2859 O.2       1 SER1        0.0000 
      8 OD1        44.6433   -7.1905    9.4850 O.3       3 ASP3        0.0000 
      9 DU         43.7419   -7.5191   10.6380 H         7 CUB7        0.0000 
     10 DU         44.6531   -8.6350    9.0810 H         7 CUB7        0.0000 
     11 DU         43.7516   -8.9636   10.2340 H         7 CUB7        0.0000 
     12 CZ         43.6931   -0.2964   12.6583 C.ar      5 PHE5        0.0000 
     13 DU         42.7917   -0.6250   13.8113 H         7 CUB7        0.0000 
     14 OG         41.8902   -0.9536   14.9643 O.2       1 SER1        0.0000 
     15 CA         40.9888   -1.2822   16.1173 C.3       6 GLY6        0.0000 
     16 OD1        43.4249   -4.0661    9.4229 O.3       3 ASP3        0.0000 
     17 DU         42.5235   -4.3947   10.5759 H         7 CUB7        0.0000 
     18 CA         41.6220   -4.7233   11.7289 C.3       6 GLY6        0.0000 
     19 CA         40.7206   -5.0519   12.8819 C.3       6 GLY6        0.0000 
     20 CA         45.5252   -3.9728    9.1401 C.3       6 GLY6        0.0000 
     21 DU         44.6238   -4.3014   10.2931 H         7 CUB7        0.0000 
     22 DU         42.8209   -4.9586   12.5991 H         7 CUB7        0.0000 
     23 DU         41.9195   -5.2872   13.7521 H         7 CUB7        0.0000 
     24 CZ         42.7624    3.7085   15.0234 C.ar      5 PHE5        0.0000 
     25 OG         41.8609    3.3799   16.1764 O.2       1 SER1        0.0000 
     26 CZ         46.7241   -4.2082   10.0104 C.ar      5 PHE5        0.0000 
     27 CZ         40.1452   -6.8131    8.0273 C.ar      5 PHE5        0.0000 
     28 CZ         40.3646    4.1792   13.2829 C.ar      5 PHE5        0.0000 
     29 CZ         44.8627    3.8018   14.7406 C.ar      5 PHE5        0.0000 
     30 CZ         43.9613    3.4732   15.8936 C.ar      5 PHE5        0.0000 
     31 NZ         43.0598    3.1446   17.0467 N.2       4 LYS4        0.0000 
     32 CA         48.4398    5.9849   18.1595 C.3       6 GLY6        0.0000 
     33 N          47.5384    5.6563   19.3125 N.2       2 ALA2        0.0000 
     34 CZ         48.4496    4.5404   17.7554 C.ar      5 PHE5        0.0000 
     35 OG         47.5481    4.2118   18.9084 O.2       1 SER1        0.0000 
     36 CZ         43.7028   -1.7410   12.2542 C.ar      5 PHE5        0.0000 
     37 OG         42.8014   -2.0696   13.4072 O.2       1 SER1        0.0000 
     38 OG         41.9000   -2.3982   14.5602 O.2       1 SER1        0.0000 
     39 CA         40.9985   -2.7268   15.7132 C.3       6 GLY6        0.0000 
     40 OD1        43.4444   -6.9552    8.6148 O.3       3 ASP3        0.0000 
     41 DU         42.5430   -7.2838    9.7678 H         7 CUB7        0.0000 
     42 CZ         41.6415   -7.6123   10.9208 C.ar      5 PHE5        0.0000 
     43 CZ         40.7401   -7.9409   12.0738 C.ar      5 PHE5        0.0000 
     44 DU         44.0003   -2.3049   14.2775 H         7 CUB7        0.0000 
     45 O          42.1974   -2.9621   16.5835 O.2       2 ALA2        0.0000 
     46 DU         48.4593    3.0958   17.3514 H         7 CUB7        0.0000 
     47 OG         47.5579    2.7673   18.5044 O.2       1 SER1        0.0000 
     48 N          46.6564    2.4387   19.6574 N.2       2 ALA2        0.0000 
     49 OG         46.9825    1.0060   13.6498 O.2       1 SER1        0.0000 
     50 DU         45.1796    0.3488   15.9558 H         7 CUB7        0.0000 
     51 O          44.2782    0.0202   17.1088 O.2       2 ALA2        0.0000 
     52 CA         40.3744    2.7346   12.8789 C.3       6 GLY6        0.0000 
     53 OG         39.4729    2.4061   14.0319 O.2       1 SER1        0.0000 
     54 OG         38.5715    2.0775   15.1849 O.2       1 SER1        0.0000 
     55 DU         43.9905   -0.8604   14.6815 H         7 CUB7        0.0000 
     56 O          43.0891   -1.1890   15.8345 O.2       2 ALA2        0.0000 
     57 CA         49.6387    5.7496   19.0297 C.3       6 GLY6        0.0000 
     58 N          48.7373    5.4210   20.1827 N.2       2 ALA2        0.0000 
     59 CZ         50.5499    4.6336   17.4727 C.ar      5 PHE5        0.0000 
     60 OG         49.6485    4.3050   18.6257 O.2       1 SER1        0.0000 
     61 OG         48.7470    3.9765   19.7787 O.2       1 SER1        0.0000 
     62 OD1        45.4771   -0.2151   17.9790 O.3       3 ASP3        0.0000 
     63 CZ         44.6140   -2.8569   10.6972 C.ar      5 PHE5        0.0000 
     64 DU         43.7126   -3.1855   11.8502 H         7 CUB7        0.0000 
     65 DU         42.8112   -3.5141   13.0032 H         7 CUB7        0.0000 
     66 OG         41.9097   -3.8427   14.1562 O.2       1 SER1        0.0000 
     67 N          41.3149   -2.7149   10.1097 N.2       2 ALA2        0.0000 
     68 N          40.4134   -3.0435   11.2627 N.2       2 ALA2        0.0000 
     69 OG         43.6736    2.5926   13.4664 O.2       1 SER1        0.0000 
     70 DU         42.7721    2.2640   14.6194 H         7 CUB7        0.0000 
     71 OG         41.8707    1.9354   15.7724 O.2       1 SER1        0.0000 
     72 OG         40.9693    1.6068   16.9254 O.2       1 SER1        0.0000 
     73 N          41.0369   -5.0400    7.2783 N.2       2 ALA2        0.0000 
     74 OG         48.7568    2.5319   19.3746 O.2       1 SER1        0.0000 
     75 O          41.2953    0.1742   10.9178 O.2       2 ALA2        0.0000 
     76 N          41.3051   -1.2703   10.5137 N.2       2 ALA2        0.0000 
     77 OD1        43.4347   -5.5106    9.0188 O.3       3 ASP3        0.0000 
     78 DU         42.5332   -5.8392   10.1718 H         7 CUB7        0.0000 
     79 CA         41.6318   -6.1678   11.3248 C.3       6 GLY6        0.0000 
     80 CA         40.7303   -6.4964   12.4778 C.3       6 GLY6        0.0000 
     81 OG         39.4632    3.8506   14.4359 O.2       1 SER1        0.0000 
     82 DU         47.5676    1.3227   18.1003 H         7 CUB7        0.0000 
     83 N          46.6662    0.9941   19.2533 N.2       2 ALA2        0.0000 
     84 N          42.2261   -3.8308    8.5526 N.2       2 ALA2        0.0000 
     85 CA         41.3246   -4.1594    9.7056 C.3       6 GLY6        0.0000 
     86 OD1        42.2358   -5.2753    8.1486 O.3       3 ASP3        0.0000 
     87 CA         41.3344   -5.6039    9.3016 C.3       6 GLY6        0.0000 
     88 OG         44.8725    2.3573   14.3366 O.2       1 SER1        0.0000 
     89 DU         43.9710    2.0287   15.4896 H         7 CUB7        0.0000 
     90 NZ         43.0696    1.7001   16.6426 N.2       4 LYS4        0.0000 
     91 OD1        43.4542   -8.3997    8.2107 O.3       3 ASP3        0.0000 
     92 DU         42.5527   -8.7283    9.3637 H         7 CUB7        0.0000 
     93 O          38.2741    2.6414   13.1616 O.2       2 ALA2        0.0000 
     94 CZ         47.2605    3.3312   16.4811 C.ar      5 PHE5        0.0000 
     95 DU         46.3590    3.0026   17.6341 H         7 CUB7        0.0000 
     96 N          45.4576    2.6740   18.7871 N.2       2 ALA2        0.0000 
     97 OG         47.8651    0.7588   20.1236 O.2       1 SER1        0.0000 
     98 CZ         42.4845    1.3834   12.1921 C.ar      5 PHE5        0.0000 
     99 CA         41.5830    1.0548   13.3451 C.3       6 GLY6        0.0000 
    100 CA         40.6816    0.7262   14.4981 C.3       6 GLY6        0.0000 
    101 N          39.7801    0.3976   15.6511 N.2       2 ALA2        0.0000 
    102 OD1        42.2456   -6.7198    7.7445 O.3       3 ASP3        0.0000 
    103 CZ         41.3441   -7.0484    8.8975 C.ar      5 PHE5        0.0000 
    104 CA         40.4427   -7.3770   10.0505 C.3       6 GLY6        0.0000 
    105 CZ         41.5635    3.9439   14.1532 C.ar      5 PHE5        0.0000 
    106 CZ         46.0518    5.0110   16.0149 C.ar      5 PHE5        0.0000 
    107 NZ         45.1504    4.6824   17.1679 N.2       4 LYS4        0.0000 
    108 CZ         46.0616    3.5665   15.6109 C.ar      5 PHE5        0.0000 
    109 NZ         45.1601    3.2379   16.7639 N.2       4 LYS4        0.0000 
    110 NZ         44.2587    2.9093   17.9169 N.2       4 LYS4        0.0000 
    111 OG         46.0713    2.1220   15.2068 O.2       1 SER1        0.0000 
    112 DU         45.1699    1.7934   16.3598 H         7 CUB7        0.0000 
    113 NZ         44.2684    1.4648   17.5129 N.2       4 LYS4        0.0000 
    114 CZ         42.4942   -0.0611   11.7880 C.ar      5 PHE5        0.0000 
    115 CA         41.5928   -0.3897   12.9410 C.3       6 GLY6        0.0000 
    116 OG         43.6833    1.1481   13.0623 O.2       1 SER1        0.0000 
    117 DU         42.7819    0.8195   14.2153 H         7 CUB7        0.0000 
    118 DU         41.8805    0.4909   15.3683 H         7 CUB7        0.0000 
    119 O          40.9790    0.1623   16.5213 O.2       2 ALA2        0.0000 
    120 O          50.8376    5.5143   19.9000 O.2       2 ALA2        0.0000 
    121 OG         50.8473    4.0697   19.4959 O.2       1 SER1        0.0000 
    122 NZ         45.4673    1.2295   18.3831 N.2       4 LYS4        0.0000 
    123 NZ         44.5659    0.9009   19.5361 N.2       4 LYS4        0.0000 
    124 OG         40.6621    3.6153   15.3062 O.2       1 SER1        0.0000 
    125 OG         42.4747    2.8279   12.5961 O.2       1 SER1        0.0000 
    126 OG         41.5733    2.4993   13.7491 O.2       1 SER1        0.0000 
    127 OG         40.6718    2.1707   14.9021 O.2       1 SER1        0.0000 
    128 OD1        45.5350   -5.4174    8.7361 O.3       3 ASP3        0.0000 
    129 OD1        44.6336   -5.7460    9.8891 O.3       3 ASP3        0.0000 
    130 DU         43.7321   -6.0745   11.0421 H         7 CUB7        0.0000 
    131 DU         42.8307   -6.4031   12.1951 H         7 CUB7        0.0000 
    132 OD1        45.5448   -6.8619    8.3320 O.3       3 ASP3        0.0000 
    133 CZ         47.2410    6.2202   17.2892 C.ar      5 PHE5        0.0000 
    134 NZ         46.3395    5.8916   18.4422 N.2       4 LYS4        0.0000 
    135 CZ         47.2507    4.7757   16.8852 C.ar      5 PHE5        0.0000 
    136 NZ         46.3493    4.4471   18.0382 N.2       4 LYS4        0.0000 
    137 N          45.4478    4.1185   19.1912 N.2       2 ALA2        0.0000 
    138 CA         40.3841    1.2901   12.4748 C.3       6 GLY6        0.0000 
    139 OG         44.8822    0.9128   13.9325 O.2       1 SER1        0.0000 
    140 DU         43.9808    0.5842   15.0856 H         7 CUB7        0.0000 
    141 O          43.0793    0.2556   16.2386 O.2       2 ALA2        0.0000 
    142 CA         38.2643    4.0859   13.5657 C.3       6 GLY6        0.0000 
@<TRIPOS>BOND
@<TRIPOS>SUBSTRUCTURE
     1 SER1        3 GROUP   
     2 ALA2       33 GROUP   
     3 ASP3        8 GROUP   
     4 LYS4       31 GROUP   
     5 PHE5        1 GROUP   
     6 GLY6       15 GROUP   
     7 CUB7        5 GROUP   
@<TRIPOS>SET

