#    Name: 3g0d_XIH_1_INTS_M
#    Modification time : Tue Mar 25 06:56:04 2014

@<TRIPOS>MOLECULE
3g0d_XIH_1_INTS_M
   49     0    12     0     0
SMALL
NO_CHARGES


@<TRIPOS>ATOM
      1 CA         42.8545    4.3655   14.0245 C.3       4 GLC5        0.0000 
      2 CA         42.4830    2.4980   13.8840 C.3      12 GLL5        0.0000 
      3 CA         43.2260    6.2330   14.1650 C.3       8 GLP5        0.0000 
      4 CA         39.4375   -0.8790   16.2430 C.3       4 GLC5        0.0000 
      5 CA         40.7500    0.8000   15.6100 C.3      12 GLL5        0.0000 
      6 CA         38.1250   -2.5580   16.8760 C.3       8 GLP5        0.0000 
      7 CA         42.7605   -0.4755    9.2900 C.3       4 GLC5        0.0000 
      8 CA         41.7520   -1.8160   10.0220 C.3      12 GLL5        0.0000 
      9 CA         43.7690    0.8650    8.5580 C.3       8 GLP5        0.0000 
     10 CA         40.2260   -1.3045   11.2060 C.3       4 GLC5        0.0000 
     11 CA         38.7000   -0.7930   12.3900 C.3       8 GLP5        0.0000 
     12 N          40.0100    0.7975   10.9180 N.am      2 SEC2        0.0000 
     13 N          41.4390    0.6360   11.4140 N.am     10 SEL2        0.0000 
     14 N          38.5810    0.9590   10.4220 N.am      6 SEP2        0.0000 
     15 OD1        42.7120    1.8525   19.2260 O.co2     3 ASC3        0.0000 
     16 OD1        43.4260    2.7020   18.3750 O.co2    11 ASL3        0.0000 
     17 OD1        41.9980    1.0030   20.0770 O.co2     7 ASP3        0.0000 
     18 OD1        43.3660    4.2150   18.6985 O.co2     3 ASC3        0.0000 
     19 OD1        43.3060    5.7280   19.0220 O.co2     7 ASP3        0.0000 
     20 OD1        42.2770    4.1080   18.7560 O.co2     3 ASC3        0.0000 
     21 OD1        41.1280    5.5140   19.1370 O.co2     7 ASP3        0.0000 
     22 O          42.7120    1.8525   19.2260 O.2       1 ALC1        0.0000 
     23 O          43.4260    2.7020   18.3750 O.2       9 ALL1        0.0000 
     24 O          41.9980    1.0030   20.0770 O.2       5 ALP1        0.0000 
     25 O          43.3660    4.2150   18.6985 O.2       1 ALC1        0.0000 
     26 O          43.3060    5.7280   19.0220 O.2       5 ALP1        0.0000 
     27 O          42.5565    3.3795   17.5300 O.2       1 ALC1        0.0000 
     28 O          41.6870    4.0570   16.6850 O.2       5 ALP1        0.0000 
     29 N          41.8110   -0.5700   17.7145 N.am      2 SEC2        0.0000 
     30 N          41.2610    0.0890   16.3760 N.am     10 SEL2        0.0000 
     31 N          42.3610   -1.2290   19.0530 N.am      6 SEP2        0.0000 
     32 CA         45.6615   -1.4530   11.6470 C.3       4 GLC5        0.0000 
     33 CA         45.3330   -2.9560   13.2860 C.3      12 GLL5        0.0000 
     34 CA         45.9900    0.0500   10.0080 C.3       8 GLP5        0.0000 
     35 CA         46.6280    4.4138   14.9162 C.3       4 GLC5        0.0000 
     36 CA         45.4420    2.8400   15.4660 C.3      12 GLL5        0.0000 
     37 CA         47.7640    5.5160   13.7670 C.3       8 GLP5        0.0000 
     38 CA         44.3590    4.7722   15.1152 C.3       4 GLC5        0.0000 
     39 CA         38.6380    1.1672   12.9593 C.3       4 GLC5        0.0000 
     40 CA         38.9510    3.5370   13.1090 C.3      12 GLL5        0.0000 
     41 CA         39.9010    3.0380   11.2820 C.3       4 GLC5        0.0000 
     42 CA         40.1590    2.5980    9.4470 C.3       8 GLP5        0.0000 
     43 CA         36.8325    3.7962   13.1687 C.3       4 GLC5        0.0000 
     44 CA         35.0890    4.4650   12.8090 C.3       8 GLP5        0.0000 
     45 CA         36.8667    1.7235   14.9745 C.3       4 GLC5        0.0000 
     46 CA         38.2010    2.7180   13.9480 C.3      12 GLL5        0.0000 
     47 CA         35.2200    1.1920   15.5830 C.3       8 GLP5        0.0000 
     48 CA         39.6283    0.5437   13.4842 C.3       4 GLC5        0.0000 
     49 CA         38.8260    1.7920   14.7840 C.3      12 GLL5        0.0000 
@<TRIPOS>BOND
@<TRIPOS>SUBSTRUCTURE
     1 ALC1       22 GROUP        1 X    ALC  0     ROOT ALC X 1
     2 SEC2       12 GROUP        1 X    SEC  0     **** SEC X 2
     3 ASC3       15 GROUP        1 X    ASC  0     **** ASC X 3
     4 GLC5        1 GROUP        1 X    GLC  0     **** GLC X 6
     5 ALP1       24 GROUP        1 Y    ALP  0     ROOT ALP Y 8
     6 SEP2       14 GROUP        1 Y    SEP  0     **** SEP Y 9
     7 ASP3       17 GROUP        1 Y    ASP  0     **** ASP Y 10
     8 GLP5        3 GROUP        1 Y    GLP  0     **** GLP Y 13
     9 ALL1       23 GROUP        1 Z    ALL  0     ROOT ALL Z 15
    10 SEL2       13 GROUP        1 Z    SEL  0     **** SEL Z 16
    11 ASL3       16 GROUP        1 Z    ASL  0     **** ASL Z 17
    12 GLL5        2 GROUP        1 Z    GLL  0     **** GLL Z 20
@<TRIPOS>SET

