#    Name: 3g0d_XIH_1_ligand
#    Modification time : Tue Mar 25 06:56:04 2014

@<TRIPOS>MOLECULE
3g0d_XIH_1_ligand
   53    56     1     0     0
SMALL
NO_CHARGES


@<TRIPOS>ATOM
      1 C5         43.1440    0.1760   13.0240 C.2       1 XIH800      0.0000 
      2 C6         44.1360   -0.8220   13.4410 C.2       1 XIH800      0.0000 
      3 C8         44.2020    0.8640   14.7340 C.2       1 XIH800      0.0000 
      4 C10        45.4420    2.8400   15.4660 C.3       1 XIH800      0.0000 
      5 C13        44.7140    2.0420   18.2610 C.3       1 XIH800      0.0000 
      6 C15        44.6520    1.0030   17.1360 C.3       1 XIH800      0.0000 
      7 C17        42.4830    2.4980   13.8840 C.3       1 XIH800      0.0000 
      8 C20        38.9510    3.5370   13.1090 C.ar      1 XIH800      0.0000 
      9 C21        38.2010    2.7180   13.9480 C.ar      1 XIH800      0.0000 
     10 C22        38.8260    1.7920   14.7840 C.ar      1 XIH800      0.0000 
     11 C24        40.7500    0.8000   15.6100 C.1       1 XIH800      0.0000 
     12 C28        43.5150   -2.2950   11.6930 C.2       1 XIH800      0.0000 
     13 C          41.7520   -1.8160   10.0220 C.3       1 XIH800      0.0000 
     14 N          42.5230   -1.4020   11.2060 N.am      1 XIH800      0.0000 
     15 C3         42.2990   -0.1530   11.8420 C.2       1 XIH800      0.0000 
     16 O          41.4390    0.6360   11.4140 O.2       1 XIH800      0.0000 
     17 N7         44.7670   -0.3490   14.5170 N.2       1 XIH800      0.0000 
     18 N9         44.7210    1.5970   15.7920 N.3       1 XIH800      0.0000 
     19 C11        45.5420    3.7830   16.6650 C.3       1 XIH800      0.0000 
     20 C12        45.8260    3.0480   17.9720 C.3       1 XIH800      0.0000 
     21 N14        43.4260    2.7020   18.3750 N.4       1 XIH800      0.0000 
     22 N16        43.2160    1.2240   13.8780 N.pl3     1 XIH800      0.0000 
     23 C18        40.9760    2.4950   13.9560 C.ar      1 XIH800      0.0000 
     24 C19        40.3350    3.4190   13.1250 C.ar      1 XIH800      0.0000 
     25 C23        40.2220    1.6710   14.8000 C.ar      1 XIH800      0.0000 
     26 N25        41.2610    0.0890   16.3760 N.1       1 XIH800      0.0000 
     27 N26        44.3250   -1.9920   12.8120 N.am      1 XIH800      0.0000 
     28 C27        45.3330   -2.9560   13.2860 C.3       1 XIH800      0.0000 
     29 O29        43.6960   -3.3840   11.1160 O.2       1 XIH800      0.0000 
     30 H          44.9343    3.3753   14.6487 H         1 XIH800      0.0000 
     31 H          46.4626    2.6127   15.1210 H         1 XIH800      0.0000 
     32 H          44.9571    1.5199   19.1768 H         1 XIH800      0.0000 
     33 H          43.7163    0.4270   17.2551 H         1 XIH800      0.0000 
     34 H          45.4827    0.2893   17.2850 H         1 XIH800      0.0000 
     35 H          42.7820    3.1031   12.9687 H         1 XIH800      0.0000 
     36 H          42.8665    3.1434   14.7382 H         1 XIH800      0.0000 
     37 H          38.4927    4.2095   12.4956 H         1 XIH800      0.0000 
     38 H          37.1718    2.7952   13.9530 H         1 XIH800      0.0000 
     39 H          38.2574    1.1896   15.3970 H         1 XIH800      0.0000 
     40 H          44.6008    4.3384   16.7624 H         1 XIH800      0.0000 
     41 H          46.3418    4.5112   16.4813 H         1 XIH800      0.0000 
     42 H          46.7733    2.5232   17.8914 H         1 XIH800      0.0000 
     43 H          45.8807    3.7664   18.7845 H         1 XIH800      0.0000 
     44 H          40.9075    4.0261   12.5102 H         1 XIH800      0.0000 
     45 H          42.3427   -1.9741    9.2308 H         1 XIH800      0.0000 
     46 H          41.2474   -2.6638   10.1852 H         1 XIH800      0.0000 
     47 H          41.0824   -1.1233    9.7540 H         1 XIH800      0.0000 
     48 H          43.5181    3.6420   18.7034 H         1 XIH800      0.0000 
     49 H          42.9511    2.7439   17.4960 H         1 XIH800      0.0000 
     50 H          42.8203    2.2266   19.0130 H         1 XIH800      0.0000 
     51 H          46.2534   -2.5650   13.2782 H         1 XIH800      0.0000 
     52 H          45.1495   -3.2549   14.2225 H         1 XIH800      0.0000 
     53 H          45.3585   -3.7772   12.7159 H         1 XIH800      0.0000 
@<TRIPOS>BOND
     1    2    1 2    
     2   15    1 1    
     3   22    1 1    
     4   17    2 1    
     5   27    2 1    
     6   17    3 2    
     7   18    3 1    
     8   22    3 1    
     9   18    4 1    
    10   19    4 1    
    11   30    4 1    
    12   31    4 1    
    13    6    5 1    
    14   20    5 1    
    15   21    5 1    
    16   32    5 1    
    17   18    6 1    
    18   33    6 1    
    19   34    6 1    
    20   22    7 1    
    21   23    7 1    
    22   35    7 1    
    23   36    7 1    
    24    9    8 ar   
    25   24    8 ar   
    26   37    8 1    
    27   10    9 ar   
    28   38    9 1    
    29   25   10 ar   
    30   39   10 1    
    31   25   11 1    
    32   26   11 3    
    33   14   12 am   
    34   27   12 am   
    35   29   12 2    
    36   14   13 1    
    37   45   13 1    
    38   46   13 1    
    39   47   13 1    
    40   15   14 am   
    41   16   15 2    
    42   20   19 1    
    43   40   19 1    
    44   41   19 1    
    45   42   20 1    
    46   43   20 1    
    47   48   21 1    
    48   49   21 1    
    49   50   21 1    
    50   24   23 ar   
    51   25   23 ar   
    52   44   24 1    
    53   28   27 1    
    54   51   28 1    
    55   52   28 1    
    56   53   28 1    
@<TRIPOS>SUBSTRUCTURE
     1 XIH800      1 GROUP   
@<TRIPOS>SET

