#    Name: 4HY1_2_CAVITY_N1_6.mol2
#    Modification time : Tue Mar 11 03:44:21 2014

@<TRIPOS>MOLECULE
4HY1_2_CAVITY_N1_6.mol2
   65     0     6     0     0
SMALL
NO_CHARGES


@<TRIPOS>ATOM
      1 N          -4.7880   -3.9210   39.5626 N.2       2 ALA2        0.0000 
      2 CA         -4.4831   -5.3160   40.0219 C.3       5 GLY6        0.0000 
      3 N           1.2032   -3.5295   41.6727 N.2       2 ALA2        0.0000 
      4 NZ          1.5081   -4.9245   42.1321 N.2       4 LYS4        0.0000 
      5 CA          1.8130   -6.3195   42.5914 C.3       5 GLY6        0.0000 
      6 CA         -0.0123   -4.0326   40.9519 C.3       5 GLY6        0.0000 
      7 CA          0.2927   -5.4276   41.4112 C.3       5 GLY6        0.0000 
      8 CA          0.5976   -6.8226   41.8706 C.3       5 GLY6        0.0000 
      9 CA         -0.9228   -5.9306   40.6904 C.3       5 GLY6        0.0000 
     10 N          -2.4432   -5.0386   39.5102 N.2       2 ALA2        0.0000 
     11 OG          2.3325   -5.1502   40.8994 O.2       1 SER1        0.0000 
     12 NZ          2.6375   -6.5452   41.3588 N.2       4 LYS4        0.0000 
     13 CA          1.1171   -5.6532   40.1786 C.3       5 GLY6        0.0000 
     14 CA          1.4220   -7.0482   40.6379 C.3       5 GLY6        0.0000 
     15 CA         -0.0984   -6.1563   39.4577 C.3       5 GLY6        0.0000 
     16 OD1        -4.0484   -0.7805   48.6092 O.3       3 ASP3        0.0000 
     17 CA         -4.9589   -2.6785   48.3476 C.3       5 GLY6        0.0000 
     18 O          -3.2239   -1.0062   47.3765 O.2       2 ALA2        0.0000 
     19 N          -2.9190   -2.4012   47.8359 N.2       2 ALA2        0.0000 
     20 DU         -4.4394   -1.5092   46.6557 H         6 CUB7        0.0000 
     21 CA         -4.1345   -2.9042   47.1150 C.3       5 GLY6        0.0000 
     22 NZ         -1.5751   -1.4575   44.9113 N.2       4 LYS4        0.0000 
     23 CA         -1.2701   -2.8525   45.3706 C.3       5 GLY6        0.0000 
     24 O          -0.9652   -4.2475   45.8300 O.2       2 ALA2        0.0000 
     25 NZ         -3.0954   -0.5655   43.7311 N.2       4 LYS4        0.0000 
     26 NZ         -2.7905   -1.9605   44.1904 N.2       4 LYS4        0.0000 
     27 DU         -2.4856   -3.3556   44.6498 H         6 CUB7        0.0000 
     28 CA         -2.1807   -4.7506   45.1091 C.3       5 GLY6        0.0000 
     29 DU         -4.3109   -1.0686   43.0102 H         6 CUB7        0.0000 
     30 CA         -3.7010   -3.8586   43.9289 C.3       5 GLY6        0.0000 
     31 DU         -5.2214   -2.9666   42.7487 H         6 CUB7        0.0000 
     32 CA         -4.9165   -4.3616   43.2080 C.3       5 GLY6        0.0000 
     33 CA         -6.4369   -3.4696   42.0278 C.3       5 GLY6        0.0000 
     34 NZ         -2.0946   -2.6269   46.6032 N.2       4 LYS4        0.0000 
     35 N          -1.7897   -4.0219   47.0626 N.2       2 ALA2        0.0000 
     36 NZ         -3.6149   -1.7349   45.4230 N.2       4 LYS4        0.0000 
     37 CA         -3.3100   -3.1299   45.8824 C.3       5 GLY6        0.0000 
     38 DU         -4.8304   -2.2379   44.7022 H         6 CUB7        0.0000 
     39 CA         -4.5255   -3.6329   45.1615 C.3       5 GLY6        0.0000 
     40 DU         -6.0458   -2.7409   43.9813 H         6 CUB7        0.0000 
     41 CA         -5.7409   -4.1359   44.4407 C.3       5 GLY6        0.0000 
     42 N          -1.0555   -0.2882   43.2193 N.2       2 ALA2        0.0000 
     43 N          -0.7506   -1.6832   43.6786 N.2       2 ALA2        0.0000 
     44 CA         -0.4457   -3.0782   44.1380 C.3       5 GLY6        0.0000 
     45 OG         -0.1408   -4.4732   44.5973 O.2       1 SER1        0.0000 
     46 N          -2.2710   -0.7912   42.4985 N.2       2 ALA2        0.0000 
     47 N          -1.9661   -2.1862   42.9578 N.2       2 ALA2        0.0000 
     48 N          -1.6611   -3.5812   43.4171 N.2       2 ALA2        0.0000 
     49 CA         -1.3562   -4.9762   43.8765 C.3       5 GLY6        0.0000 
     50 N          -3.4864   -1.2942   41.7776 N.2       2 ALA2        0.0000 
     51 N          -3.1815   -2.6892   42.2369 N.2       2 ALA2        0.0000 
     52 CA         -2.8766   -4.0843   42.6963 C.3       5 GLY6        0.0000 
     53 N          -4.7019   -1.7973   41.0567 N.2       2 ALA2        0.0000 
     54 N          -4.3970   -3.1923   41.5161 N.2       2 ALA2        0.0000 
     55 CA         -4.0920   -4.5873   41.9754 C.3       5 GLY6        0.0000 
     56 CA         -5.6124   -3.6953   40.7952 C.3       5 GLY6        0.0000 
     57 CA         -5.3075   -5.0903   41.2546 C.3       5 GLY6        0.0000 
     58 N           0.3787   -3.3039   42.9054 N.2       2 ALA2        0.0000 
     59 NZ          0.6837   -4.6989   43.3647 N.2       4 LYS4        0.0000 
     60 N          -0.8367   -3.8069   42.1845 N.2       2 ALA2        0.0000 
     61 CA         -0.5318   -5.2019   42.6438 C.3       5 GLY6        0.0000 
     62 CA         -0.2269   -6.5969   43.1032 C.3       5 GLY6        0.0000 
     63 N          -2.3571   -2.9149   41.0043 N.2       2 ALA2        0.0000 
     64 CA         -2.0522   -4.3099   41.4636 C.3       5 GLY6        0.0000 
     65 N          -3.2676   -4.8130   40.7428 N.2       2 ALA2        0.0000 
@<TRIPOS>BOND
@<TRIPOS>SUBSTRUCTURE
     1 SER1       11 GROUP   
     2 ALA2        1 GROUP   
     3 ASP3       16 GROUP   
     4 LYS4        4 GROUP   
     5 GLY6        2 GROUP   
     6 CUB7       20 GROUP   
@<TRIPOS>SET

