#    Name: 4hy1_19X_2_INTS_M
#    Modification time : Tue Mar 25 01:59:00 2014

@<TRIPOS>MOLECULE
4hy1_19X_2_INTS_M
   75     0     9     0     0
SMALL
NO_CHARGES


@<TRIPOS>ATOM
      1 N          -3.8880   -3.7245   51.3945 N.am      2 SEC2        0.0000 
      2 N          -4.6670   -2.6120   51.1450 N.am      8 SEL2        0.0000 
      3 N          -3.1090   -4.8370   51.6440 N.am      5 SEP2        0.0000 
      4 N          -4.8745   -3.8585   51.9625 N.am      2 SEC2        0.0000 
      5 N          -5.0820   -5.1050   52.7800 N.am      5 SEP2        0.0000 
      6 CA         -2.5900   -0.9220   50.0460 C.3       3 GLC5        0.0000 
      7 CA         -4.1240   -1.9360   48.8960 C.3       9 GLL5        0.0000 
      8 CA         -1.0560    0.0920   51.1960 C.3       6 GLP5        0.0000 
      9 CA         -0.5375   -2.5505   48.7800 C.3       3 GLC5        0.0000 
     10 CA         -1.0120   -2.9510   46.7400 C.3       9 GLL5        0.0000 
     11 CA         -0.0630   -2.1500   50.8200 C.3       6 GLP5        0.0000 
     12 CA         -0.2980   -4.6180   47.8305 C.3       3 GLC5        0.0000 
     13 CA          0.4160   -6.2850   48.9210 C.3       6 GLP5        0.0000 
     14 CA          0.6950   -2.4690   44.4685 C.3       3 GLC5        0.0000 
     15 CA          0.2710   -4.4160   43.4270 C.3       9 GLL5        0.0000 
     16 CA          1.1190   -0.5220   45.5100 C.3       6 GLP5        0.0000 
     17 CA          1.1520   -6.0780   44.0635 C.3       3 GLC5        0.0000 
     18 CA          2.0330   -7.7400   44.7000 C.3       6 GLP5        0.0000 
     19 CA         -2.1420   -3.5035   39.9510 C.3       3 GLC5        0.0000 
     20 CA         -3.7530   -4.1360   41.1870 C.3       9 GLL5        0.0000 
     21 CA         -0.5310   -2.8710   38.7150 C.3       6 GLP5        0.0000 
     22 CA         -3.1075   -5.9845   41.8000 C.3       3 GLC5        0.0000 
     23 CA         -2.4620   -7.8330   42.4130 C.3       6 GLP5        0.0000 
     24 CA         -5.1960   -5.6220   40.6700 C.3       3 GLC5        0.0000 
     25 CA         -6.6390   -7.1080   40.1530 C.3       6 GLP5        0.0000 
     26 O          -3.5025   -2.1375   39.6985 O.2       1 ALC1        0.0000 
     27 O          -4.1180   -1.7110   40.9640 O.2       7 ALL1        0.0000 
     28 O          -2.8870   -2.5640   38.4330 O.2       4 ALP1        0.0000 
     29 CA         -4.4275   -5.7375   44.0275 C.3       3 GLC5        0.0000 
     30 CA         -4.8250   -4.0130   43.3880 C.3       9 GLL5        0.0000 
     31 CA         -4.0300   -7.4620   44.6670 C.3       6 GLP5        0.0000 
     32 CA         -5.0970   -4.7615   45.3145 C.3       3 GLC5        0.0000 
     33 CA         -5.3690   -5.5100   47.2410 C.3       6 GLP5        0.0000 
     34 CA         -0.9495   -4.2715   39.3585 C.3       3 GLC5        0.0000 
     35 CA         -1.3680   -5.6720   40.0020 C.3       9 GLL5        0.0000 
     36 CA         -1.9400   -5.7335   38.3230 C.3       3 GLC5        0.0000 
     37 CA         -2.5120   -5.7950   36.6440 C.3       6 GLP5        0.0000 
     38 CA         -0.5395   -7.5465   39.7795 C.3       3 GLC5        0.0000 
     39 CA          0.2890   -9.4210   39.5570 C.3       6 GLP5        0.0000 
     40 CA          2.1890   -3.4040   41.2560 C.3       3 GLC5        0.0000 
     41 CA          1.0640   -5.3020   41.4980 C.3       9 GLL5        0.0000 
     42 CA          3.3140   -1.5060   41.0140 C.3       6 GLP5        0.0000 
     43 CA         -0.6990   -6.5675   41.9555 C.3       3 GLC5        0.0000 
     44 CA          1.5485   -6.5210   43.0990 C.3       3 GLC5        0.0000 
     45 O           2.5965   -4.5450   43.0340 O.2       1 ALC1        0.0000 
     46 O           1.3690   -4.8330   42.7420 O.2       7 ALL1        0.0000 
     47 O           3.8240   -4.2570   43.3260 O.2       4 ALP1        0.0000 
     48 CA          3.3085   -4.0430   40.5705 C.3       3 GLC5        0.0000 
     49 CA          2.0010   -5.8430   40.4230 C.3       9 GLL5        0.0000 
     50 CA          4.6160   -2.2430   40.7180 C.3       6 GLP5        0.0000 
     51 CA         -5.5287   -3.2935   48.2728 C.3       3 GLC5        0.0000 
     52 CA         -6.5550   -5.0970   48.0920 C.3       6 GLP5        0.0000 
     53 CA         -1.3873   -2.2727   49.3475 C.3       3 GLC5        0.0000 
     54 CA         -2.9390   -2.5390   48.5220 C.3       9 GLL5        0.0000 
     55 CA         -4.0403   -3.9527   47.5580 C.3       3 GLC5        0.0000 
     56 CA         -0.8588   -1.1713   46.1527 C.3       3 GLC5        0.0000 
     57 CA         -2.4840   -2.2520   47.2280 C.3       9 GLL5        0.0000 
     58 CA          0.0433   -1.8860   45.7317 C.3       3 GLC5        0.0000 
     59 CA         -1.8653   -5.0165   46.3567 C.3       3 GLC5        0.0000 
     60 CA         -2.6980   -6.7830   46.7600 C.3       6 GLP5        0.0000 
     61 CA         -1.8960   -6.0883   42.7799 C.3       3 GLC5        0.0000 
     62 CA         -2.3040   -4.1860   43.2570 C.3       9 GLL5        0.0000 
     63 CA         -6.4110   -4.9445   43.0075 C.3       3 GLC5        0.0000 
     64 CA         -7.6300   -6.3430   43.1130 C.3       6 GLP5        0.0000 
     65 CA         -0.6108   -3.8683   40.3762 C.3       3 GLC5        0.0000 
     66 CA         -0.9830   -4.5860   42.6460 C.3       9 GLL5        0.0000 
     67 CA         -1.6725   -6.6207   41.5643 C.3       3 GLC5        0.0000 
     68 CA         -0.3980   -5.1450   41.4290 C.3       9 GLL5        0.0000 
     69 CA          0.5007   -4.2218   39.8377 C.3       3 GLC5        0.0000 
     70 CA          2.7715   -6.7138   38.9175 C.3       3 GLC5        0.0000 
     71 CA          3.1010   -7.0380   37.1120 C.3       6 GLP5        0.0000 
     72 CA          1.8640   -7.5723   42.2505 C.3       3 GLC5        0.0000 
     73 CA          1.2860   -8.7550   43.7780 C.3       6 GLP5        0.0000 
     74 CA          1.3655   -7.9052   40.1400 C.3       3 GLC5        0.0000 
     75 CA          2.8830   -6.9360   41.0230 C.3       9 GLL5        0.0000 
@<TRIPOS>BOND
@<TRIPOS>SUBSTRUCTURE
     1 ALC1       26 GROUP        1 X    ALC  0     ROOT ALC X 1
     2 SEC2        1 GROUP        1 X    SEC  0     **** SEC X 2
     3 GLC5        6 GROUP        1 X    GLC  0     **** GLC X 6
     4 ALP1       28 GROUP        1 Y    ALP  0     ROOT ALP Y 8
     5 SEP2        3 GROUP        1 Y    SEP  0     **** SEP Y 9
     6 GLP5        8 GROUP        1 Y    GLP  0     **** GLP Y 13
     7 ALL1       27 GROUP        1 Z    ALL  0     ROOT ALL Z 15
     8 SEL2        2 GROUP        1 Z    SEL  0     **** SEL Z 16
     9 GLL5        7 GROUP        1 Z    GLL  0     **** GLL Z 20
@<TRIPOS>SET

