#    Name: 4hy1_19X_2_ligand
#    Modification time : Tue Mar 25 01:59:00 2014

@<TRIPOS>MOLECULE
4hy1_19X_2_ligand
   49    53     1     0     0
SMALL
NO_CHARGES


@<TRIPOS>ATOM
      1 O29        -4.6670   -2.6120   51.1450 O.2       1 19X1401     0.0000 
      2 C28        -4.9790   -1.9330   50.0990 C.2       1 19X1401     0.0000 
      3 C22        -4.1240   -1.9360   48.8960 C.ar      1 19X1401     0.0000 
      4 C21        -2.9390   -2.5390   48.5220 C.ar      1 19X1401     0.0000 
      5 N27        -6.0910   -1.1580   49.9920 N.2       1 19X1401     0.0000 
      6 C26        -6.1010   -0.5390   48.6410 C.2       1 19X1401     0.0000 
      7 C23        -4.8810   -1.0440   48.0110 C.ar      1 19X1401     0.0000 
      8 C24        -4.4000   -0.7740   46.7320 C.ar      1 19X1401     0.0000 
      9 C25        -3.1890   -1.3890   46.3630 C.ar      1 19X1401     0.0000 
     10 C20        -2.4840   -2.2520   47.2280 C.ar      1 19X1401     0.0000 
     11 S19        -1.0120   -2.9510   46.7400 S.3       1 19X1401     0.0000 
     12 C10        -1.0530   -3.5490   45.1670 C.ar      1 19X1401     0.0000 
     13 N11         0.1460   -3.8990   44.6550 N.ar      1 19X1401     0.0000 
     14 C2          0.2710   -4.4160   43.4270 C.ar      1 19X1401     0.0000 
     15 N9         -2.2320   -3.6720   44.5060 N.ar      1 19X1401     0.0000 
     16 C8         -2.3040   -4.1860   43.2570 C.ar      1 19X1401     0.0000 
     17 N13        -3.5790   -4.1950   42.6430 N.3       1 19X1401     0.0000 
     18 C17        -3.7530   -4.1360   41.1870 C.3       1 19X1401     0.0000 
     19 C16        -4.7770   -3.0110   41.1010 C.3       1 19X1401     0.0000 
     20 N18        -4.1180   -1.7110   40.9640 N.4       1 19X1401     0.0000 
     21 C15        -5.5590   -3.0790   42.4160 C.3       1 19X1401     0.0000 
     22 C14        -4.8250   -4.0130   43.3880 C.3       1 19X1401     0.0000 
     23 C3         -0.9830   -4.5860   42.6460 C.ar      1 19X1401     0.0000 
     24 C4         -0.3980   -5.1450   41.4290 C.2       1 19X1401     0.0000 
     25 CL1        -1.3680   -5.6720   40.0020 Cl        1 19X1401     0.0000 
     26 C5          1.0640   -5.3020   41.4980 C.2       1 19X1401     0.0000 
     27 N1          1.3690   -4.8330   42.7420 N.pl3     1 19X1401     0.0000 
     28 C6          2.0010   -5.8430   40.4230 C.3       1 19X1401     0.0000 
     29 C7          2.8830   -6.9360   41.0230 C.3       1 19X1401     0.0000 
     30 H          -2.4283   -3.1463   49.1316 H         1 19X1401     0.0000 
     31 H          -6.7127    0.0090   48.3067 H         1 19X1401     0.0000 
     32 H          -4.8894   -0.1696   46.0974 H         1 19X1401     0.0000 
     33 H          -2.7984   -1.2012   45.4181 H         1 19X1401     0.0000 
     34 H          -4.1799   -5.0218   40.8129 H         1 19X1401     0.0000 
     35 H          -2.8678   -3.8359   40.7041 H         1 19X1401     0.0000 
     36 H          -5.4438   -3.2138   40.3018 H         1 19X1401     0.0000 
     37 H          -6.5489   -3.4673   42.2262 H         1 19X1401     0.0000 
     38 H          -5.6220   -2.0913   42.8486 H         1 19X1401     0.0000 
     39 H          -4.6678   -3.5046   44.2937 H         1 19X1401     0.0000 
     40 H          -5.3655   -4.9100   43.4702 H         1 19X1401     0.0000 
     41 H           2.2880   -4.8008   43.1036 H         1 19X1401     0.0000 
     42 H           2.6261   -5.0402   40.0521 H         1 19X1401     0.0000 
     43 H           1.4169   -6.2581   39.6110 H         1 19X1401     0.0000 
     44 H          -3.5175   -1.5155   41.7393 H         1 19X1401     0.0000 
     45 H          -3.5554   -1.6650   40.1386 H         1 19X1401     0.0000 
     46 H          -4.7796   -0.9631   40.9098 H         1 19X1401     0.0000 
     47 H           3.5129   -7.3179   40.3467 H         1 19X1401     0.0000 
     48 H           3.4389   -6.5912   41.7794 H         1 19X1401     0.0000 
     49 H           2.3407   -7.6963   41.3806 H         1 19X1401     0.0000 
@<TRIPOS>BOND
     1    2    1 2    
     2    3    2 1    
     3    5    2 1    
     4    4    3 ar   
     5    7    3 ar   
     6   10    4 ar   
     7   30    4 1    
     8    6    5 2    
     9    7    6 1    
    10   31    6 1    
    11    8    7 ar   
    12    9    8 ar   
    13   32    8 1    
    14   10    9 ar   
    15   33    9 1    
    16   11   10 1    
    17   12   11 1    
    18   13   12 ar   
    19   15   12 ar   
    20   14   13 ar   
    21   23   14 ar   
    22   27   14 1    
    23   16   15 ar   
    24   17   16 1    
    25   23   16 ar   
    26   18   17 1    
    27   22   17 1    
    28   19   18 1    
    29   34   18 1    
    30   35   18 1    
    31   20   19 1    
    32   21   19 1    
    33   36   19 1    
    34   44   20 1    
    35   45   20 1    
    36   46   20 1    
    37   22   21 1    
    38   37   21 1    
    39   38   21 1    
    40   39   22 1    
    41   40   22 1    
    42   24   23 1    
    43   25   24 1    
    44   26   24 2    
    45   27   26 1    
    46   28   26 1    
    47   41   27 1    
    48   29   28 1    
    49   42   28 1    
    50   43   28 1    
    51   47   29 1    
    52   48   29 1    
    53   49   29 1    
@<TRIPOS>SUBSTRUCTURE
     1 19X1401     1 GROUP   
@<TRIPOS>SET

