#    Name: 3p78_P78_1_INTS_M
#    Modification time : Tue Mar 25 06:01:21 2014

@<TRIPOS>MOLECULE
3p78_P78_1_INTS_M
   90     0     9     0     0
SMALL
NO_CHARGES


@<TRIPOS>ATOM
      1 CA         50.6680   28.0725  -20.9570 C.3       3 GLC5        0.0000 
      2 CA         50.1770   28.0740  -19.0220 C.3       9 GLL5        0.0000 
      3 CA         51.1590   28.0710  -22.8920 C.3       6 GLP5        0.0000 
      4 CA         49.3570   29.4035  -20.3375 C.3       3 GLC5        0.0000 
      5 CA         48.5370   30.7330  -21.6530 C.3       6 GLP5        0.0000 
      6 CA         49.6875   24.8850  -16.9850 C.3       3 GLC5        0.0000 
      7 CA         49.5380   27.0380  -16.7920 C.3       9 GLL5        0.0000 
      8 CA         49.8370   22.7320  -17.1780 C.3       6 GLP5        0.0000 
      9 CA         48.9295   24.1550  -18.4050 C.3       3 GLC5        0.0000 
     10 CA         48.0220   25.5780  -19.6320 C.3       9 GLL5        0.0000 
     11 CA         48.2480   23.8165  -20.4680 C.3       3 GLC5        0.0000 
     12 CA         48.4740   22.0550  -21.3040 C.3       6 GLP5        0.0000 
     13 CA         48.0055   25.5355  -21.6050 C.3       3 GLC5        0.0000 
     14 CA         47.9890   25.4930  -23.5780 C.3       6 GLP5        0.0000 
     15 CA         46.7030   24.4435  -20.8490 C.3       3 GLC5        0.0000 
     16 CA         45.3840   23.3090  -22.0660 C.3       6 GLP5        0.0000 
     17 CA         46.2965   24.5495  -16.6365 C.3       3 GLC5        0.0000 
     18 CA         46.6430   26.4660  -17.6240 C.3       9 GLL5        0.0000 
     19 CA         45.9500   22.6330  -15.6490 C.3       6 GLP5        0.0000 
     20 CA         45.2350   27.8135  -17.3775 C.3       3 GLC5        0.0000 
     21 CA         43.8270   29.1610  -17.1310 C.3       6 GLP5        0.0000 
     22 CA         47.6090   26.5795  -21.6480 C.3       3 GLC5        0.0000 
     23 CA         47.2290   27.6660  -19.7180 C.3       9 GLL5        0.0000 
     24 CA         45.9120   28.4890  -20.8195 C.3       3 GLC5        0.0000 
     25 CA         44.5950   29.3120  -21.9210 C.3       6 GLP5        0.0000 
     26 CA         47.8830   29.1995  -20.6855 C.3       3 GLC5        0.0000 
     27 CA         60.0555   33.2245  -23.4380 C.3       3 GLC5        0.0000 
     28 CA         58.1380   32.1780  -22.9220 C.3       9 GLL5        0.0000 
     29 CA         61.9730   34.2710  -23.9540 C.3       6 GLP5        0.0000 
     30 CA         59.5895   30.8870  -24.0120 C.3       3 GLC5        0.0000 
     31 CA         61.0410   29.5960  -25.1020 C.3       6 GLP5        0.0000 
     32 N          50.5340   30.8025  -19.5340 N.am      2 SEC2        0.0000 
     33 N          51.8270   30.2130  -19.6360 N.am      8 SEL2        0.0000 
     34 N          49.2410   31.3920  -19.4320 N.am      5 SEP2        0.0000 
     35 O          54.9140   30.0170  -17.7785 O.2       1 ALC1        0.0000 
     36 O          53.9930   30.4170  -18.8160 O.2       7 ALL1        0.0000 
     37 O          55.8350   29.6170  -16.7410 O.2       4 ALP1        0.0000 
     38 CA         52.7935   33.7235  -18.6830 C.3       3 GLC5        0.0000 
     39 CA         53.9700   32.5990  -19.9270 C.3       9 GLL5        0.0000 
     40 CA         51.6170   34.8480  -17.4390 C.3       6 GLP5        0.0000 
     41 CA         55.8905   28.9555  -19.8200 C.3       3 GLC5        0.0000 
     42 CA         55.6520   30.9270  -20.3680 C.3       9 GLL5        0.0000 
     43 CA         56.1290   26.9840  -19.2720 C.3       6 GLP5        0.0000 
     44 CA         57.4015   29.9585  -19.4010 C.3       3 GLC5        0.0000 
     45 CA         59.1510   28.9900  -18.4340 C.3       6 GLP5        0.0000 
     46 CA         50.7400   31.8505  -13.4290 C.3       3 GLC5        0.0000 
     47 CA         50.3170   29.7170  -13.1100 C.3       9 GLL5        0.0000 
     48 CA         51.1630   33.9840  -13.7480 C.3       6 GLP5        0.0000 
     49 CA         53.9355   28.5930  -10.9445 C.3       3 GLC5        0.0000 
     50 CA         52.7460   28.6650  -12.5410 C.3       9 GLL5        0.0000 
     51 CA         55.1250   28.5210   -9.3480 C.3       6 GLP5        0.0000 
     52 CA         51.9835   26.0125  -11.6265 C.3       3 GLC5        0.0000 
     53 CA         52.1310   27.3610  -13.0730 C.3       9 GLL5        0.0000 
     54 CA         51.8360   24.6640  -10.1800 C.3       6 GLP5        0.0000 
     55 CA         58.7428   32.6495  -21.1820 C.3       3 GLC5        0.0000 
     56 CA         57.4690   31.3380  -21.9820 C.3       9 GLL5        0.0000 
     57 CA         59.6820   33.5410  -19.9120 C.3       6 GLP5        0.0000 
     58 CA         59.0037   30.3960  -21.5685 C.3       3 GLC5        0.0000 
     59 CA         60.2040   29.0340  -20.6850 C.3       6 GLP5        0.0000 
     60 CA         52.3632   27.4753  -19.4290 C.3       3 GLC5        0.0000 
     61 CA         51.3360   28.3070  -17.7700 C.3       9 GLL5        0.0000 
     62 CA         53.9700   26.7600  -20.4620 C.3       6 GLP5        0.0000 
     63 CA         57.6788   35.6620  -22.8237 C.3       3 GLC5        0.0000 
     64 CA         56.4400   33.8880  -22.4530 C.3       9 GLL5        0.0000 
     65 CA         58.3400   37.6490  -22.8460 C.3       6 GLP5        0.0000 
     66 CA         57.4672   34.4915  -24.5063 C.3       3 GLC5        0.0000 
     67 CA         57.9170   35.3080  -26.2110 C.3       6 GLP5        0.0000 
     68 CA         56.5783   32.5940  -24.2888 C.3       3 GLC5        0.0000 
     69 CA         57.5950   33.4620  -23.1500 C.3       9 GLL5        0.0000 
     70 CA         56.1390   31.5130  -25.7760 C.3       6 GLP5        0.0000 
     71 CA         53.9052   30.8502  -21.4808 C.3       3 GLC5        0.0000 
     72 CA         54.4870   31.3240  -19.6860 C.3       9 GLL5        0.0000 
     73 CA         53.5820   29.7390  -23.1550 C.3       6 GLP5        0.0000 
     74 CA         52.3420   33.3248  -21.1540 C.3       3 GLC5        0.0000 
     75 CA         50.3880   33.6340  -21.9230 C.3       6 GLP5        0.0000 
     76 CA         54.3945   31.4848  -22.1703 C.3       3 GLC5        0.0000 
     77 CA         54.6220   33.4320  -20.8430 C.3       9 GLL5        0.0000 
     78 CA         58.0434   33.4465  -21.0384 C.3       3 GLC5        0.0000 
     79 CA         55.7920   33.0290  -21.5280 C.3       9 GLL5        0.0000 
     80 CA         56.9274   32.1674  -19.3083 C.3       3 GLC5        0.0000 
     81 CA         56.3180   31.7600  -21.2880 C.3       9 GLL5        0.0000 
     82 CA         58.1610   32.8920  -17.9590 C.3       6 GLP5        0.0000 
     83 CA         56.5999   31.6360  -23.8230 C.3       3 GLC5        0.0000 
     84 CA         54.9274   30.4885  -22.0782 C.3       3 GLC5        0.0000 
     85 CA         49.4198   30.0168  -15.2290 C.3       3 GLC5        0.0000 
     86 CA         49.9140   28.3480  -13.7060 C.3       9 GLL5        0.0000 
     87 CA         48.7240   31.0010  -17.0500 C.3       6 GLP5        0.0000 
     88 CA         54.1388   27.4165  -13.6155 C.3       3 GLC5        0.0000 
     89 CA         55.8390   26.8200  -14.4240 C.3       6 GLP5        0.0000 
     90 CA         49.5190   29.3293  -17.2468 C.3       3 GLC5        0.0000 
@<TRIPOS>BOND
@<TRIPOS>SUBSTRUCTURE
     1 ALC1       35 GROUP        1 X    ALC  0     ROOT ALC X 1
     2 SEC2       32 GROUP        1 X    SEC  0     **** SEC X 2
     3 GLC5        1 GROUP        1 X    GLC  0     **** GLC X 6
     4 ALP1       37 GROUP        1 Y    ALP  0     ROOT ALP Y 8
     5 SEP2       34 GROUP        1 Y    SEP  0     **** SEP Y 9
     6 GLP5        3 GROUP        1 Y    GLP  0     **** GLP Y 13
     7 ALL1       36 GROUP        1 Z    ALL  0     ROOT ALL Z 15
     8 SEL2       33 GROUP        1 Z    SEL  0     **** SEL Z 16
     9 GLL5        2 GROUP        1 Z    GLL  0     **** GLL Z 20
@<TRIPOS>SET

