#    Name: 3p78_P78_1_ligand
#    Modification time : Tue Mar 25 06:01:21 2014

@<TRIPOS>MOLECULE
3p78_P78_1_ligand
   60    63     1     0     0
SMALL
NO_CHARGES


@<TRIPOS>ATOM
      1 C1         49.0470   27.1760  -18.0870 C.2       1 P78362      0.0000 
      2 O1         52.2530   31.2360  -11.7680 O.2       1 P78362      0.0000 
      3 S1         51.5420   29.7070  -11.8960 S.o2      1 P78362      0.0000 
      4 C2         57.4690   31.3380  -21.9820 C.ar      1 P78362      0.0000 
      5 S2         50.1770   28.0740  -19.0220 S.3       1 P78362      0.0000 
      6 C3         51.3360   28.3070  -17.7700 C.2       1 P78362      0.0000 
      7 C4         50.7700   27.6600  -16.6580 C.2       1 P78362      0.0000 
      8 C5         49.5380   27.0380  -16.7920 C.2       1 P78362      0.0000 
      9 C6         47.7520   26.7040  -18.6560 C.3       1 P78362      0.0000 
     10 C7         48.0220   25.5780  -19.6320 C.3       1 P78362      0.0000 
     11 C8         46.6430   26.4660  -17.6240 C.3       1 P78362      0.0000 
     12 C9         47.2290   27.6660  -19.7180 C.3       1 P78362      0.0000 
     13 C10        51.6030   27.6510  -15.3950 C.2       1 P78362      0.0000 
     14 C11        56.4400   33.8880  -22.4530 C.ar      1 P78362      0.0000 
     15 O11        52.8150   27.5820  -15.5510 O.2       1 P78362      0.0000 
     16 C12        57.5950   33.4620  -23.1500 C.ar      1 P78362      0.0000 
     17 N12        52.5620   28.9430  -17.8060 N.am      1 P78362      0.0000 
     18 C13        52.8110   29.8740  -18.7630 C.2       1 P78362      0.0000 
     19 C14        58.1380   32.1780  -22.9220 C.ar      1 P78362      0.0000 
     20 O14        51.8270   30.2130  -19.6360 O.2       1 P78362      0.0000 
     21 N15        53.9930   30.4170  -18.8160 N.am      1 P78362      0.0000 
     22 C16        54.4870   31.3240  -19.6860 C.ar      1 P78362      0.0000 
     23 C17        53.9700   32.5990  -19.9270 C.ar      1 P78362      0.0000 
     24 C18        54.6220   33.4320  -20.8430 C.ar      1 P78362      0.0000 
     25 C19        55.7920   33.0290  -21.5280 C.ar      1 P78362      0.0000 
     26 C20        56.3180   31.7600  -21.2880 C.ar      1 P78362      0.0000 
     27 C21        55.6520   30.9270  -20.3680 C.ar      1 P78362      0.0000 
     28 N26        51.1250   27.6490  -14.1140 N.am      1 P78362      0.0000 
     29 C27        49.9140   28.3480  -13.7060 C.3       1 P78362      0.0000 
     30 C28        50.3170   29.7170  -13.1100 C.3       1 P78362      0.0000 
     31 C31        52.7460   28.6650  -12.5410 C.3       1 P78362      0.0000 
     32 C32        52.1310   27.3610  -13.0730 C.3       1 P78362      0.0000 
     33 O33        50.8220   28.7790  -10.6750 O.2       1 P78362      0.0000 
     34 H          57.8472   30.3909  -21.8103 H         1 P78362      0.0000 
     35 H          49.0783   26.5695  -16.0813 H         1 P78362      0.0000 
     36 H          56.0653   34.8280  -22.6168 H         1 P78362      0.0000 
     37 H          58.0405   34.0904  -23.8253 H         1 P78362      0.0000 
     38 H          53.2803   28.7037  -17.1023 H         1 P78362      0.0000 
     39 H          58.9598   31.8632  -23.3979 H         1 P78362      0.0000 
     40 H          54.7197   30.0959  -18.0321 H         1 P78362      0.0000 
     41 H          53.1321   32.9183  -19.4444 H         1 P78362      0.0000 
     42 H          54.2391   34.3790  -21.0306 H         1 P78362      0.0000 
     43 H          56.0389   29.9766  -20.1851 H         1 P78362      0.0000 
     44 H          49.3748   27.7975  -12.9418 H         1 P78362      0.0000 
     45 H          49.2571   28.5323  -14.5500 H         1 P78362      0.0000 
     46 H          50.7052   30.3884  -13.8832 H         1 P78362      0.0000 
     47 H          49.4635   30.2091  -12.6318 H         1 P78362      0.0000 
     48 H          53.4201   28.4875  -11.7263 H         1 P78362      0.0000 
     49 H          53.2134   29.2350  -13.3196 H         1 P78362      0.0000 
     50 H          52.9366   26.7423  -13.4757 H         1 P78362      0.0000 
     51 H          51.6761   26.8300  -12.2333 H         1 P78362      0.0000 
     52 H          48.6116   25.8720  -20.3843 H         1 P78362      0.0000 
     53 H          48.4750   24.8039  -19.1898 H         1 P78362      0.0000 
     54 H          47.1780   25.2297  -20.0399 H         1 P78362      0.0000 
     55 H          46.9034   25.7724  -16.9523 H         1 P78362      0.0000 
     56 H          46.4239   27.2988  -17.1156 H         1 P78362      0.0000 
     57 H          45.7960   26.1539  -18.0543 H         1 P78362      0.0000 
     58 H          47.8716   27.7655  -20.4777 H         1 P78362      0.0000 
     59 H          46.3618   27.3546  -20.1065 H         1 P78362      0.0000 
     60 H          47.0717   28.5806  -19.3455 H         1 P78362      0.0000 
@<TRIPOS>BOND
     1    5    1 1    
     2    8    1 2    
     3    9    1 1    
     4    3    2 2    
     5   30    3 1    
     6   31    3 1    
     7   33    3 2    
     8   19    4 ar   
     9   26    4 ar   
    10   34    4 1    
    11    6    5 1    
    12    7    6 2    
    13   17    6 1    
    14    8    7 1    
    15   13    7 1    
    16   35    8 1    
    17   10    9 1    
    18   11    9 1    
    19   12    9 1    
    20   52   10 1    
    21   53   10 1    
    22   54   10 1    
    23   55   11 1    
    24   56   11 1    
    25   57   11 1    
    26   58   12 1    
    27   59   12 1    
    28   60   12 1    
    29   15   13 2    
    30   28   13 am   
    31   16   14 ar   
    32   25   14 ar   
    33   36   14 1    
    34   19   16 ar   
    35   37   16 1    
    36   18   17 am   
    37   38   17 1    
    38   20   18 2    
    39   21   18 am   
    40   39   19 1    
    41   22   21 1    
    42   40   21 1    
    43   23   22 ar   
    44   27   22 ar   
    45   24   23 ar   
    46   41   23 1    
    47   25   24 ar   
    48   42   24 1    
    49   26   25 ar   
    50   27   26 ar   
    51   43   27 1    
    52   29   28 1    
    53   32   28 1    
    54   30   29 1    
    55   44   29 1    
    56   45   29 1    
    57   46   30 1    
    58   47   30 1    
    59   32   31 1    
    60   48   31 1    
    61   49   31 1    
    62   50   32 1    
    63   51   32 1    
@<TRIPOS>SUBSTRUCTURE
     1 P78362      1 GROUP   
@<TRIPOS>SET

