#    Name: 3deh_RXA_1_INTS_M
#    Modification time : Mon Mar 24 23:14:18 2014

@<TRIPOS>MOLECULE
3deh_RXA_1_INTS_M
   12     0     3     0     0
SMALL
NO_CHARGES


@<TRIPOS>ATOM
      1 CA        -44.2130   16.9030  -20.4980 C.3       1 GLC5        0.0000 
      2 CA        -44.9440   15.4090  -21.8430 C.3       3 GLL5        0.0000 
      3 CA        -43.4820   18.3970  -19.1530 C.3       2 GLP5        0.0000 
      4 CA        -48.1110   13.9543  -24.1150 C.3       1 GLC5        0.0000 
      5 CA        -46.9860   15.6340  -23.1470 C.3       3 GLL5        0.0000 
      6 CA        -48.8740   12.6220  -25.5720 C.3       2 GLP5        0.0000 
      7 CA        -48.0265   16.9383  -23.4625 C.3       1 GLC5        0.0000 
      8 CA        -47.7100   14.9390  -22.1690 C.3       3 GLL5        0.0000 
      9 CA        -48.7050   18.5900  -24.2670 C.3       2 GLP5        0.0000 
     10 CA        -46.1033   17.4977  -22.5410 C.3       1 GLC5        0.0000 
     11 CA        -45.6070   15.8740  -22.9950 C.3       3 GLL5        0.0000 
     12 CA        -46.9310   19.3540  -22.6630 C.3       2 GLP5        0.0000 
@<TRIPOS>BOND
@<TRIPOS>SUBSTRUCTURE
     1 GLC5        1 GROUP        1 X    GLC  0     ROOT GLC X 6
     2 GLP5        3 GROUP        1 Y    GLP  0     ROOT GLP Y 13
     3 GLL5        2 GROUP        1 Z    GLL  0     ROOT GLL Z 20
@<TRIPOS>SET

