#    Name: 3deh_RXA_1_ligand
#    Modification time : Mon Mar 24 23:14:18 2014

@<TRIPOS>MOLECULE
3deh_RXA_1_ligand
   18    19     1     0     0
SMALL
NO_CHARGES


@<TRIPOS>ATOM
      1 OAA       -51.0150   13.8180  -21.5490 O.2       1 RXA300      0.0000 
      2 CAI       -49.7810   14.0000  -21.3480 C.2       1 RXA300      0.0000 
      3 NAH       -49.1320   13.5330  -20.2410 N.am      1 RXA300      0.0000 
      4 CAK       -49.0880   14.7050  -22.3190 C.2       1 RXA300      0.0000 
      5 OAC       -49.7450   15.0930  -23.3120 O.2       1 RXA300      0.0000 
      6 CAM       -47.7100   14.9390  -22.1690 C.ar      1 RXA300      0.0000 
      7 CAL       -47.0500   14.4550  -21.0250 C.ar      1 RXA300      0.0000 
      8 CAF       -45.6690   14.6930  -20.8630 C.ar      1 RXA300      0.0000 
      9 CAJ       -47.7900   13.7460  -20.0420 C.2       1 RXA300      0.0000 
     10 OAB       -47.2120   13.3050  -18.9860 O.2       1 RXA300      0.0000 
     11 CAG       -46.9860   15.6340  -23.1470 C.ar      1 RXA300      0.0000 
     12 CAE       -45.6070   15.8740  -22.9950 C.ar      1 RXA300      0.0000 
     13 CAD       -44.9440   15.4090  -21.8430 C.ar      1 RXA300      0.0000 
     14 H         -49.6712   12.9956  -19.5198 H         1 RXA300      0.0000 
     15 H         -45.1863   14.3447  -20.0288 H         1 RXA300      0.0000 
     16 H         -47.4678   15.9759  -23.9917 H         1 RXA300      0.0000 
     17 H         -45.0920   16.3809  -23.7139 H         1 RXA300      0.0000 
     18 H         -43.9496   15.5859  -21.7144 H         1 RXA300      0.0000 
@<TRIPOS>BOND
     1    2    1 2    
     2    3    2 am   
     3    4    2 1    
     4    9    3 am   
     5   14    3 1    
     6    5    4 2    
     7    6    4 1    
     8    7    6 ar   
     9   11    6 ar   
    10    8    7 ar   
    11    9    7 1    
    12   13    8 ar   
    13   15    8 1    
    14   10    9 2    
    15   12   11 ar   
    16   16   11 1    
    17   13   12 ar   
    18   17   12 1    
    19   18   13 1    
@<TRIPOS>SUBSTRUCTURE
     1 RXA300      1 GROUP   
@<TRIPOS>SET

