#    Name: 2OAT_2_CAVITY_N1_6.mol2
#    Modification time : Tue Mar 11 02:20:49 2014

@<TRIPOS>MOLECULE
2OAT_2_CAVITY_N1_6.mol2
  102     0     7     0     0
SMALL
NO_CHARGES


@<TRIPOS>ATOM
      1 CZ         56.0267   22.0012   12.8570 C.ar      5 PHE5        0.0000 
      2 CZ         55.6321   22.6252   11.5513 C.ar      5 PHE5        0.0000 
      3 CZ         57.0084   22.3688   11.0128 C.ar      5 PHE5        0.0000 
      4 O          55.2374   23.2492   10.2456 O.2       2 ALA2        0.0000 
      5 O          53.4664   24.1296    9.4784 O.2       2 ALA2        0.0000 
      6 DU         54.8427   23.8733    8.9399 H         7 CUB7        0.0000 
      7 CZ         56.2191   23.6169    8.4014 C.ar      5 PHE5        0.0000 
      8 CZ         53.0718   24.7537    8.1728 C.ar      5 PHE5        0.0000 
      9 NZ         54.4481   24.4973    7.6342 N.2       4 LYS4        0.0000 
     10 CZ         55.8244   24.2409    7.0957 C.ar      5 PHE5        0.0000 
     11 CA         54.0534   25.1213    6.3285 C.3       6 GLY6        0.0000 
     12 NZ         55.4297   24.8650    5.7900 N.2       4 LYS4        0.0000 
     13 NZ         55.0351   25.4890    4.4843 N.2       4 LYS4        0.0000 
     14 CA         50.8010   22.3306    7.7010 C.3       6 GLY6        0.0000 
     15 OG         55.6846   24.5890   10.7507 O.2       1 SER1        0.0000 
     16 OG         57.0609   24.3326   10.2122 O.2       1 SER1        0.0000 
     17 O          53.9136   25.4694    9.9836 O.2       2 ALA2        0.0000 
     18 OG         55.2899   25.2130    9.4450 O.2       1 SER1        0.0000 
     19 CZ         56.6663   24.9566    8.9065 C.ar      5 PHE5        0.0000 
     20 CZ         54.8953   25.8370    8.1393 C.ar      5 PHE5        0.0000 
     21 CZ         56.2716   25.5806    7.6008 C.ar      5 PHE5        0.0000 
     22 CZ         54.5006   26.4610    6.8336 C.ar      5 PHE5        0.0000 
     23 OD1        55.8769   26.2047    6.2951 O.3       3 ASP3        0.0000 
     24 CZ         54.1060   27.0851    5.5280 C.ar      5 PHE5        0.0000 
     25 OD1        55.4823   26.8287    4.9894 O.3       3 ASP3        0.0000 
     26 CZ         53.7113   27.7091    4.2223 C.ar      5 PHE5        0.0000 
     27 N          51.9403   28.5895    3.4551 N.2       2 ALA2        0.0000 
     28 CA         53.3166   28.3331    2.9166 C.3       6 GLY6        0.0000 
     29 CA         55.3078   31.4523   10.6984 C.3       6 GLY6        0.0000 
     30 CA         53.5368   32.3327    9.9312 C.3       6 GLY6        0.0000 
     31 CA         54.9131   32.0763    9.3927 C.3       6 GLY6        0.0000 
     32 O          56.2894   31.8199    8.8541 O.2       2 ALA2        0.0000 
     33 CA         54.5185   32.7003    8.0870 C.3       6 GLY6        0.0000 
     34 O          55.8948   32.4440    7.5484 O.2       2 ALA2        0.0000 
     35 CA         55.9742   20.0374   13.6576 C.3       6 GLY6        0.0000 
     36 CA         54.2032   20.9178   12.8904 C.3       6 GLY6        0.0000 
     37 CA         55.5795   20.6614   12.3519 C.3       6 GLY6        0.0000 
     38 OD1        56.9558   20.4051   11.8133 O.3       3 ASP3        0.0000 
     39 O          53.8085   21.5419   11.5847 O.2       2 ALA2        0.0000 
     40 DU         55.1849   21.2855   11.0462 H         7 CUB7        0.0000 
     41 OG         56.5612   21.0291   10.5076 O.2       1 SER1        0.0000 
     42 O          53.4139   22.1659   10.2790 O.2       2 ALA2        0.0000 
     43 OG         54.7902   21.9095    9.7405 O.2       1 SER1        0.0000 
     44 CZ         50.2666   23.3027   10.0504 C.ar      5 PHE5        0.0000 
     45 O          51.6429   23.0463    9.5119 O.2       2 ALA2        0.0000 
     46 O          53.0192   22.7899    8.9733 O.2       2 ALA2        0.0000 
     47 NZ         54.3955   22.5335    8.4348 N.2       4 LYS4        0.0000 
     48 CZ         55.7718   22.2772    7.8963 C.ar      5 PHE5        0.0000 
     49 CZ         51.2482   23.6703    8.2062 C.ar      5 PHE5        0.0000 
     50 CA         52.6246   23.4139    7.6676 C.3       6 GLY6        0.0000 
     51 CA         53.7560   19.5781   12.3853 C.3       6 GLY6        0.0000 
     52 DU         55.1323   19.3217   11.8467 H         7 CUB7        0.0000 
     53 N          51.9850   20.4585   11.6181 N.2       2 ALA2        0.0000 
     54 DU         53.3613   20.2021   11.0796 H         7 CUB7        0.0000 
     55 DU         54.7376   19.9458   10.5410 H         7 CUB7        0.0000 
     56 OG         56.1140   19.6894   10.0025 O.2       1 SER1        0.0000 
     57 OD1        57.4903   19.4330    9.4640 O.3       3 ASP3        0.0000 
     58 O          51.5903   21.0825   10.3124 O.2       2 ALA2        0.0000 
     59 DU         52.9667   20.8262    9.7739 H         7 CUB7        0.0000 
     60 NZ         54.3430   20.5698    9.2354 N.2       4 LYS4        0.0000 
     61 OG         55.7193   20.3134    8.6968 O.2       1 SER1        0.0000 
     62 DU         51.1957   21.7066    9.0067 H         7 CUB7        0.0000 
     63 NZ         52.5720   21.4502    8.4682 N.2       4 LYS4        0.0000 
     64 DU         53.8958   19.2301    8.7302 H         7 CUB7        0.0000 
     65 N          55.2721   18.9737    8.1917 N.2       2 ALA2        0.0000 
     66 NZ         52.1248   20.1105    7.9631 N.2       4 LYS4        0.0000 
     67 NZ         53.5011   19.8541    7.4245 N.2       4 LYS4        0.0000 
     68 CA         54.4134   28.7728    9.6881 C.3       6 GLY6        0.0000 
     69 CA         55.7897   28.5165    9.1496 C.3       6 GLY6        0.0000 
     70 CZ         54.0187   29.3969    8.3824 C.ar      5 PHE5        0.0000 
     71 OG         55.3950   29.1405    7.8439 O.2       1 SER1        0.0000 
     72 CA         53.6240   30.0209    7.0767 C.3       6 GLY6        0.0000 
     73 OG         55.0004   29.7645    6.5382 O.2       1 SER1        0.0000 
     74 N          53.2294   30.6449    5.7710 N.2       2 ALA2        0.0000 
     75 OG         54.6057   30.3886    5.2325 O.2       1 SER1        0.0000 
     76 CA         55.9820   30.1322    4.6940 C.3       6 GLY6        0.0000 
     77 N          52.8347   31.2690    4.4654 N.2       2 ALA2        0.0000 
     78 CA         54.2110   31.0126    3.9268 C.3       6 GLY6        0.0000 
     79 O          54.3608   26.8091   10.4887 O.2       2 ALA2        0.0000 
     80 OG         55.7371   26.5527    9.9502 O.2       1 SER1        0.0000 
     81 OG         57.1135   26.2963    9.4116 O.2       1 SER1        0.0000 
     82 CZ         53.9662   27.4331    9.1830 C.ar      5 PHE5        0.0000 
     83 CZ         55.3425   27.1767    8.6445 C.ar      5 PHE5        0.0000 
     84 OG         56.7188   26.9204    8.1059 O.2       1 SER1        0.0000 
     85 CZ         54.9478   27.8008    7.3388 C.ar      5 PHE5        0.0000 
     86 OG         56.3241   27.5444    6.8002 O.2       1 SER1        0.0000 
     87 CZ         54.5532   28.4248    6.0331 C.ar      5 PHE5        0.0000 
     88 OG         55.9295   28.1684    5.4945 O.2       1 SER1        0.0000 
     89 CZ         52.7822   29.3052    5.2659 C.ar      5 PHE5        0.0000 
     90 CA         54.1585   29.0488    4.7274 C.3       6 GLY6        0.0000 
     91 CA         52.3875   29.9292    3.9602 C.3       6 GLY6        0.0000 
     92 CA         53.7638   29.6729    3.4217 C.3       6 GLY6        0.0000 
     93 NZ         51.9929   30.5533    2.6545 N.2       4 LYS4        0.0000 
     94 CA         54.8606   30.1126   10.1932 C.3       6 GLY6        0.0000 
     95 O          53.0896   30.9930    9.4261 O.2       2 ALA2        0.0000 
     96 CA         54.4659   30.7366    8.8876 C.3       6 GLY6        0.0000 
     97 O          55.8422   30.4802    8.3490 O.2       2 ALA2        0.0000 
     98 CA         54.0712   31.3606    7.5819 C.3       6 GLY6        0.0000 
     99 OG         55.4476   31.1042    7.0433 O.2       1 SER1        0.0000 
    100 O          53.6766   31.9846    6.2762 O.2       2 ALA2        0.0000 
    101 CA         55.0529   31.7283    5.7376 C.3       6 GLY6        0.0000 
    102 OG         56.4292   31.4719    5.1991 O.2       1 SER1        0.0000 
@<TRIPOS>BOND
@<TRIPOS>SUBSTRUCTURE
     1 SER1       15 GROUP   
     2 ALA2        4 GROUP   
     3 ASP3       23 GROUP   
     4 LYS4        9 GROUP   
     5 PHE5        1 GROUP   
     6 GLY6       11 GROUP   
     7 CUB7        6 GROUP   
@<TRIPOS>SET

