#    Name: 2oat_PFM_2_INTS_M
#    Modification time : Tue Mar 25 22:10:55 2014

@<TRIPOS>MOLECULE
2oat_PFM_2_INTS_M
   82     0    12     0     0
SMALL
NO_CHARGES


@<TRIPOS>ATOM
      1 O          57.7925   25.6130   10.8460 O.2       1 ALC1        0.0000 
      2 O          57.3890   25.1600    9.7890 O.2       9 ALL1        0.0000 
      3 O          58.1960   26.0660   11.9030 O.2       5 ALP1        0.0000 
      4 CA         57.3115   25.4440   11.0915 C.3       4 GLC5        0.0000 
      5 CA         56.0980   25.7350    9.3010 C.3      12 GLL5        0.0000 
      6 CA         58.5250   25.1530   12.8820 C.3       8 GLP5        0.0000 
      7 CA         57.8240   24.6610    8.5120 C.3       4 GLC5        0.0000 
      8 CA         59.5500   23.5870    7.7230 C.3       8 GLP5        0.0000 
      9 NZ         53.2545   26.7915   11.2425 N.4       3 LYC4        0.0000 
     10 NZ         54.4500   27.0230   10.4640 N.4      11 LYL4        0.0000 
     11 NZ         51.6530   25.3690   12.4230 N.4       7 LYP4        0.0000 
     12 N          53.2545   26.7915   11.2425 N.am      2 SEC2        0.0000 
     13 N          54.4500   27.0230   10.4640 N.am     10 SEL2        0.0000 
     14 N          52.0590   26.5600   12.0210 N.am      6 SEP2        0.0000 
     15 NZ         53.5465   25.8205   11.6825 N.4       3 LYC4        0.0000 
     16 NZ         55.0340   25.0810   11.3440 N.4      11 LYL4        0.0000 
     17 N          53.5465   25.8205   11.6825 N.am      2 SEC2        0.0000 
     18 N          55.0340   25.0810   11.3440 N.am     10 SEL2        0.0000 
     19 N          53.6975   24.6850   11.7105 N.am      2 SEC2        0.0000 
     20 N          52.3610   24.2890   12.0770 N.am      6 SEP2        0.0000 
     21 CA         57.0860   23.6430    7.9525 C.3       4 GLC5        0.0000 
     22 CA         55.4590   24.8000    8.2800 C.3      12 GLL5        0.0000 
     23 CA         58.7130   22.4860    7.6250 C.3       8 GLP5        0.0000 
     24 N          57.1870   27.1520    4.9835 N.am      2 SEC2        0.0000 
     25 N          56.5880   26.7910    6.3320 N.am     10 SEL2        0.0000 
     26 N          57.7860   27.5130    3.6350 N.am      6 SEP2        0.0000 
     27 O          57.3990   27.9875    6.2140 O.2       1 ALC1        0.0000 
     28 O          56.5880   26.7910    6.3320 O.2       9 ALL1        0.0000 
     29 O          58.2100   29.1840    6.0960 O.2       5 ALP1        0.0000 
     30 N          53.9910   25.8525    1.9800 N.am      2 SEC2        0.0000 
     31 N          53.4030   27.0120    2.6240 N.am     10 SEL2        0.0000 
     32 N          54.5790   24.6930    1.3360 N.am      6 SEP2        0.0000 
     33 CA         50.6860   29.6720    3.4120 C.3       4 GLC5        0.0000 
     34 CA         52.2480   28.9870    2.0850 C.3      12 GLL5        0.0000 
     35 CA         49.1240   30.3570    4.7390 C.3       8 GLP5        0.0000 
     36 CA         50.0835   27.9160   -0.1585 C.3       4 GLC5        0.0000 
     37 CA         51.7010   28.3570    0.7970 C.3      12 GLL5        0.0000 
     38 CA         48.4660   27.4750   -1.1140 C.3       8 GLP5        0.0000 
     39 CA         53.4470   27.4985   -0.0175 C.3       4 GLC5        0.0000 
     40 CA         55.1930   26.6400   -0.8320 C.3       8 GLP5        0.0000 
     41 N          50.8985   30.6180    1.5670 N.am      2 SEC2        0.0000 
     42 N          51.8530   30.2670    2.3940 N.am     10 SEL2        0.0000 
     43 N          49.9440   30.9690    0.7400 N.am      6 SEP2        0.0000 
     44 CA         52.7020   32.1890    2.3515 C.3       4 GLC5        0.0000 
     45 CA         52.3890   30.8700    3.5130 C.3      12 GLL5        0.0000 
     46 CA         53.0150   33.5080    1.1900 C.3       8 GLP5        0.0000 
     47 CA         52.9235   32.9115    6.0700 C.3       4 GLC5        0.0000 
     48 CA         53.7340   30.8960    5.6130 C.3      12 GLL5        0.0000 
     49 CA         52.1130   34.9270    6.5270 C.3       8 GLP5        0.0000 
     50 CA         52.7365   29.1450    6.4290 C.3       4 GLC5        0.0000 
     51 CA         51.7390   27.3940    7.2450 C.3       8 GLP5        0.0000 
     52 CA         52.2825   30.8025    6.8635 C.3       4 GLC5        0.0000 
     53 CA         50.8310   30.7090    8.1140 C.3       8 GLP5        0.0000 
     54 N          54.1870   33.5990    6.7270 N.am      2 SEC2        0.0000 
     55 N          55.0030   32.6690    7.5190 N.am     10 SEL2        0.0000 
     56 N          53.3710   34.5290    5.9350 N.am      6 SEP2        0.0000 
     57 N          57.3920   30.1220    8.1250 N.am      2 SEC2        0.0000 
     58 N          56.2910   30.5220    7.3120 N.am     10 SEL2        0.0000 
     59 N          58.4930   29.7220    8.9380 N.am      6 SEP2        0.0000 
     60 N          57.2505   29.8530    6.7040 N.am      2 SEC2        0.0000 
     61 N          58.2100   29.1840    6.0960 N.am      6 SEP2        0.0000 
     62 N          56.5960   33.7210    5.5125 N.am      2 SEC2        0.0000 
     63 N          57.1120   32.6160    6.0660 N.am     10 SEL2        0.0000 
     64 N          56.0800   34.8260    4.9590 N.am      6 SEP2        0.0000 
     65 CA         53.3540   26.6770    6.9860 C.3       4 GLC5        0.0000 
     66 CA         55.2800   26.4380    6.2240 C.3      12 GLL5        0.0000 
     67 CA         55.9712   27.6010    4.2557 C.3       4 GLC5        0.0000 
     68 CA         57.0600   28.4890    2.7710 C.3       8 GLP5        0.0000 
     69 CA         53.1088   27.5127    6.1690 C.3       4 GLC5        0.0000 
     70 CA         54.4720   28.2750    4.9290 C.3      12 GLL5        0.0000 
     71 CA         53.5405   25.0140    5.4855 C.3       4 GLC5        0.0000 
     72 CA         54.4850   26.9880    5.2570 C.3      12 GLL5        0.0000 
     73 CA         52.3540   23.5540    4.9790 C.3       8 GLP5        0.0000 
     74 CA         53.1837   30.1990    0.7085 C.3       4 GLC5        0.0000 
     75 CA         54.3930   31.7260   -0.0240 C.3       8 GLP5        0.0000 
     76 CA         50.9735   30.4455    4.3270 C.3       4 GLC5        0.0000 
     77 CA         54.3782   30.4650    2.4881 C.3       4 GLC5        0.0000 
     78 CA         53.2570   30.1980    4.3170 C.3      12 GLL5        0.0000 
     79 CA         55.4250   31.5300    1.0820 C.3       8 GLP5        0.0000 
     80 CA         55.2459   28.9052    3.3886 C.3       4 GLC5        0.0000 
     81 CA         54.1193   32.5215    4.4300 C.3       4 GLC5        0.0000 
     82 CA         54.9600   34.3280    4.0960 C.3       8 GLP5        0.0000 
@<TRIPOS>BOND
@<TRIPOS>SUBSTRUCTURE
     1 ALC1        1 GROUP        1 X    ALC  0     ROOT ALC X 1
     2 SEC2       12 GROUP        1 X    SEC  0     **** SEC X 2
     3 LYC4        9 GROUP        1 X    LYC  0     **** LYC X 4
     4 GLC5        4 GROUP        1 X    GLC  0     **** GLC X 6
     5 ALP1        3 GROUP        1 Y    ALP  0     ROOT ALP Y 8
     6 SEP2       14 GROUP        1 Y    SEP  0     **** SEP Y 9
     7 LYP4       11 GROUP        1 Y    LYP  0     **** LYP Y 11
     8 GLP5        6 GROUP        1 Y    GLP  0     **** GLP Y 13
     9 ALL1        2 GROUP        1 Z    ALL  0     ROOT ALL Z 15
    10 SEL2       13 GROUP        1 Z    SEL  0     **** SEL Z 16
    11 LYL4       10 GROUP        1 Z    LYL  0     **** LYL Z 18
    12 GLL5        5 GROUP        1 Z    GLL  0     **** GLL Z 20
@<TRIPOS>SET

