#    Name: 2oat_PFM_2_ligand
#    Modification time : Tue Mar 25 22:10:55 2014

@<TRIPOS>MOLECULE
2oat_PFM_2_ligand
   42    42     1     0     0
SMALL
NO_CHARGES


@<TRIPOS>ATOM
      1 N          57.3890   25.1600    9.7890 N.4       1 PFM440      0.0000 
      2 CA         56.0980   25.7350    9.3010 C.3       1 PFM440      0.0000 
      3 C          55.1160   25.9770   10.4600 C.2       1 PFM440      0.0000 
      4 OA         54.4500   27.0230   10.4640 O.co2     1 PFM440      0.0000 
      5 OB         55.0340   25.0810   11.3440 O.co2     1 PFM440      0.0000 
      6 CB         55.4590   24.8000    8.2800 C.3       1 PFM440      0.0000 
      7 CG         54.6580   25.4820    7.2300 C.2       1 PFM440      0.0000 
      8 CD         55.2800   26.4380    6.2240 C.2       1 PFM440      0.0000 
      9 OE         56.5880   26.7910    6.3320 O.3       1 PFM440      0.0000 
     10 C4B        54.4850   26.9880    5.2570 C.2       1 PFM440      0.0000 
     11 C4A        54.4720   28.2750    4.9290 C.2       1 PFM440      0.0000 
     12 C4         53.6700   28.9030    4.0340 C.ar      1 PFM440      0.0000 
     13 C3         53.1420   28.3010    2.9090 C.ar      1 PFM440      0.0000 
     14 O3         53.4030   27.0120    2.6240 O.3       1 PFM440      0.0000 
     15 C2         52.2480   28.9870    2.0850 C.ar      1 PFM440      0.0000 
     16 C2A        51.7010   28.3570    0.7970 C.3       1 PFM440      0.0000 
     17 N1         51.8530   30.2670    2.3940 N.ar      1 PFM440      0.0000 
     18 C6         52.3890   30.8700    3.5130 C.ar      1 PFM440      0.0000 
     19 C5         53.2570   30.1980    4.3170 C.ar      1 PFM440      0.0000 
     20 C5A        53.7340   30.8960    5.6130 C.3       1 PFM440      0.0000 
     21 P          55.9260   31.9080    6.6660 P.3       1 PFM440      0.0000 
     22 OP1        55.0030   32.6690    7.5190 O.co2     1 PFM440      0.0000 
     23 OP2        56.2910   30.5220    7.3120 O.co2     1 PFM440      0.0000 
     24 OP3        57.1120   32.6160    6.0660 O.co2     1 PFM440      0.0000 
     25 OP4        55.0710   31.3640    5.3680 O.3       1 PFM440      0.0000 
     26 H          56.2847   26.6859    8.8157 H         1 PFM440      0.0000 
     27 H          54.8207   24.0736    8.8260 H         1 PFM440      0.0000 
     28 H          56.2646   24.2000    7.8066 H         1 PFM440      0.0000 
     29 H          53.6651   25.3141    7.1708 H         1 PFM440      0.0000 
     30 H          53.8282   26.3169    4.7330 H         1 PFM440      0.0000 
     31 H          55.1998   28.9215    5.4425 H         1 PFM440      0.0000 
     32 H          52.1213   31.8499    3.7376 H         1 PFM440      0.0000 
     33 H          53.6969   30.1674    6.4114 H         1 PFM440      0.0000 
     34 H          53.0496   31.7073    5.8202 H         1 PFM440      0.0000 
     35 H          57.8423   25.7665   10.4422 H         1 PFM440      0.0000 
     36 H          57.2543   24.2822   10.2487 H         1 PFM440      0.0000 
     37 H          58.0324   25.0028    9.0397 H         1 PFM440      0.0000 
     38 H          52.4333   28.1269    0.1560 H         1 PFM440      0.0000 
     39 H          51.1969   27.5132    0.9813 H         1 PFM440      0.0000 
     40 H          51.0757   28.9735    0.3185 H         1 PFM440      0.0000 
     41 H          56.6083   27.7715    6.1368 H         1 PFM440      0.0000 
     42 H          52.9094   26.4884    3.3184 H         1 PFM440      0.0000 
@<TRIPOS>BOND
     1    2    1 1    
     2   35    1 1    
     3   36    1 1    
     4   37    1 1    
     5    3    2 1    
     6    6    2 1    
     7   26    2 1    
     8    4    3 ar   
     9    5    3 ar   
    10    7    6 1    
    11   27    6 1    
    12   28    6 1    
    13    8    7 2    
    14   29    7 1    
    15    9    8 1    
    16   10    8 1    
    17   41    9 1    
    18   11   10 2    
    19   30   10 1    
    20   12   11 1    
    21   31   11 1    
    22   13   12 ar   
    23   19   12 ar   
    24   14   13 1    
    25   15   13 ar   
    26   42   14 1    
    27   16   15 1    
    28   17   15 ar   
    29   38   16 1    
    30   39   16 1    
    31   40   16 1    
    32   18   17 ar   
    33   19   18 ar   
    34   32   18 1    
    35   20   19 1    
    36   25   20 1    
    37   33   20 1    
    38   34   20 1    
    39   22   21 ar   
    40   23   21 ar   
    41   24   21 ar   
    42   25   21 1    
@<TRIPOS>SUBSTRUCTURE
     1 PFM440      1 GROUP   
@<TRIPOS>SET

