#    Name: 4ey7_E20_2_INTS_M
#    Modification time : Mon Mar 24 18:45:51 2014

@<TRIPOS>MOLECULE
4ey7_E20_2_INTS_M
   58     0     6     0     0
SMALL
NO_CHARGES


@<TRIPOS>ATOM
      1 CA          8.5610  -54.9550  -23.1925 C.3       2 GLC5        0.0000 
      2 CA         10.6220  -55.3680  -22.9100 C.3       6 GLL5        0.0000 
      3 CA          6.5000  -54.5420  -23.4750 C.3       4 GLP5        0.0000 
      4 CA          9.3915  -56.3040  -21.3610 C.3       2 GLC5        0.0000 
      5 CA          8.1610  -57.2400  -19.8120 C.3       4 GLP5        0.0000 
      6 CA         10.2285  -55.5335  -25.6655 C.3       2 GLC5        0.0000 
      7 CA         11.4610  -54.9910  -24.1310 C.3       6 GLL5        0.0000 
      8 CA          8.9960  -56.0760  -27.2000 C.3       4 GLP5        0.0000 
      9 CA         10.4560  -53.5460  -25.1885 C.3       2 GLC5        0.0000 
     10 CA          9.4510  -52.1010  -26.2460 C.3       4 GLP5        0.0000 
     11 CA         10.0845  -56.4770  -20.5055 C.3       2 GLC5        0.0000 
     12 CA         11.2070  -56.4790  -22.0310 C.3       6 GLL5        0.0000 
     13 CA          8.9620  -56.4750  -18.9800 C.3       4 GLP5        0.0000 
     14 CA         12.8485  -56.2760  -21.2185 C.3       2 GLC5        0.0000 
     15 CA         14.4900  -56.0730  -20.4060 C.3       4 GLP5        0.0000 
     16 CA         13.2995  -57.6885  -23.1325 C.3       2 GLC5        0.0000 
     17 CA         11.5490  -58.3400  -23.7380 C.3       6 GLL5        0.0000 
     18 CA         15.0500  -57.0370  -22.5270 C.3       4 GLP5        0.0000 
     19 CA         12.1900  -61.3340  -21.3375 C.3       2 GLC5        0.0000 
     20 CA         10.8130  -60.2820  -21.8130 C.3       6 GLL5        0.0000 
     21 CA         13.5670  -62.3860  -20.8620 C.3       4 GLP5        0.0000 
     22 CA          9.2510  -59.3740  -20.5905 C.3       2 GLC5        0.0000 
     23 CA          7.6890  -58.4660  -19.3680 C.3       4 GLP5        0.0000 
     24 CA         12.3895  -59.7825  -20.3115 C.3       2 GLC5        0.0000 
     25 CA         11.2690  -58.9050  -21.4300 C.3       6 GLL5        0.0000 
     26 CA         13.5100  -60.6600  -19.1930 C.3       4 GLP5        0.0000 
     27 CA         12.4280  -63.1345  -24.3490 C.3       2 GLC5        0.0000 
     28 CA         11.3120  -62.1570  -23.4640 C.3       6 GLL5        0.0000 
     29 CA         13.5440  -64.1120  -25.2340 C.3       4 GLP5        0.0000 
     30 CA         12.4395  -62.2715  -22.1630 C.3       2 GLC5        0.0000 
     31 CA         10.9620  -62.9380  -26.2900 C.3       2 GLC5        0.0000 
     32 CA          9.3880  -62.4340  -25.0930 C.3       6 GLL5        0.0000 
     33 CA         12.5360  -63.4420  -27.4870 C.3       4 GLP5        0.0000 
     34 N           8.8610  -53.2495  -20.2290 N.am      1 SEC2        0.0000 
     35 N           9.7950  -53.8950  -21.1440 N.am      5 SEL2        0.0000 
     36 N           7.9270  -52.6040  -19.3140 N.am      3 SEP2        0.0000 
     37 CA         14.4170  -51.9510  -28.0700 C.3       2 GLC5        0.0000 
     38 CA         13.9990  -51.0470  -26.6020 C.3       6 GLL5        0.0000 
     39 CA         14.8350  -52.8550  -29.5380 C.3       4 GLP5        0.0000 
     40 CA         12.3345  -51.0810  -27.3140 C.3       2 GLC5        0.0000 
     41 CA         10.6700  -51.1150  -28.0260 C.3       4 GLP5        0.0000 
     42 CA         12.6730  -52.9370  -21.4425 C.3       2 GLC5        0.0000 
     43 CA         11.3530  -51.5940  -22.5990 C.3       6 GLL5        0.0000 
     44 CA         14.0750  -53.5900  -20.1360 C.3       4 GLP5        0.0000 
     45 CA         12.8523  -54.9322  -22.9327 C.3       2 GLC5        0.0000 
     46 CA         14.6630  -54.6850  -22.3450 C.3       4 GLP5        0.0000 
     47 CA          9.6082  -57.8233  -20.8860 C.3       2 GLC5        0.0000 
     48 CA         10.8420  -57.9080  -22.4900 C.3       6 GLL5        0.0000 
     49 CA         12.9307  -57.7968  -21.5650 C.3       2 GLC5        0.0000 
     50 CA         14.8060  -57.1870  -21.1700 C.3       4 GLP5        0.0000 
     51 CA          6.7518  -61.6953  -26.0605 C.3       2 GLC5        0.0000 
     52 CA          8.0760  -62.8320  -25.4000 C.3       6 GLL5        0.0000 
     53 CA          5.8310  -60.2840  -27.2210 C.3       4 GLP5        0.0000 
     54 CA          7.6178  -62.5812  -21.4005 C.3       2 GLC5        0.0000 
     55 CA          7.7640  -63.5400  -23.0890 C.3       6 GLL5        0.0000 
     56 CA          6.8200  -61.8200  -19.8600 C.3       4 GLP5        0.0000 
     57 CA          8.2363  -64.9243  -21.7310 C.3       2 GLC5        0.0000 
     58 CA          8.0570  -66.5060  -20.5210 C.3       4 GLP5        0.0000 
@<TRIPOS>BOND
@<TRIPOS>SUBSTRUCTURE
     1 SEC2       34 GROUP        1 X    SEC  0     ROOT SEC X 2
     2 GLC5        1 GROUP        1 X    GLC  0     **** GLC X 6
     3 SEP2       36 GROUP        1 Y    SEP  0     ROOT SEP Y 9
     4 GLP5        3 GROUP        1 Y    GLP  0     **** GLP Y 13
     5 SEL2       35 GROUP        1 Z    SEL  0     ROOT SEL Z 16
     6 GLL5        2 GROUP        1 Z    GLL  0     **** GLL Z 20
@<TRIPOS>SET

