#    Name: 4ey7_E20_2_ligand
#    Modification time : Mon Mar 24 18:45:51 2014

@<TRIPOS>MOLECULE
4ey7_E20_2_ligand
   58    61     1     0     0
SMALL
NO_CHARGES


@<TRIPOS>ATOM
      1 C1         12.1090  -50.7890  -23.4660 C.ar      1 E20605      0.0000 
      2 C2         12.6830  -51.3280  -24.5920 C.ar      1 E20605      0.0000 
      3 C3         12.5240  -52.6740  -24.8840 C.ar      1 E20605      0.0000 
      4 C4         11.7720  -53.4980  -24.0290 C.ar      1 E20605      0.0000 
      5 C5         11.1890  -52.9740  -22.8990 C.ar      1 E20605      0.0000 
      6 C6         11.3530  -51.5940  -22.5990 C.ar      1 E20605      0.0000 
      7 C7         10.4500  -54.0510  -22.1770 C.2       1 E20605      0.0000 
      8 C8         10.6220  -55.3680  -22.9100 C.3       1 E20605      0.0000 
      9 C9         11.4610  -54.9910  -24.1310 C.3       1 E20605      0.0000 
     10 C10        11.2070  -56.4790  -22.0310 C.3       1 E20605      0.0000 
     11 C11        10.8420  -57.9080  -22.4900 C.3       1 E20605      0.0000 
     12 C12        11.5490  -58.3400  -23.7380 C.3       1 E20605      0.0000 
     13 C13        11.2470  -59.7520  -24.1460 C.3       1 E20605      0.0000 
     14 N14        11.3950  -60.7540  -23.0740 N.4       1 E20605      0.0000 
     15 C15        10.8130  -60.2820  -21.8130 C.3       1 E20605      0.0000 
     16 C16        11.2690  -58.9050  -21.4300 C.3       1 E20605      0.0000 
     17 C17        11.3120  -62.1570  -23.4640 C.3       1 E20605      0.0000 
     18 C18         9.8890  -62.5850  -23.7940 C.ar      1 E20605      0.0000 
     19 C19         9.3880  -62.4340  -25.0930 C.ar      1 E20605      0.0000 
     20 C20         8.0760  -62.8320  -25.4000 C.ar      1 E20605      0.0000 
     21 C21         7.2690  -63.3810  -24.4000 C.ar      1 E20605      0.0000 
     22 C22         7.7640  -63.5400  -23.0890 C.ar      1 E20605      0.0000 
     23 C23         9.0670  -63.1450  -22.7930 C.ar      1 E20605      0.0000 
     24 O24         9.7950  -53.8950  -21.1440 O.2       1 E20605      0.0000 
     25 O25        12.3080  -49.4460  -23.2490 O.3       1 E20605      0.0000 
     26 C26        11.6840  -48.7860  -22.2260 C.3       1 E20605      0.0000 
     27 O27        13.4370  -50.5060  -25.4380 O.3       1 E20605      0.0000 
     28 C28        13.9990  -51.0470  -26.6020 C.3       1 E20605      0.0000 
     29 H          12.9536  -53.0782  -25.7255 H         1 E20605      0.0000 
     30 H          10.9251  -51.2028  -21.7654 H         1 E20605      0.0000 
     31 H           9.6368  -55.6629  -23.2733 H         1 E20605      0.0000 
     32 H          12.3780  -55.5509  -24.1240 H         1 E20605      0.0000 
     33 H          10.8985  -55.1810  -25.0264 H         1 E20605      0.0000 
     34 H          10.8547  -56.3420  -20.9968 H         1 E20605      0.0000 
     35 H          12.3040  -56.3850  -22.0156 H         1 E20605      0.0000 
     36 H           9.7862  -57.9882  -22.6201 H         1 E20605      0.0000 
     37 H          12.6418  -58.2303  -23.5940 H         1 E20605      0.0000 
     38 H          11.2757  -57.6572  -24.5663 H         1 E20605      0.0000 
     39 H          11.9065  -60.0225  -25.0039 H         1 E20605      0.0000 
     40 H          10.2089  -59.7899  -24.5522 H         1 E20605      0.0000 
     41 H          12.6038  -60.6230  -22.8323 H         1 E20605      0.0000 
     42 H          11.0693  -60.9817  -20.9919 H         1 E20605      0.0000 
     43 H           9.7063  -60.2826  -21.8827 H         1 E20605      0.0000 
     44 H          10.8292  -58.6223  -20.4748 H         1 E20605      0.0000 
     45 H          12.3539  -58.8871  -21.3381 H         1 E20605      0.0000 
     46 H          11.6874  -62.8085  -22.6554 H         1 E20605      0.0000 
     47 H          11.9431  -62.3530  -24.3487 H         1 E20605      0.0000 
     48 H           9.9818  -62.0300  -25.8273 H         1 E20605      0.0000 
     49 H           7.7171  -62.7192  -26.3503 H         1 E20605      0.0000 
     50 H           6.3080  -63.6725  -24.6154 H         1 E20605      0.0000 
     51 H           7.1649  -63.9431  -22.3662 H         1 E20605      0.0000 
     52 H           9.4390  -63.2590  -21.8420 H         1 E20605      0.0000 
     53 H          11.9252  -49.1698  -21.3346 H         1 E20605      0.0000 
     54 H          11.9303  -47.8171  -22.2042 H         1 E20605      0.0000 
     55 H          10.6883  -48.8336  -22.3060 H         1 E20605      0.0000 
     56 H          14.5102  -50.3618  -27.1207 H         1 E20605      0.0000 
     57 H          14.6332  -51.7923  -26.3965 H         1 E20605      0.0000 
     58 H          13.3004  -51.4171  -27.2144 H         1 E20605      0.0000 
@<TRIPOS>BOND
     1    2    1 ar   
     2    6    1 ar   
     3   25    1 1    
     4    3    2 ar   
     5   27    2 1    
     6    4    3 ar   
     7   29    3 1    
     8    5    4 ar   
     9    9    4 1    
    10    6    5 ar   
    11    7    5 1    
    12   30    6 1    
    13    8    7 1    
    14   24    7 2    
    15    9    8 1    
    16   10    8 1    
    17   31    8 1    
    18   32    9 1    
    19   33    9 1    
    20   11   10 1    
    21   34   10 1    
    22   35   10 1    
    23   12   11 1    
    24   16   11 1    
    25   36   11 1    
    26   13   12 1    
    27   37   12 1    
    28   38   12 1    
    29   14   13 1    
    30   39   13 1    
    31   40   13 1    
    32   15   14 1    
    33   17   14 1    
    34   41   14 1    
    35   16   15 1    
    36   42   15 1    
    37   43   15 1    
    38   44   16 1    
    39   45   16 1    
    40   18   17 1    
    41   46   17 1    
    42   47   17 1    
    43   19   18 ar   
    44   23   18 ar   
    45   20   19 ar   
    46   48   19 1    
    47   21   20 ar   
    48   49   20 1    
    49   22   21 ar   
    50   50   21 1    
    51   23   22 ar   
    52   51   22 1    
    53   52   23 1    
    54   26   25 1    
    55   53   26 1    
    56   54   26 1    
    57   55   26 1    
    58   28   27 1    
    59   56   28 1    
    60   57   28 1    
    61   58   28 1    
@<TRIPOS>SUBSTRUCTURE
     1 E20605      1 GROUP   
@<TRIPOS>SET

