#    Name: 4H2D_1_CAVITY_N1_6.mol2
#    Modification time : Tue Mar 11 01:22:53 2014

@<TRIPOS>MOLECULE
4H2D_1_CAVITY_N1_6.mol2
   79     0     6     0     0
SMALL
NO_CHARGES


@<TRIPOS>ATOM
      1 NZ         39.5713   -7.1835  -10.1052 N.2       3 LYS4        0.0000 
      2 OG         38.7613   -9.1413  -10.0006 O.2       1 SER1        0.0000 
      3 DU         39.2966   -8.2723  -11.0998 H         6 CUB7        0.0000 
      4 NZ         39.8320   -7.4032  -12.1989 N.2       3 LYS4        0.0000 
      5 CZ         40.3673   -6.5342  -13.2981 C.ar      4 PHE5        0.0000 
      6 OG         38.4866  -10.2301  -10.9952 O.2       1 SER1        0.0000 
      7 DU         39.0220   -9.3610  -12.0944 H         6 CUB7        0.0000 
      8 N          39.5573   -8.4919  -13.1935 N.2       2 ALA2        0.0000 
      9 CZ         40.0926   -7.6229  -14.2927 C.ar      4 PHE5        0.0000 
     10 OG         38.2119  -11.3188  -11.9898 O.2       1 SER1        0.0000 
     11 OG         38.7473  -10.4497  -13.0890 O.2       1 SER1        0.0000 
     12 N          39.2826   -9.5807  -14.1881 N.2       2 ALA2        0.0000 
     13 N          39.8180   -8.7116  -15.2873 N.2       2 ALA2        0.0000 
     14 CZ         40.3533   -7.8426  -16.3864 C.ar      4 PHE5        0.0000 
     15 N          40.0786   -8.9313  -17.3810 N.2       2 ALA2        0.0000 
     16 CZ         40.6140   -8.0622  -18.4802 C.ar      4 PHE5        0.0000 
     17 NZ         37.9366   -6.4076   -8.2408 N.2       3 LYS4        0.0000 
     18 OG         37.1266   -8.3654   -8.1363 O.2       1 SER1        0.0000 
     19 NZ         37.6619   -7.4964   -9.2354 N.2       3 LYS4        0.0000 
     20 NZ         38.1973   -6.6273  -10.3346 N.2       3 LYS4        0.0000 
     21 OG         37.3873   -8.5851  -10.2300 O.2       1 SER1        0.0000 
     22 DU         37.9226   -7.7160  -11.3292 H         6 CUB7        0.0000 
     23 N          38.4579   -6.8470  -12.4283 N.2       2 ALA2        0.0000 
     24 CA         38.9933   -5.9779  -13.5275 C.3       5 GLY6        0.0000 
     25 OG         37.1126   -9.6738  -11.2246 O.2       1 SER1        0.0000 
     26 N          37.6479   -8.8048  -12.3238 N.2       2 ALA2        0.0000 
     27 N          38.1833   -7.9357  -13.4229 N.2       2 ALA2        0.0000 
     28 N          38.7186   -7.0667  -14.5221 N.2       2 ALA2        0.0000 
     29 N          39.2539   -6.1976  -15.6213 N.2       2 ALA2        0.0000 
     30 CA         36.3026  -11.6316  -11.1201 C.3       5 GLY6        0.0000 
     31 OG         36.8379  -10.7626  -12.2192 O.2       1 SER1        0.0000 
     32 N          37.3732   -9.8935  -13.3184 N.2       2 ALA2        0.0000 
     33 N          38.9793   -7.2863  -16.6158 N.2       2 ALA2        0.0000 
     34 CA         39.5146   -6.4173  -17.7150 C.3       5 GLY6        0.0000 
     35 NZ         36.8372   -4.7627   -7.4757 N.2       3 LYS4        0.0000 
     36 OG         36.5626   -5.8514   -8.4703 O.2       1 SER1        0.0000 
     37 NZ         37.0979   -4.9823   -9.5694 N.2       3 LYS4        0.0000 
     38 OG         36.2879   -6.9401   -9.4649 O.2       1 SER1        0.0000 
     39 NZ         36.8232   -6.0711  -10.5640 N.2       3 LYS4        0.0000 
     40 N          37.3586   -5.2020  -11.6632 N.2       2 ALA2        0.0000 
     41 OG         36.0132   -8.0289  -10.4594 O.2       1 SER1        0.0000 
     42 DU         36.5486   -7.1598  -11.5586 H         6 CUB7        0.0000 
     43 N          37.0839   -6.2907  -12.6578 N.2       2 ALA2        0.0000 
     44 OG         35.7386   -9.1176  -11.4540 O.2       1 SER1        0.0000 
     45 N          36.2739   -8.2485  -12.5532 N.2       2 ALA2        0.0000 
     46 CA         35.4639  -10.2063  -12.4486 C.3       5 GLY6        0.0000 
     47 O          44.4327   -7.4366  -20.2197 O.2       2 ALA2        0.0000 
     48 O          42.5520  -11.1325  -17.9168 O.2       2 ALA2        0.0000 
     49 CZ         43.0873  -10.2634  -19.0159 C.ar      4 PHE5        0.0000 
     50 CZ         43.6227   -9.3944  -20.1151 C.ar      4 PHE5        0.0000 
     51 O          44.1580   -8.5253  -21.2143 O.2       2 ALA2        0.0000 
     52 CA         44.6934   -7.6563  -22.3134 C.3       5 GLY6        0.0000 
     53 CA         43.3480  -10.4831  -21.1097 C.3       5 GLY6        0.0000 
     54 DU         43.8833   -9.6140  -22.2088 H         6 CUB7        0.0000 
     55 OG         41.2060   -7.9594  -11.9695 O.2       1 SER1        0.0000 
     56 OG         40.3960   -9.9172  -11.8649 O.2       1 SER1        0.0000 
     57 OG         40.9313   -9.0482  -12.9641 O.2       1 SER1        0.0000 
     58 OG         40.6567  -10.1369  -13.9587 O.2       1 SER1        0.0000 
     59 CZ         41.1920   -9.2679  -15.0578 C.ar      4 PHE5        0.0000 
     60 CA         40.9173  -10.3566  -16.0524 C.3       5 GLY6        0.0000 
     61 CZ         41.4526   -9.4875  -17.1516 C.ar      4 PHE5        0.0000 
     62 O          41.7133   -9.7072  -19.2454 O.2       2 ALA2        0.0000 
     63 CZ         42.2486   -8.8381  -20.3445 C.ar      4 PHE5        0.0000 
     64 O          42.7840   -7.9691  -21.4437 O.2       2 ALA2        0.0000 
     65 CA         42.5093   -9.0578  -22.4383 C.3       5 GLY6        0.0000 
     66 NZ         35.9986   -3.3374   -8.8042 N.2       3 LYS4        0.0000 
     67 NZ         35.7239   -4.4261   -9.7988 N.2       3 LYS4        0.0000 
     68 O          36.2592   -3.5570  -10.8980 O.2       2 ALA2        0.0000 
     69 OG         34.9139   -6.3839   -9.6943 O.2       1 SER1        0.0000 
     70 CA         35.4492   -5.5148  -10.7934 C.3       5 GLY6        0.0000 
     71 O          35.9845   -4.6458  -11.8926 O.2       2 ALA2        0.0000 
     72 OG         34.1039   -8.3417   -9.5897 O.2       1 SER1        0.0000 
     73 CA         34.6392   -7.4726  -10.6889 C.3       5 GLY6        0.0000 
     74 CA         35.1745   -6.6036  -11.7880 C.3       5 GLY6        0.0000 
     75 O          33.8292   -9.4304  -10.5843 O.2       2 ALA2        0.0000 
     76 CA         34.3645   -8.5614  -11.6835 C.3       5 GLY6        0.0000 
     77 CA         33.5398   -5.8277   -9.9237 C.3       5 GLY6        0.0000 
     78 O          32.7298   -7.7854   -9.8191 O.2       2 ALA2        0.0000 
     79 CA         33.2652   -6.9164  -10.9183 C.3       5 GLY6        0.0000 
@<TRIPOS>BOND
@<TRIPOS>SUBSTRUCTURE
     1 SER1        2 GROUP   
     2 ALA2        8 GROUP   
     3 LYS4        1 GROUP   
     4 PHE5        5 GROUP   
     5 GLY6       24 GROUP   
     6 CUB7        3 GROUP   
@<TRIPOS>SET

