#    Name: 4h2d_FMN_1_INTS_M
#    Modification time : Tue Mar 25 00:07:39 2014

@<TRIPOS>MOLECULE
4h2d_FMN_1_INTS_M
   55     0     9     0     0
SMALL
NO_CHARGES


@<TRIPOS>ATOM
      1 N          39.0385   -3.4400  -15.9535 N.am      2 SEC2        0.0000 
      2 N          38.6890   -4.1090  -17.2330 N.am      8 SEL2        0.0000 
      3 N          39.3880   -2.7710  -14.6740 N.am      5 SEP2        0.0000 
      4 N          37.8920   -3.3330  -18.1525 N.am      2 SEC2        0.0000 
      5 N          37.0950   -2.5570  -19.0720 N.am      5 SEP2        0.0000 
      6 O          39.1380   -5.4345  -19.3910 O.2       1 ALC1        0.0000 
      7 O          39.4370   -6.0440  -18.0790 O.2       7 ALL1        0.0000 
      8 O          38.8390   -4.8250  -20.7030 O.2       4 ALP1        0.0000 
      9 N          39.5270   -9.1340  -19.9650 N.am      2 SEC2        0.0000 
     10 N          40.1830   -8.0110  -18.9080 N.am      8 SEL2        0.0000 
     11 N          38.8710  -10.2570  -21.0220 N.am      5 SEP2        0.0000 
     12 CA         40.2390   -5.0645  -13.2670 C.3       3 GLC5        0.0000 
     13 CA         39.1370   -6.4920  -13.0860 C.3       9 GLL5        0.0000 
     14 CA         41.3410   -3.6370  -13.4480 C.3       6 GLP5        0.0000 
     15 CA         41.1055   -6.6015  -13.8600 C.3       3 GLC5        0.0000 
     16 CA         43.0740   -6.7110  -14.6340 C.3       6 GLP5        0.0000 
     17 O          36.7150   -7.3085  -14.6275 O.2       1 ALC1        0.0000 
     18 O          36.7530   -6.4920  -13.6300 O.2       7 ALL1        0.0000 
     19 O          36.6770   -8.1250  -15.6250 O.2       4 ALP1        0.0000 
     20 O          38.9275   -5.5665   -9.8600 O.2       1 ALC1        0.0000 
     21 O          38.1920   -6.5410  -10.2650 O.2       7 ALL1        0.0000 
     22 O          39.6630   -4.5920   -9.4550 O.2       4 ALP1        0.0000 
     23 CA         34.5310   -4.7850  -11.4675 C.3       3 GLC5        0.0000 
     24 CA         35.9710   -6.0070  -10.9580 C.3       9 GLL5        0.0000 
     25 CA         33.0910   -3.5630  -11.9770 C.3       6 GLP5        0.0000 
     26 CA         34.3880   -6.7335   -8.9445 C.3       3 GLC5        0.0000 
     27 CA         35.5310   -7.4060  -10.5570 C.3       9 GLL5        0.0000 
     28 CA         33.2450   -6.0610   -7.3320 C.3       6 GLP5        0.0000 
     29 N          33.7090  -10.5390   -8.8335 N.am      2 SEC2        0.0000 
     30 N          33.9050   -8.9300   -8.5920 N.am      8 SEL2        0.0000 
     31 N          33.5130  -12.1480   -9.0750 N.am      5 SEP2        0.0000 
     32 N          34.8595   -9.7140   -8.3440 N.am      2 SEC2        0.0000 
     33 N          35.8140  -10.4980   -8.0960 N.am      5 SEP2        0.0000 
     34 N          32.9450   -8.5445   -7.6705 N.am      2 SEC2        0.0000 
     35 N          31.9850   -8.1590   -6.7490 N.am      5 SEP2        0.0000 
     36 N          34.1525   -7.8520   -7.7355 N.am      2 SEC2        0.0000 
     37 N          34.4000   -6.7740   -6.8790 N.am      5 SEP2        0.0000 
     38 N          30.9320   -9.1750   -9.5205 N.am      2 SEC2        0.0000 
     39 N          31.9190   -8.3460   -9.9990 N.am      8 SEL2        0.0000 
     40 N          29.9450  -10.0040   -9.0420 N.am      5 SEP2        0.0000 
     41 N          31.1960   -7.4240   -9.3150 N.am      2 SEC2        0.0000 
     42 N          30.4730   -6.5020   -8.6310 N.am      5 SEP2        0.0000 
     43 N          32.7480  -10.8435  -11.1170 N.am      2 SEC2        0.0000 
     44 N          33.7430   -9.8210  -10.9640 N.am      8 SEL2        0.0000 
     45 N          31.7530  -11.8660  -11.2700 N.am      5 SEP2        0.0000 
     46 N          33.6280  -10.9845  -10.0195 N.am      2 SEC2        0.0000 
     47 CA         38.6425  -10.5352  -15.6107 C.3       3 GLC5        0.0000 
     48 CA         40.3900   -9.6060  -15.0440 C.3       9 GLL5        0.0000 
     49 CA         36.6780  -10.8120  -16.2990 C.3       6 GLP5        0.0000 
     50 CA         40.1530  -11.4912  -16.3058 C.3       3 GLC5        0.0000 
     51 CA         39.6990  -12.7240  -17.6890 C.3       6 GLP5        0.0000 
     52 CA         37.4789   -4.7370  -13.3153 C.3       3 GLC5        0.0000 
     53 CA         37.0190   -3.1630  -14.5350 C.3       6 GLP5        0.0000 
     54 CA         34.1750   -7.1698  -12.0688 C.3       3 GLC5        0.0000 
     55 CA         32.5990   -7.6330  -13.3800 C.3       6 GLP5        0.0000 
@<TRIPOS>BOND
@<TRIPOS>SUBSTRUCTURE
     1 ALC1        6 GROUP        1 X    ALC  0     ROOT ALC X 1
     2 SEC2        1 GROUP        1 X    SEC  0     **** SEC X 2
     3 GLC5       12 GROUP        1 X    GLC  0     **** GLC X 6
     4 ALP1        8 GROUP        1 Y    ALP  0     ROOT ALP Y 8
     5 SEP2        3 GROUP        1 Y    SEP  0     **** SEP Y 9
     6 GLP5       14 GROUP        1 Y    GLP  0     **** GLP Y 13
     7 ALL1        7 GROUP        1 Z    ALL  0     ROOT ALL Z 15
     8 SEL2        2 GROUP        1 Z    SEL  0     **** SEL Z 16
     9 GLL5       13 GROUP        1 Z    GLL  0     **** GLL Z 20
@<TRIPOS>SET

