#    Name: 4h2d_FMN_1_ligand
#    Modification time : Tue Mar 25 00:07:40 2014

@<TRIPOS>MOLECULE
4h2d_FMN_1_ligand
   50    52     1     0     0
SMALL
NO_CHARGES


@<TRIPOS>ATOM
      1 N1         39.1140   -5.7080  -15.7550 N.2       1 FMN200      0.0000 
      2 C2         39.0710   -5.2740  -17.0320 C.2       1 FMN200      0.0000 
      3 O2         38.6890   -4.1090  -17.2330 O.2       1 FMN200      0.0000 
      4 N3         39.4370   -6.0440  -18.0790 N.am      1 FMN200      0.0000 
      5 C4         39.8520   -7.3100  -17.9230 C.2       1 FMN200      0.0000 
      6 O4         40.1830   -8.0110  -18.9080 O.2       1 FMN200      0.0000 
      7 C4A        39.9300   -7.8690  -16.5560 C.2       1 FMN200      0.0000 
      8 N5         40.3500   -9.1370  -16.3120 N.2       1 FMN200      0.0000 
      9 C5A        40.3900   -9.6060  -15.0440 C.ar      1 FMN200      0.0000 
     10 C6         40.8240  -10.9110  -14.8010 C.ar      1 FMN200      0.0000 
     11 C7         40.8760  -11.3930  -13.4870 C.ar      1 FMN200      0.0000 
     12 C7M        41.3490  -12.8070  -13.2530 C.3       1 FMN200      0.0000 
     13 C8         40.4720  -10.5150  -12.3430 C.ar      1 FMN200      0.0000 
     14 C8M        40.5020  -10.9820  -10.9070 C.3       1 FMN200      0.0000 
     15 C9         40.0450   -9.2170  -12.5940 C.ar      1 FMN200      0.0000 
     16 C9A        39.9800   -8.7350  -13.8980 C.ar      1 FMN200      0.0000 
     17 N10        39.5360   -7.4110  -14.1490 N.pl3     1 FMN200      0.0000 
     18 C10        39.5160   -6.9580  -15.4630 C.2       1 FMN200      0.0000 
     19 C1'        39.1370   -6.4920  -13.0860 C.3       1 FMN200      0.0000 
     20 C2'        37.7180   -6.7900  -12.6060 C.3       1 FMN200      0.0000 
     21 O2'        36.7530   -6.4920  -13.6300 O.3       1 FMN200      0.0000 
     22 C3'        37.4500   -5.9810  -11.3450 C.3       1 FMN200      0.0000 
     23 O3'        38.1920   -6.5410  -10.2650 O.3       1 FMN200      0.0000 
     24 C4'        35.9710   -6.0070  -10.9580 C.3       1 FMN200      0.0000 
     25 O4'        35.7650   -5.0850   -9.8870 O.3       1 FMN200      0.0000 
     26 C5'        35.5310   -7.4060  -10.5570 C.3       1 FMN200      0.0000 
     27 O5'        34.0920   -7.3900  -10.4930 O.3       1 FMN200      0.0000 
     28 P          33.3890   -8.7290   -9.9920 P.3       1 FMN200      0.0000 
     29 O1P        33.9050   -8.9300   -8.5920 O.co2     1 FMN200      0.0000 
     30 O2P        31.9190   -8.3460   -9.9990 O.co2     1 FMN200      0.0000 
     31 O3P        33.7430   -9.8210  -10.9640 O.co2     1 FMN200      0.0000 
     32 H          39.3937   -5.6321  -19.0523 H         1 FMN200      0.0000 
     33 H          41.1035  -11.5146  -15.5794 H         1 FMN200      0.0000 
     34 H          39.7739   -8.6051  -11.8089 H         1 FMN200      0.0000 
     35 H          39.1683   -5.4523  -13.4367 H         1 FMN200      0.0000 
     36 H          39.8135   -6.5733  -12.2254 H         1 FMN200      0.0000 
     37 H          37.6818   -7.8439  -12.3339 H         1 FMN200      0.0000 
     38 H          37.7363   -4.9592  -11.5190 H         1 FMN200      0.0000 
     39 H          35.3996   -5.7073  -11.8331 H         1 FMN200      0.0000 
     40 H          35.9715   -7.6407   -9.5951 H         1 FMN200      0.0000 
     41 H          35.8904   -8.1048  -11.3033 H         1 FMN200      0.0000 
     42 H          42.2806  -12.9473  -13.5883 H         1 FMN200      0.0000 
     43 H          41.3486  -13.0427  -12.2812 H         1 FMN200      0.0000 
     44 H          40.7669  -13.4749  -13.7168 H         1 FMN200      0.0000 
     45 H          41.4225  -11.2500  -10.6228 H         1 FMN200      0.0000 
     46 H          40.1974  -10.2672  -10.2776 H         1 FMN200      0.0000 
     47 H          39.9082  -11.7733  -10.7613 H         1 FMN200      0.0000 
     48 H          37.1684   -6.8174  -14.4795 H         1 FMN200      0.0000 
     49 H          38.3415   -5.7811   -9.6324 H         1 FMN200      0.0000 
     50 H          36.3475   -5.4163   -9.1448 H         1 FMN200      0.0000 
@<TRIPOS>BOND
     1    2    1 1    
     2   18    1 2    
     3    3    2 2    
     4    4    2 am   
     5    5    4 am   
     6   32    4 1    
     7    6    5 2    
     8    7    5 1    
     9    8    7 2    
    10   18    7 1    
    11    9    8 1    
    12   10    9 ar   
    13   16    9 ar   
    14   11   10 ar   
    15   33   10 1    
    16   12   11 1    
    17   13   11 ar   
    18   42   12 1    
    19   43   12 1    
    20   44   12 1    
    21   14   13 1    
    22   15   13 ar   
    23   45   14 1    
    24   46   14 1    
    25   47   14 1    
    26   16   15 ar   
    27   34   15 1    
    28   17   16 1    
    29   18   17 1    
    30   19   17 1    
    31   20   19 1    
    32   35   19 1    
    33   36   19 1    
    34   21   20 1    
    35   22   20 1    
    36   37   20 1    
    37   48   21 1    
    38   23   22 1    
    39   24   22 1    
    40   38   22 1    
    41   49   23 1    
    42   25   24 1    
    43   26   24 1    
    44   39   24 1    
    45   50   25 1    
    46   27   26 1    
    47   40   26 1    
    48   41   26 1    
    49   28   27 1    
    50   29   28 ar   
    51   30   28 ar   
    52   31   28 ar   
@<TRIPOS>SUBSTRUCTURE
     1 FMN200      1 GROUP   
@<TRIPOS>SET

