#    Name: 3cb8_SAM_1_INTS_M
#    Modification time : Mon Mar 24 20:37:20 2014

@<TRIPOS>MOLECULE
3cb8_SAM_1_INTS_M
   63     0    15     0     0
SMALL
NO_CHARGES


@<TRIPOS>ATOM
      1 OD1        -6.8435  -33.8835   17.0190 O.co2     3 ASC3        0.0000 
      2 OD1        -7.0900  -33.5970   18.8020 O.co2    13 ASL3        0.0000 
      3 OD1        -6.5970  -34.1700   15.2360 O.co2     8 ASP3        0.0000 
      4 O          -8.2320  -34.2205   18.1735 O.2       1 ALC1        0.0000 
      5 O          -7.0900  -33.5970   18.8020 O.2      11 ALL1        0.0000 
      6 O          -9.3740  -34.8440   17.5450 O.2       6 ALP1        0.0000 
      7 CA         -6.9050  -31.4270   16.2200 C.3       5 GLC5        0.0000 
      8 CA         -7.1660  -32.2500   18.2110 C.3      15 GLL5        0.0000 
      9 CA         -6.6440  -30.6040   14.2290 C.3      10 GLP5        0.0000 
     10 CA         -5.1855  -32.5500   17.4490 C.3       5 GLC5        0.0000 
     11 CA         -3.2050  -32.8500   16.6870 C.3      10 GLP5        0.0000 
     12 NZ         -4.6415  -31.1780   20.8515 N.4       4 LYC4        0.0000 
     13 NZ         -5.9720  -31.5980   20.1830 N.4      14 LYL4        0.0000 
     14 NZ         -3.3110  -30.7580   21.5200 N.4       9 LYP4        0.0000 
     15 N          -4.6415  -31.1780   20.8515 N.am      2 SEC2        0.0000 
     16 N          -5.9720  -31.5980   20.1830 N.am     12 SEL2        0.0000 
     17 N          -3.3110  -30.7580   21.5200 N.am      7 SEP2        0.0000 
     18 CA        -10.0670  -31.7665   24.1860 C.3       5 GLC5        0.0000 
     19 CA         -9.3220  -32.0550   22.4660 C.3      15 GLL5        0.0000 
     20 CA        -10.8120  -31.4780   25.9060 C.3      10 GLP5        0.0000 
     21 O          -5.9490  -27.0895   20.0040 O.2       1 ALC1        0.0000 
     22 O          -6.8200  -27.1160   21.0890 O.2      11 ALL1        0.0000 
     23 O          -5.0780  -27.0630   18.9190 O.2       6 ALP1        0.0000 
     24 O          -5.2365  -27.4115   20.7875 O.2       1 ALC1        0.0000 
     25 O          -3.6530  -27.7070   20.4860 O.2       6 ALP1        0.0000 
     26 CA         -5.2275  -29.7730   24.0760 C.3       5 GLC5        0.0000 
     27 CA         -6.6250  -29.1110   22.5150 C.3      15 GLL5        0.0000 
     28 CA         -3.8300  -30.4350   25.6370 C.3      10 GLP5        0.0000 
     29 O          -4.4600  -28.1965   21.5670 O.2       1 ALC1        0.0000 
     30 O          -5.2670  -28.6860   22.6480 O.2      11 ALL1        0.0000 
     31 CA         -7.2445  -26.2690   23.2625 C.3       5 GLC5        0.0000 
     32 CA         -7.5030  -28.4640   23.5890 C.3      15 GLL5        0.0000 
     33 CA         -6.9860  -24.0740   22.9360 C.3      10 GLP5        0.0000 
     34 N          -8.1360  -31.9770   27.0235 N.am      2 SEC2        0.0000 
     35 N          -7.3400  -30.6150   26.5370 N.am     12 SEL2        0.0000 
     36 N          -8.9320  -33.3390   27.5100 N.am      7 SEP2        0.0000 
     37 CA         -5.4105  -30.1245   28.9035 C.3       5 GLC5        0.0000 
     38 CA         -7.0740  -29.0080   28.4450 C.3      15 GLL5        0.0000 
     39 CA         -3.7470  -31.2410   29.3620 C.3      10 GLP5        0.0000 
     40 CA         -8.5625  -28.4625   29.4600 C.3       5 GLC5        0.0000 
     41 CA        -10.0510  -27.9170   30.4750 C.3      10 GLP5        0.0000 
     42 O          -6.7890  -31.1035   29.3030 O.2       1 ALC1        0.0000 
     43 O          -7.0560  -29.9010   29.4390 O.2      11 ALL1        0.0000 
     44 O          -6.5220  -32.3060   29.1670 O.2       6 ALP1        0.0000 
     45 O          -7.5670  -29.3835   30.8760 O.2       1 ALC1        0.0000 
     46 O          -8.0780  -28.8660   32.3130 O.2       6 ALP1        0.0000 
     47 N          -6.9525  -27.0505   30.2390 N.am      2 SEC2        0.0000 
     48 N          -6.9600  -27.6820   28.7150 N.am     12 SEL2        0.0000 
     49 N          -6.9450  -26.4190   31.7630 N.am      7 SEP2        0.0000 
     50 CA         -5.1250  -26.5775   27.2365 C.3       5 GLC5        0.0000 
     51 CA         -6.9800  -26.7730   27.7320 C.3      15 GLL5        0.0000 
     52 CA         -3.2700  -26.3820   26.7410 C.3      10 GLP5        0.0000 
     53 CA         -5.9790  -26.1115   29.2360 C.3       5 GLC5        0.0000 
     54 CA         -4.9780  -25.4500   30.7400 C.3      10 GLP5        0.0000 
     55 CA         -8.3120  -26.7175   29.2570 C.3       5 GLC5        0.0000 
     56 CA         -9.6440  -26.6620   30.7820 C.3      10 GLP5        0.0000 
     57 CA         -5.8065  -27.2985   25.3230 C.3       5 GLC5        0.0000 
     58 CA         -7.2300  -28.4630   26.1170 C.3      15 GLL5        0.0000 
     59 CA         -4.3830  -26.1340   24.5290 C.3      10 GLP5        0.0000 
     60 CA         -5.7235  -27.4608   23.7905 C.3       5 GLC5        0.0000 
     61 CA         -8.9610  -30.1797   27.4997 C.3       5 GLC5        0.0000 
     62 CA         -7.2120  -29.4270   27.1160 C.3      15 GLL5        0.0000 
     63 CA        -10.7790  -31.1420   27.2190 C.3      10 GLP5        0.0000 
@<TRIPOS>BOND
@<TRIPOS>SUBSTRUCTURE
     1 ALC1        4 GROUP        1 X    ALC  0     ROOT ALC X 1
     2 SEC2       15 GROUP        1 X    SEC  0     **** SEC X 2
     3 ASC3        1 GROUP        1 X    ASC  0     **** ASC X 3
     4 LYC4       12 GROUP        1 X    LYC  0     **** LYC X 4
     5 GLC5        7 GROUP        1 X    GLC  0     **** GLC X 6
     6 ALP1        6 GROUP        1 Y    ALP  0     ROOT ALP Y 8
     7 SEP2       17 GROUP        1 Y    SEP  0     **** SEP Y 9
     8 ASP3        3 GROUP        1 Y    ASP  0     **** ASP Y 10
     9 LYP4       14 GROUP        1 Y    LYP  0     **** LYP Y 11
    10 GLP5        9 GROUP        1 Y    GLP  0     **** GLP Y 13
    11 ALL1        5 GROUP        1 Z    ALL  0     ROOT ALL Z 15
    12 SEL2       16 GROUP        1 Z    SEL  0     **** SEL Z 16
    13 ASL3        2 GROUP        1 Z    ASL  0     **** ASL Z 17
    14 LYL4       13 GROUP        1 Z    LYL  0     **** LYL Z 18
    15 GLL5        8 GROUP        1 Z    GLL  0     **** GLL Z 20
@<TRIPOS>SET

