#    Name: 3cb8_SAM_1_ligand
#    Modification time : Mon Mar 24 20:37:20 2014

@<TRIPOS>MOLECULE
3cb8_SAM_1_ligand
   50    52     1     0     0
SMALL
NO_CHARGES


@<TRIPOS>ATOM
      1 N          -7.0900  -33.5970   18.8020 N.4       1 SAM501      0.0000 
      2 CA         -7.1660  -32.2500   18.2110 C.3       1 SAM501      0.0000 
      3 C          -6.2700  -31.2810   19.0080 C.2       1 SAM501      0.0000 
      4 O          -5.9720  -31.5980   20.1830 O.co2     1 SAM501      0.0000 
      5 OXT        -5.8900  -30.2500   18.4130 O.co2     1 SAM501      0.0000 
      6 CB         -8.6380  -31.7890   18.2040 C.3       1 SAM501      0.0000 
      7 CG         -9.3600  -32.2010   19.5050 C.3       1 SAM501      0.0000 
      8 SD         -8.7900  -31.2320   20.9310 S.3       1 SAM501      0.0000 
      9 CE         -9.3220  -32.0550   22.4660 C.3       1 SAM501      0.0000 
     10 C5'        -9.5160  -29.5480   20.8270 C.3       1 SAM501      0.0000 
     11 C4'        -8.7380  -28.4660   21.6190 C.3       1 SAM501      0.0000 
     12 O4'        -8.8250  -28.7390   23.0620 O.3       1 SAM501      0.0000 
     13 C3'        -7.2360  -28.4780   21.2720 C.3       1 SAM501      0.0000 
     14 O3'        -6.8200  -27.1160   21.0890 O.3       1 SAM501      0.0000 
     15 C2'        -6.6250  -29.1110   22.5150 C.3       1 SAM501      0.0000 
     16 O2'        -5.2670  -28.6860   22.6480 O.3       1 SAM501      0.0000 
     17 C1'        -7.5030  -28.4640   23.5890 C.3       1 SAM501      0.0000 
     18 N9         -7.3720  -29.1000   24.9530 N.pl3     1 SAM501      0.0000 
     19 C8         -7.4370  -30.4180   25.2190 C.2       1 SAM501      0.0000 
     20 N7         -7.3400  -30.6150   26.5370 N.2       1 SAM501      0.0000 
     21 C5         -7.2120  -29.4270   27.1160 C.ar      1 SAM501      0.0000 
     22 C6         -7.0740  -29.0080   28.4450 C.ar      1 SAM501      0.0000 
     23 N6         -7.0560  -29.9010   29.4390 N.pl3     1 SAM501      0.0000 
     24 N1         -6.9600  -27.6820   28.7150 N.ar      1 SAM501      0.0000 
     25 C2         -6.9800  -26.7730   27.7320 C.ar      1 SAM501      0.0000 
     26 N3         -7.1130  -27.1520   26.4520 N.ar      1 SAM501      0.0000 
     27 C4         -7.2300  -28.4630   26.1170 C.ar      1 SAM501      0.0000 
     28 H          -6.8164  -32.2773   17.1908 H         1 SAM501      0.0000 
     29 H          -9.1484  -32.2398   17.3564 H         1 SAM501      0.0000 
     30 H          -8.6719  -30.7067   18.1064 H         1 SAM501      0.0000 
     31 H          -9.1479  -33.2024   19.8051 H         1 SAM501      0.0000 
     32 H         -10.4067  -31.9961   19.4885 H         1 SAM501      0.0000 
     33 H         -10.5129  -29.7095   21.1976 H         1 SAM501      0.0000 
     34 H          -9.5248  -29.3720   19.7658 H         1 SAM501      0.0000 
     35 H          -9.1338  -27.5062   21.3952 H         1 SAM501      0.0000 
     36 H          -7.0962  -29.0961   20.4491 H         1 SAM501      0.0000 
     37 H          -6.7888  -30.1252   22.5003 H         1 SAM501      0.0000 
     38 H          -7.3213  -27.4329   23.6102 H         1 SAM501      0.0000 
     39 H          -7.5395  -31.1190   24.5469 H         1 SAM501      0.0000 
     40 H          -7.1767  -30.8574   29.1735 H         1 SAM501      0.0000 
     41 H          -6.9233  -29.5325   30.3591 H         1 SAM501      0.0000 
     42 H          -6.8908  -25.7533   27.9641 H         1 SAM501      0.0000 
     43 H          -6.1571  -33.9568   18.7875 H         1 SAM501      0.0000 
     44 H          -7.3912  -33.6017   19.7555 H         1 SAM501      0.0000 
     45 H          -7.6642  -34.2514   18.3100 H         1 SAM501      0.0000 
     46 H          -8.9439  -32.9775   22.5431 H         1 SAM501      0.0000 
     47 H          -9.0306  -31.5500   23.2784 H         1 SAM501      0.0000 
     48 H         -10.3171  -32.1410   22.5156 H         1 SAM501      0.0000 
     49 H          -6.1917  -27.1397   20.3114 H         1 SAM501      0.0000 
     50 H          -4.9787  -28.4471   21.7207 H         1 SAM501      0.0000 
@<TRIPOS>BOND
     1    2    1 1    
     2   43    1 1    
     3   44    1 1    
     4   45    1 1    
     5    3    2 1    
     6    6    2 1    
     7   28    2 1    
     8    4    3 ar   
     9    5    3 ar   
    10    7    6 1    
    11   29    6 1    
    12   30    6 1    
    13    8    7 1    
    14   31    7 1    
    15   32    7 1    
    16    9    8 1    
    17   10    8 1    
    18   46    9 1    
    19   47    9 1    
    20   48    9 1    
    21   11   10 1    
    22   33   10 1    
    23   34   10 1    
    24   12   11 1    
    25   13   11 1    
    26   35   11 1    
    27   17   12 1    
    28   14   13 1    
    29   15   13 1    
    30   36   13 1    
    31   49   14 1    
    32   16   15 1    
    33   17   15 1    
    34   37   15 1    
    35   50   16 1    
    36   18   17 1    
    37   38   17 1    
    38   19   18 1    
    39   27   18 1    
    40   20   19 2    
    41   39   19 1    
    42   21   20 1    
    43   22   21 ar   
    44   27   21 ar   
    45   23   22 1    
    46   24   22 ar   
    47   40   23 1    
    48   41   23 1    
    49   25   24 ar   
    50   26   25 ar   
    51   42   25 1    
    52   27   26 ar   
@<TRIPOS>SUBSTRUCTURE
     1 SAM501      1 GROUP   
@<TRIPOS>SET

