#    Name: 3tud_FPX_1_INTS_M
#    Modification time : Mon Mar 24 20:57:31 2014

@<TRIPOS>MOLECULE
3tud_FPX_1_INTS_M
  120     0     9     0     0
SMALL
NO_CHARGES


@<TRIPOS>ATOM
      1 CA        -24.5535   -7.1885    4.5875 C.3       3 GLC5        0.0000 
      2 CA        -25.6620   -5.8090    5.3800 C.3       9 GLL5        0.0000 
      3 CA        -23.4450   -8.5680    3.7950 C.3       6 GLP5        0.0000 
      4 CA        -24.4440   -5.2545    3.8210 C.3       3 GLC5        0.0000 
      5 CA        -23.2260   -4.7000    2.2620 C.3       6 GLP5        0.0000 
      6 CA        -26.5180   -6.3700    3.5055 C.3       3 GLC5        0.0000 
      7 CA        -27.3740   -6.9310    1.6310 C.3       6 GLP5        0.0000 
      8 O         -27.3150   -3.9335   11.0790 O.2       1 ALC1        0.0000 
      9 O         -25.8760   -3.2920   10.5700 O.2       7 ALL1        0.0000 
     10 O         -28.7540   -4.5750   11.5880 O.2       4 ALP1        0.0000 
     11 CA        -28.6575   -2.9150   12.8640 C.3       3 GLC5        0.0000 
     12 CA        -26.5760   -2.2150   13.2230 C.3       9 GLL5        0.0000 
     13 CA        -30.7390   -3.6150   12.5050 C.3       6 GLP5        0.0000 
     14 CA        -22.7305   -1.0140   12.3355 C.3       3 GLC5        0.0000 
     15 CA        -24.7050   -0.6490   12.8820 C.3       9 GLL5        0.0000 
     16 CA        -20.7560   -1.3790   11.7890 C.3       6 GLP5        0.0000 
     17 CA        -22.2705    0.3450   16.6605 C.3       3 GLC5        0.0000 
     18 CA        -23.5470    0.9870   15.7640 C.3       9 GLL5        0.0000 
     19 CA        -20.9940   -0.2970   17.5570 C.3       6 GLP5        0.0000 
     20 CA        -21.5085    1.2560   15.2920 C.3       3 GLC5        0.0000 
     21 CA        -19.4700    1.5250   14.8200 C.3       6 GLP5        0.0000 
     22 CA        -23.4885   -1.1840   15.3460 C.3       3 GLC5        0.0000 
     23 CA        -23.4300   -3.3550   14.9280 C.3       6 GLP5        0.0000 
     24 CA        -22.7825    3.3035   13.3210 C.3       3 GLC5        0.0000 
     25 CA        -23.2230    1.5070   13.5520 C.3       9 GLL5        0.0000 
     26 CA        -22.3420    5.1000   13.0900 C.3       6 GLP5        0.0000 
     27 CA        -21.3465    1.5160   14.1860 C.3       3 GLC5        0.0000 
     28 CA        -21.9895    0.0640   12.6705 C.3       3 GLC5        0.0000 
     29 CA        -26.0490    1.9555   12.7825 C.3       3 GLC5        0.0000 
     30 CA        -24.9960    2.1930   14.5380 C.3       9 GLL5        0.0000 
     31 CA        -27.1020    1.7180   11.0270 C.3       6 GLP5        0.0000 
     32 CA        -26.4360    2.9045   14.8460 C.3       3 GLC5        0.0000 
     33 CA        -27.8760    3.6160   15.1540 C.3       6 GLP5        0.0000 
     34 CA        -24.5730    3.3570   12.9260 C.3       3 GLC5        0.0000 
     35 CA        -24.1500    4.5210   11.3140 C.3       6 GLP5        0.0000 
     36 CA        -24.7700    3.5735   15.6735 C.3       3 GLC5        0.0000 
     37 CA        -24.5440    4.9540   16.8090 C.3       6 GLP5        0.0000 
     38 CA        -24.3270   -2.6235    5.2590 C.3       3 GLC5        0.0000 
     39 CA        -22.5970   -3.6260    5.8690 C.3       9 GLL5        0.0000 
     40 CA        -26.0570   -1.6210    4.6490 C.3       6 GLP5        0.0000 
     41 CA        -20.7000   -1.9300    2.7245 C.3       3 GLC5        0.0000 
     42 CA        -20.6080   -2.8470    4.4990 C.3       9 GLL5        0.0000 
     43 CA        -20.7920   -1.0130    0.9500 C.3       6 GLP5        0.0000 
     44 CA        -18.9760   -1.6395    4.3700 C.3       3 GLC5        0.0000 
     45 CA        -17.3440   -0.4320    4.2410 C.3       6 GLP5        0.0000 
     46 N         -19.0870   -2.0060    3.0975 N.am      2 SEC2        0.0000 
     47 N         -19.4260   -3.1490    3.9240 N.am      8 SEL2        0.0000 
     48 N         -18.7480   -0.8630    2.2710 N.am      5 SEP2        0.0000 
     49 CA        -19.3090   -4.2280    2.1440 C.3       3 GLC5        0.0000 
     50 CA        -18.8910   -4.3870    4.0140 C.3       9 GLL5        0.0000 
     51 CA        -19.7270   -4.0690    0.2740 C.3       6 GLP5        0.0000 
     52 CA        -18.1175   -2.4095    4.1275 C.3       3 GLC5        0.0000 
     53 CA        -18.7440   -3.7360    5.7345 C.3       3 GLC5        0.0000 
     54 CA        -18.5970   -3.0850    7.4550 C.3       6 GLP5        0.0000 
     55 O         -17.0530   -3.5995    2.9605 O.2       1 ALC1        0.0000 
     56 O         -17.6630   -4.6310    3.4150 O.2       7 ALL1        0.0000 
     57 O         -16.4430   -2.5680    2.5060 O.2       4 ALP1        0.0000 
     58 CA        -18.5180   -8.2280    3.3155 C.3       3 GLC5        0.0000 
     59 CA        -17.0900   -6.8930    4.3560 C.3       9 GLL5        0.0000 
     60 CA        -19.9460   -9.5630    2.2750 C.3       6 GLP5        0.0000 
     61 CA        -20.2805   -8.5605    4.1360 C.3       3 GLC5        0.0000 
     62 CA        -20.6150   -7.5580    5.9970 C.3       9 GLL5        0.0000 
     63 CA        -22.0300   -8.0630    4.8960 C.3       3 GLC5        0.0000 
     64 CA        -19.6850   -7.1055    7.5630 C.3       3 GLC5        0.0000 
     65 CA        -18.7550   -6.6530    9.1290 C.3       6 GLP5        0.0000 
     66 CA        -27.1220   -6.8237    6.0875 C.3       3 GLC5        0.0000 
     67 CA        -25.6620   -5.1560    6.7380 C.3       9 GLL5        0.0000 
     68 CA        -28.5820   -8.1650    6.1160 C.3       6 GLP5        0.0000 
     69 CA        -27.7017   -6.5080    8.3470 C.3       3 GLC5        0.0000 
     70 CA        -26.8730   -5.0770    7.4740 C.3       9 GLL5        0.0000 
     71 CA        -28.5160   -8.2660    8.5990 C.3       6 GLP5        0.0000 
     72 CA        -28.9603   -4.3675    8.2740 C.3       3 GLC5        0.0000 
     73 CA        -31.0330   -3.9850    8.4530 C.3       6 GLP5        0.0000 
     74 CA        -26.9473   -3.4645    6.9035 C.3       3 GLC5        0.0000 
     75 CA        -26.9020   -4.4230    8.7160 C.3       9 GLL5        0.0000 
     76 CA        -27.0070   -2.1790    5.7120 C.3       6 GLP5        0.0000 
     77 CA        -26.0655   -3.0598    7.3195 C.3       3 GLC5        0.0000 
     78 CA        -25.7270   -3.9040    9.2890 C.3       9 GLL5        0.0000 
     79 CA        -27.0845   -0.6387   12.4560 C.3       3 GLC5        0.0000 
     80 CA        -25.4900   -1.7280   12.4310 C.3       9 GLL5        0.0000 
     81 CA        -28.1360    0.6940   12.0850 C.3       6 GLP5        0.0000 
     82 CA        -24.7315   -2.6633   13.8775 C.3       3 GLC5        0.0000 
     83 CA        -27.2860   -0.1778   13.3750 C.3       3 GLC5        0.0000 
     84 CA        -26.8460   -1.5930   14.4430 C.3       9 GLL5        0.0000 
     85 CA        -24.9330   -2.2023   14.7965 C.3       3 GLC5        0.0000 
     86 CA        -26.4860    0.1747   12.7873 C.3       3 GLC5        0.0000 
     87 CA        -24.9670   -0.0400   14.0970 C.3       9 GLL5        0.0000 
     88 CA        -24.1330   -1.8497   14.2088 C.3       3 GLC5        0.0000 
     89 CA        -23.1310    2.4805   16.3468 C.3       3 GLC5        0.0000 
     90 CA        -24.1370    1.1270   14.5150 C.3       9 GLL5        0.0000 
     91 CA        -22.4200    3.9040   17.5540 C.3       6 GLP5        0.0000 
     92 CA        -25.3140    1.2945   16.6474 C.3       3 GLC5        0.0000 
     93 CA        -26.2090    0.9640   18.4560 C.3       6 GLP5        0.0000 
     94 CA        -23.8107   -2.2908    7.4983 C.3       3 GLC5        0.0000 
     95 CA        -24.5210   -3.9770    8.5650 C.3       9 GLL5        0.0000 
     96 CA        -23.1270   -0.2990    7.0640 C.3       6 GLP5        0.0000 
     97 CA        -26.0360   -3.6071    6.1958 C.3       3 GLC5        0.0000 
     98 CA        -24.4680   -4.5880    7.3000 C.3       9 GLL5        0.0000 
     99 CA        -23.0502   -4.4268    4.2395 C.3       3 GLC5        0.0000 
    100 CA        -23.1520   -4.6810    6.5650 C.3       9 GLL5        0.0000 
    101 CA        -23.0008   -2.2263    6.6405 C.3       3 GLC5        0.0000 
    102 CA        -22.0410   -1.8257    5.9600 C.3       3 GLC5        0.0000 
    103 CA        -21.3020   -3.8580    5.2130 C.3       9 GLL5        0.0000 
    104 CA        -17.3240   -5.3388    1.4645 C.3       3 GLC5        0.0000 
    105 CA        -15.9020   -5.9180    2.4270 C.3       9 GLL5        0.0000 
    106 CA        -18.2450   -4.8070    0.0150 C.3       6 GLP5        0.0000 
    107 CA        -15.3355   -5.5060    4.2257 C.3       3 GLC5        0.0000 
    108 CA        -16.9040   -5.8230    3.4010 C.3       9 GLL5        0.0000 
    109 CA        -13.6740   -4.6540    4.5730 C.3       6 GLP5        0.0000 
    110 CA        -14.6870   -6.3540    4.1840 C.3       3 GLC5        0.0000 
    111 CA        -15.1780   -8.0920    3.2960 C.3       9 GLL5        0.0000 
    112 CA        -14.6535   -7.1896    5.3033 C.3       3 GLC5        0.0000 
    113 CA        -13.3900   -6.6060    6.7960 C.3       6 GLP5        0.0000 
    114 CA        -14.5650   -5.5687    3.4980 C.3       3 GLC5        0.0000 
    115 CA        -22.0232   -4.4751    3.6600 C.3       3 GLC5        0.0000 
    116 CA        -20.6860   -5.1480    5.2600 C.3       9 GLL5        0.0000 
    117 CA        -19.7897   -3.6531    6.2975 C.3       3 GLC5        0.0000 
    118 CA        -17.0991   -7.9139    1.8604 C.3       3 GLC5        0.0000 
    119 CA        -16.2220   -8.0160    4.2940 C.3       9 GLL5        0.0000 
    120 CA        -18.4950   -8.5710    0.4900 C.3       6 GLP5        0.0000 
@<TRIPOS>BOND
@<TRIPOS>SUBSTRUCTURE
     1 ALC1        8 GROUP        1 X    ALC  0     ROOT ALC X 1
     2 SEC2       46 GROUP        1 X    SEC  0     **** SEC X 2
     3 GLC5        1 GROUP        1 X    GLC  0     **** GLC X 6
     4 ALP1       10 GROUP        1 Y    ALP  0     ROOT ALP Y 8
     5 SEP2       48 GROUP        1 Y    SEP  0     **** SEP Y 9
     6 GLP5        3 GROUP        1 Y    GLP  0     **** GLP Y 13
     7 ALL1        9 GROUP        1 Z    ALL  0     ROOT ALL Z 15
     8 SEL2       47 GROUP        1 Z    SEL  0     **** SEL Z 16
     9 GLL5        2 GROUP        1 Z    GLL  0     **** GLL Z 20
@<TRIPOS>SET

