#    Name: 3tud_FPX_1_ligand
#    Modification time : Mon Mar 24 20:57:32 2014

@<TRIPOS>MOLECULE
3tud_FPX_1_ligand
   61    65     1     0     0
SMALL
NO_CHARGES


@<TRIPOS>ATOM
      1 C1        -25.6620   -5.8090    5.3800 C.3       1 FPX1        0.0000 
      2 C2        -25.6620   -5.1560    6.7380 C.ar      1 FPX1        0.0000 
      3 C3        -26.8730   -5.0770    7.4740 C.ar      1 FPX1        0.0000 
      4 C4        -26.9020   -4.4230    8.7160 C.ar      1 FPX1        0.0000 
      5 C5        -25.7270   -3.9040    9.2890 C.ar      1 FPX1        0.0000 
      6 N6        -25.8760   -3.2920   10.5700 N.am      1 FPX1        0.0000 
      7 C7        -25.1390   -2.2780   11.1250 C.2       1 FPX1        0.0000 
      8 O8        -24.1870   -1.7710   10.5760 O.2       1 FPX1        0.0000 
      9 C9        -25.4900   -1.7280   12.4310 C.ar      1 FPX1        0.0000 
     10 C10       -26.5760   -2.2150   13.2230 C.ar      1 FPX1        0.0000 
     11 C11       -26.8460   -1.5930   14.4430 C.ar      1 FPX1        0.0000 
     12 C12       -26.0260   -0.5060   14.8870 C.ar      1 FPX1        0.0000 
     13 C13       -24.9670   -0.0400   14.0970 C.ar      1 FPX1        0.0000 
     14 C14       -24.7050   -0.6490   12.8820 C.ar      1 FPX1        0.0000 
     15 C15       -24.1370    1.1270   14.5150 C.3       1 FPX1        0.0000 
     16 F16       -23.5470    0.9870   15.7640 F         1 FPX1        0.0000 
     17 F17       -23.2230    1.5070   13.5520 F         1 FPX1        0.0000 
     18 F18       -24.9960    2.1930   14.5380 F         1 FPX1        0.0000 
     19 C19       -24.5210   -3.9770    8.5650 C.ar      1 FPX1        0.0000 
     20 C20       -24.4680   -4.5880    7.3000 C.ar      1 FPX1        0.0000 
     21 C21       -23.1520   -4.6810    6.5650 C.2       1 FPX1        0.0000 
     22 C22       -22.5970   -3.6260    5.8690 C.2       1 FPX1        0.0000 
     23 C23       -21.3020   -3.8580    5.2130 C.ar      1 FPX1        0.0000 
     24 C24       -20.6080   -2.8470    4.4990 C.ar      1 FPX1        0.0000 
     25 N25       -19.4260   -3.1490    3.9240 N.ar      1 FPX1        0.0000 
     26 C26       -18.8910   -4.3870    4.0140 C.ar      1 FPX1        0.0000 
     27 N27       -17.6630   -4.6310    3.4150 N.pl3     1 FPX1        0.0000 
     28 C28       -16.9040   -5.8230    3.4010 C.ar      1 FPX1        0.0000 
     29 C29       -17.0900   -6.8930    4.3560 C.ar      1 FPX1        0.0000 
     30 C30       -16.2220   -8.0160    4.2940 C.ar      1 FPX1        0.0000 
     31 C31       -15.1780   -8.0920    3.2960 C.ar      1 FPX1        0.0000 
     32 C32       -15.0100   -7.0490    2.4190 C.ar      1 FPX1        0.0000 
     33 C33       -15.9020   -5.9180    2.4270 C.ar      1 FPX1        0.0000 
     34 N34       -19.5280   -5.3420    4.6530 N.ar      1 FPX1        0.0000 
     35 C35       -20.6860   -5.1480    5.2600 C.ar      1 FPX1        0.0000 
     36 N36       -21.2740   -6.1990    5.9400 N.am      1 FPX1        0.0000 
     37 C37       -20.6150   -7.5580    5.9970 C.3       1 FPX1        0.0000 
     38 C38       -22.4630   -6.0020    6.5880 C.2       1 FPX1        0.0000 
     39 O39       -22.9590   -6.9350    7.1910 O.2       1 FPX1        0.0000 
     40 H         -27.7225   -5.4995    7.0931 H         1 FPX1        0.0000 
     41 H         -27.7971   -4.3211    9.2163 H         1 FPX1        0.0000 
     42 H         -26.6874   -3.6982   11.1699 H         1 FPX1        0.0000 
     43 H         -27.1282   -2.9952   12.8924 H         1 FPX1        0.0000 
     44 H         -27.6221   -1.9001   15.0290 H         1 FPX1        0.0000 
     45 H         -26.2270   -0.0737   15.7940 H         1 FPX1        0.0000 
     46 H         -23.9268   -0.3160   12.2911 H         1 FPX1        0.0000 
     47 H         -23.6628   -3.5750    8.9708 H         1 FPX1        0.0000 
     48 H         -23.0236   -2.7270    5.7895 H         1 FPX1        0.0000 
     49 H         -21.0246   -1.9140    4.4398 H         1 FPX1        0.0000 
     50 H         -17.2154   -3.7946    2.8801 H         1 FPX1        0.0000 
     51 H         -17.8192   -6.8326    5.0426 H         1 FPX1        0.0000 
     52 H         -16.3274   -8.7842    4.9569 H         1 FPX1        0.0000 
     53 H         -14.5919   -8.9232    3.2711 H         1 FPX1        0.0000 
     54 H         -14.2410   -7.0478    1.7316 H         1 FPX1        0.0000 
     55 H         -15.7896   -5.1966    1.7168 H         1 FPX1        0.0000 
     56 H         -24.7522   -5.8031    4.9650 H         1 FPX1        0.0000 
     57 H         -25.9565   -6.7635    5.4269 H         1 FPX1        0.0000 
     58 H         -26.2773   -5.3433    4.7440 H         1 FPX1        0.0000 
     59 H         -19.7116   -7.5151    6.4237 H         1 FPX1        0.0000 
     60 H         -21.1574   -8.2120    6.5243 H         1 FPX1        0.0000 
     61 H         -20.4902   -7.9488    5.0850 H         1 FPX1        0.0000 
@<TRIPOS>BOND
     1    2    1 1    
     2   56    1 1    
     3   57    1 1    
     4   58    1 1    
     5    3    2 ar   
     6   20    2 ar   
     7    4    3 ar   
     8   40    3 1    
     9    5    4 ar   
    10   41    4 1    
    11    6    5 1    
    12   19    5 ar   
    13    7    6 am   
    14   42    6 1    
    15    8    7 2    
    16    9    7 1    
    17   10    9 ar   
    18   14    9 ar   
    19   11   10 ar   
    20   43   10 1    
    21   12   11 ar   
    22   44   11 1    
    23   13   12 ar   
    24   45   12 1    
    25   14   13 ar   
    26   15   13 1    
    27   46   14 1    
    28   16   15 1    
    29   17   15 1    
    30   18   15 1    
    31   20   19 ar   
    32   47   19 1    
    33   21   20 1    
    34   22   21 2    
    35   38   21 1    
    36   23   22 1    
    37   48   22 1    
    38   24   23 ar   
    39   35   23 ar   
    40   25   24 ar   
    41   49   24 1    
    42   26   25 ar   
    43   27   26 1    
    44   34   26 ar   
    45   28   27 1    
    46   50   27 1    
    47   29   28 ar   
    48   33   28 ar   
    49   30   29 ar   
    50   51   29 1    
    51   31   30 ar   
    52   52   30 1    
    53   32   31 ar   
    54   53   31 1    
    55   33   32 ar   
    56   54   32 1    
    57   55   33 1    
    58   35   34 ar   
    59   36   35 1    
    60   37   36 1    
    61   38   36 am   
    62   59   37 1    
    63   60   37 1    
    64   61   37 1    
    65   39   38 2    
@<TRIPOS>SUBSTRUCTURE
     1 FPX1        1 GROUP   
@<TRIPOS>SET

