#    Name: 2jjo_EY5_1_INTS_M
#    Modification time : Tue Mar 25 20:58:37 2014

@<TRIPOS>MOLECULE
2jjo_EY5_1_INTS_M
  105     0     9     0     0
SMALL
NO_CHARGES


@<TRIPOS>ATOM
      1 CA        -14.5015    1.9610   32.9695 C.3       3 GLC5        0.0000 
      2 CA        -13.8120    0.7790   31.2870 C.3       9 GLL5        0.0000 
      3 CA        -15.1910    3.1430   34.6520 C.3       6 GLP5        0.0000 
      4 CA        -13.6815   -0.2485   33.0110 C.3       3 GLC5        0.0000 
      5 CA        -13.5510   -1.2760   34.7350 C.3       6 GLP5        0.0000 
      6 CA        -16.2325   -0.7045   25.4300 C.3       3 GLC5        0.0000 
      7 CA        -15.4540   -0.3360   27.3190 C.3       9 GLL5        0.0000 
      8 CA        -17.0110   -1.0730   23.5410 C.3       6 GLP5        0.0000 
      9 N         -10.6290   -2.0515   26.6850 N.am      2 SEC2        0.0000 
     10 N         -11.8480   -1.5490   26.9820 N.am      8 SEL2        0.0000 
     11 N          -9.4100   -2.5540   26.3880 N.am      5 SEP2        0.0000 
     12 O         -11.1290   -0.2995   26.7190 O.2       1 ALC1        0.0000 
     13 O         -11.8480   -1.5490   26.9820 O.2       7 ALL1        0.0000 
     14 O         -10.4100    0.9500   26.4560 O.2       4 ALP1        0.0000 
     15 CA        -13.6205   -2.9735   33.2845 C.3       3 GLC5        0.0000 
     16 CA        -14.9250   -3.7220   32.1100 C.3       9 GLL5        0.0000 
     17 CA        -12.3160   -2.2250   34.4590 C.3       6 GLP5        0.0000 
     18 CA        -13.4110   -5.1590   32.1670 C.3       3 GLC5        0.0000 
     19 CA        -11.8970   -6.5960   32.2240 C.3       6 GLP5        0.0000 
     20 N         -17.6505   -3.6805   31.3285 N.am      2 SEC2        0.0000 
     21 N         -17.1350   -5.0760   30.6160 N.am      8 SEL2        0.0000 
     22 N         -18.1660   -2.2850   32.0410 N.am      5 SEP2        0.0000 
     23 O         -21.2765   -4.9635   32.3265 O.2       1 ALC1        0.0000 
     24 O         -21.2260   -6.2090   32.3990 O.2       7 ALL1        0.0000 
     25 O         -21.3270   -3.7180   32.2540 O.2       4 ALP1        0.0000 
     26 CA        -17.7610   -5.9555   35.3380 C.3       3 GLC5        0.0000 
     27 CA        -19.0960   -7.1640   34.1960 C.3       9 GLL5        0.0000 
     28 CA        -16.4260   -4.7470   36.4800 C.3       6 GLP5        0.0000 
     29 CA        -17.1035   -8.1095   34.2625 C.3       3 GLC5        0.0000 
     30 CA        -15.1110   -9.0550   34.3290 C.3       6 GLP5        0.0000 
     31 N         -18.5065   -3.6590   32.6235 N.am      2 SEC2        0.0000 
     32 N         -18.8470   -5.0330   33.2060 N.am      8 SEL2        0.0000 
     33 O         -20.0870   -4.3755   32.7300 O.2       1 ALC1        0.0000 
     34 O         -18.8470   -5.0330   33.2060 O.2       7 ALL1        0.0000 
     35 CA        -16.2935   -7.9340   33.3030 C.3       3 GLC5        0.0000 
     36 CA        -17.4760   -6.8130   32.2770 C.3       9 GLL5        0.0000 
     37 CA        -17.9455   -2.4460   29.6710 C.3       3 GLC5        0.0000 
     38 CA        -17.5410   -3.6310   28.2030 C.3       9 GLL5        0.0000 
     39 CA        -18.3500   -1.2610   31.1390 C.3       6 GLP5        0.0000 
     40 CA        -14.8900   -7.4530   24.6380 C.3       3 GLC5        0.0000 
     41 CA        -14.4040   -7.2480   26.5320 C.3       9 GLL5        0.0000 
     42 CA        -15.3760   -7.6580   22.7440 C.3       6 GLP5        0.0000 
     43 CA        -14.9060   -6.2410   24.2860 C.3       3 GLC5        0.0000 
     44 CA        -14.4360   -4.8240   25.8280 C.3       9 GLL5        0.0000 
     45 CA        -10.3290   -5.8150   24.4815 C.3       3 GLC5        0.0000 
     46 CA        -12.1990   -5.2560   24.7690 C.3       9 GLL5        0.0000 
     47 CA         -8.4590   -6.3740   24.1940 C.3       6 GLP5        0.0000 
     48 CA        -13.7875   -6.4570   23.7565 C.3       3 GLC5        0.0000 
     49 CA        -11.9665   -5.6725   22.9355 C.3       3 GLC5        0.0000 
     50 CA        -11.7340   -6.0890   21.1020 C.3       6 GLP5        0.0000 
     51 CA        -16.6130  -10.4730   28.4125 C.3       3 GLC5        0.0000 
     52 CA        -18.0450  -10.2120   27.0580 C.3       9 GLL5        0.0000 
     53 CA        -15.1810  -10.7340   29.7670 C.3       6 GLP5        0.0000 
     54 CA        -17.7970  -12.0180   26.7720 C.3       3 GLC5        0.0000 
     55 CA        -17.5490  -13.8240   26.4860 C.3       6 GLP5        0.0000 
     56 CA        -20.1115  -10.0630   24.5130 C.3       3 GLC5        0.0000 
     57 CA        -19.5770   -8.7810   25.6460 C.3       9 GLL5        0.0000 
     58 CA        -20.6460  -11.3450   23.3800 C.3       6 GLP5        0.0000 
     59 O         -21.6335   -5.8975   24.2685 O.2       1 ALC1        0.0000 
     60 O         -20.8900   -7.0990   24.1860 O.2       7 ALL1        0.0000 
     61 O         -22.3770   -4.6960   24.3510 O.2       4 ALP1        0.0000 
     62 CA        -21.4110   -9.5665   23.8780 C.3       3 GLC5        0.0000 
     63 CA        -22.1760   -7.7880   24.3760 C.3       9 GLL5        0.0000 
     64 CA        -23.8425   -8.4125   24.2185 C.3       3 GLC5        0.0000 
     65 CA        -25.5090   -9.0370   24.0610 C.3       6 GLP5        0.0000 
     66 CA        -20.1640   -9.3190   22.3060 C.3       3 GLC5        0.0000 
     67 CA        -20.3240   -7.4600   22.8740 C.3       9 GLL5        0.0000 
     68 CA        -20.0040  -11.1780   21.7380 C.3       6 GLP5        0.0000 
     69 CA        -18.5515   -8.5665   22.5870 C.3       3 GLC5        0.0000 
     70 CA        -16.7790   -9.6730   22.3000 C.3       6 GLP5        0.0000 
     71 CA        -17.6145   -4.8975   24.1670 C.3       3 GLC5        0.0000 
     72 CA        -18.7910   -6.4180   25.3100 C.3       9 GLL5        0.0000 
     73 CA        -16.4380   -3.3770   23.0240 C.3       6 GLP5        0.0000 
     74 CA        -17.0835   -7.0380   24.0270 C.3       3 GLC5        0.0000 
     75 O         -20.7930   -4.8750   24.7575 O.2       1 ALC1        0.0000 
     76 O         -19.2090   -5.0540   25.1640 O.2       7 ALL1        0.0000 
     77 CA        -15.7460    1.0488   30.8513 C.3       3 GLC5        0.0000 
     78 CA        -13.8320    0.9000   29.7900 C.3       9 GLL5        0.0000 
     79 CA        -17.6700    1.2580   31.1640 C.3       6 GLP5        0.0000 
     80 CA        -11.9940    0.3898   30.2441 C.3       3 GLC5        0.0000 
     81 CA        -10.2000    0.2800   30.1190 C.3       6 GLP5        0.0000 
     82 CA        -11.7553   -1.2945   23.9410 C.3       3 GLC5        0.0000 
     83 CA        -13.6500   -1.6280   25.3870 C.3       9 GLL5        0.0000 
     84 CA        -10.1280   -1.5850   22.8660 C.3       6 GLP5        0.0000 
     85 CA        -14.7022   -0.8185   23.8360 C.3       3 GLC5        0.0000 
     86 CA        -13.1150   -0.3800   24.6450 C.3       9 GLL5        0.0000 
     87 CA        -16.0220   -0.6330   22.6560 C.3       6 GLP5        0.0000 
     88 CA        -16.9510   -2.6840   30.9031 C.3       3 GLC5        0.0000 
     89 CA        -15.4150   -3.4220   30.6950 C.3       9 GLL5        0.0000 
     90 CA        -17.8420   -8.5880   31.9228 C.3       3 GLC5        0.0000 
     91 CA        -17.3500   -6.4590   30.7860 C.3       9 GLL5        0.0000 
     92 CA        -18.2710  -10.5400   32.3140 C.3       6 GLP5        0.0000 
     93 CA        -20.3120   -8.5585   29.9280 C.3       3 GLC5        0.0000 
     94 CA        -19.7530   -6.2440   30.4920 C.3       9 GLL5        0.0000 
     95 CA        -20.3160  -10.6320   29.8360 C.3       6 GLP5        0.0000 
     96 CA        -18.7629   -8.7066   32.8037 C.3       3 GLC5        0.0000 
     97 CA        -19.9900   -6.7400   31.9030 C.3       9 GLL5        0.0000 
     98 CA        -13.9418   -7.7520   28.2000 C.3       3 GLC5        0.0000 
     99 CA        -14.5870   -5.8120   27.0140 C.3       9 GLL5        0.0000 
    100 CA        -13.3880   -8.9740   29.6270 C.3       6 GLP5        0.0000 
    101 CA        -15.0922   -3.9555   24.3548 C.3       3 GLC5        0.0000 
    102 CA        -19.3255  -10.0783   28.3942 C.3       3 GLC5        0.0000 
    103 CA        -18.6250   -8.8370   26.8470 C.3       9 GLL5        0.0000 
    104 CA        -17.7125   -9.7444   24.9786 C.3       3 GLC5        0.0000 
    105 CA        -16.4690  -10.3360   23.6580 C.3       6 GLP5        0.0000 
@<TRIPOS>BOND
@<TRIPOS>SUBSTRUCTURE
     1 ALC1       12 GROUP        1 X    ALC  0     ROOT ALC X 1
     2 SEC2        9 GROUP        1 X    SEC  0     **** SEC X 2
     3 GLC5        1 GROUP        1 X    GLC  0     **** GLC X 6
     4 ALP1       14 GROUP        1 Y    ALP  0     ROOT ALP Y 8
     5 SEP2       11 GROUP        1 Y    SEP  0     **** SEP Y 9
     6 GLP5        3 GROUP        1 Y    GLP  0     **** GLP Y 13
     7 ALL1       13 GROUP        1 Z    ALL  0     ROOT ALL Z 15
     8 SEL2       10 GROUP        1 Z    SEL  0     **** SEL Z 16
     9 GLL5        2 GROUP        1 Z    GLL  0     **** GLL Z 20
@<TRIPOS>SET

