#    Name: 2jjo_EY5_1_ligand
#    Modification time : Tue Mar 25 20:58:37 2014

@<TRIPOS>MOLECULE
2jjo_EY5_1_ligand
  115   117     1     0     0
SMALL
NO_CHARGES


@<TRIPOS>ATOM
      1 O1        -13.1890   -3.1100   29.6430 O.2       1 EY5413      0.0000 
      2 C1        -14.3090   -2.6800   29.9650 C.2       1 EY5413      0.0000 
      3 O2        -14.6800   -1.3360   29.6680 O.3       1 EY5413      0.0000 
      4 C13       -13.6960   -0.4600   29.1130 C.3       1 EY5413      0.0000 
      5 C36       -13.8320    0.9000   29.7900 C.3       1 EY5413      0.0000 
      6 C37       -13.8120    0.7790   31.2870 C.3       1 EY5413      0.0000 
      7 C12       -13.9550   -0.3880   27.6160 C.3       1 EY5413      0.0000 
      8 C35       -15.4540   -0.3360   27.3190 C.3       1 EY5413      0.0000 
      9 C11       -13.2890   -1.5630   26.8790 C.3       1 EY5413      0.0000 
     10 O12       -11.8480   -1.5490   26.9820 O.3       1 EY5413      0.0000 
     11 C10       -13.6500   -1.6280   25.3870 C.3       1 EY5413      0.0000 
     12 C34       -13.1150   -0.3800   24.6450 C.3       1 EY5413      0.0000 
     13 C2        -15.4150   -3.4220   30.6950 C.3       1 EY5413      0.0000 
     14 C30       -14.9250   -3.7220   32.1100 C.3       1 EY5413      0.0000 
     15 C3        -15.9340   -4.6420   29.9320 C.3       1 EY5413      0.0000 
     16 O3        -17.1350   -5.0760   30.6160 O.3       1 EY5413      0.0000 
     17 C14       -17.3500   -6.4590   30.7860 C.3       1 EY5413      0.0000 
     18 O4        -18.5220   -6.8020   30.0420 O.3       1 EY5413      0.0000 
     19 C18       -19.7530   -6.2440   30.4920 C.3       1 EY5413      0.0000 
     20 C21       -20.8630   -6.7260   29.5480 C.3       1 EY5413      0.0000 
     21 C17       -19.9900   -6.7400   31.9030 C.3       1 EY5413      0.0000 
     22 O6        -21.2260   -6.2090   32.3990 O.3       1 EY5413      0.0000 
     23 C16       -18.8370   -6.4250   32.8790 C.3       1 EY5413      0.0000 
     24 C19       -19.0960   -7.1640   34.1960 C.3       1 EY5413      0.0000 
     25 O5        -18.8470   -5.0330   33.2060 O.3       1 EY5413      0.0000 
     26 C15       -17.4760   -6.8130   32.2770 C.3       1 EY5413      0.0000 
     27 C4        -16.1930   -4.3500   28.4290 C.3       1 EY5413      0.0000 
     28 C31       -17.5410   -3.6310   28.2030 C.3       1 EY5413      0.0000 
     29 C5        -16.0080   -5.6200   27.5810 C.3       1 EY5413      0.0000 
     30 C6        -14.5870   -5.8120   27.0140 C.3       1 EY5413      0.0000 
     31 C32       -14.4040   -7.2480   26.5320 C.3       1 EY5413      0.0000 
     32 O10       -13.6120   -5.6310   28.0680 O.3       1 EY5413      0.0000 
     33 C7        -14.4360   -4.8240   25.8280 C.3       1 EY5413      0.0000 
     34 C8        -13.0570   -4.2440   25.5430 C.3       1 EY5413      0.0000 
     35 C33       -12.1990   -5.2560   24.7690 C.3       1 EY5413      0.0000 
     36 C9        -13.1340   -2.9370   24.7880 C.2       1 EY5413      0.0000 
     37 O11       -12.7100   -2.9080   23.6560 O.2       1 EY5413      0.0000 
     38 O7        -16.8790   -5.6580   26.4560 O.3       1 EY5413      0.0000 
     39 C22       -17.9670   -6.5730   26.5900 C.3       1 EY5413      0.0000 
     40 O9        -17.5330   -7.9270   26.6810 O.3       1 EY5413      0.0000 
     41 C26       -18.6250   -8.8370   26.8470 C.3       1 EY5413      0.0000 
     42 C27       -18.0450  -10.2120   27.0580 C.3       1 EY5413      0.0000 
     43 C25       -19.5770   -8.7810   25.6460 C.3       1 EY5413      0.0000 
     44 C24       -20.0160   -7.3250   25.3790 C.3       1 EY5413      0.0000 
     45 N1        -20.8900   -7.0990   24.1860 N.4       1 EY5413      0.0000 
     46 C29       -22.1760   -7.7880   24.3760 C.3       1 EY5413      0.0000 
     47 C28       -20.3240   -7.4600   22.8740 C.3       1 EY5413      0.0000 
     48 C23       -18.7910   -6.4180   25.3100 C.3       1 EY5413      0.0000 
     49 O8        -19.2090   -5.0540   25.1640 O.3       1 EY5413      0.0000 
     50 H         -12.7105   -0.8392   29.2792 H         1 EY5413      0.0000 
     51 H         -14.7717    1.3624   29.4686 H         1 EY5413      0.0000 
     52 H         -13.0090    1.5431   29.4596 H         1 EY5413      0.0000 
     53 H         -13.5063    0.5365   27.2368 H         1 EY5413      0.0000 
     54 H         -13.6702   -2.4984   27.3305 H         1 EY5413      0.0000 
     55 H         -14.7390   -1.6229   25.3127 H         1 EY5413      0.0000 
     56 H         -16.2592   -2.7019   30.8005 H         1 EY5413      0.0000 
     57 H         -15.1728   -5.4177   30.0008 H         1 EY5413      0.0000 
     58 H         -16.4921   -7.0168   30.3951 H         1 EY5413      0.0000 
     59 H         -19.7297   -5.1826   30.4863 H         1 EY5413      0.0000 
     60 H         -20.0711   -7.8445   31.8541 H         1 EY5413      0.0000 
     61 H         -16.6818   -6.3001   32.8331 H         1 EY5413      0.0000 
     62 H         -17.3272   -7.8927   32.4004 H         1 EY5413      0.0000 
     63 H         -15.3896   -3.6355   28.1165 H         1 EY5413      0.0000 
     64 H         -16.2050   -6.4926   28.2222 H         1 EY5413      0.0000 
     65 H         -15.1558   -3.9814   25.9917 H         1 EY5413      0.0000 
     66 H         -14.8097   -5.3381   24.9056 H         1 EY5413      0.0000 
     67 H         -12.5594   -4.0620   26.5005 H         1 EY5413      0.0000 
     68 H         -18.6054   -6.2985   27.4047 H         1 EY5413      0.0000 
     69 H         -19.1943   -8.5733   27.7398 H         1 EY5413      0.0000 
     70 H         -20.4548   -9.3823   25.8531 H         1 EY5413      0.0000 
     71 H         -19.0717   -9.1644   24.7670 H         1 EY5413      0.0000 
     72 H         -20.5805   -6.9919   26.2879 H         1 EY5413      0.0000 
     73 H         -21.1309   -5.9995   24.1606 H         1 EY5413      0.0000 
     74 H         -18.1838   -6.7328   24.4791 H         1 EY5413      0.0000 
     75 H         -12.9596    0.3720   31.6153 H         1 EY5413      0.0000 
     76 H         -13.9023    1.6696   31.7328 H         1 EY5413      0.0000 
     77 H         -14.5592    0.2057   31.6233 H         1 EY5413      0.0000 
     78 H         -15.6365   -0.2855   26.3371 H         1 EY5413      0.0000 
     79 H         -15.9293   -1.1452   27.6643 H         1 EY5413      0.0000 
     80 H         -15.8885    0.4607   27.7392 H         1 EY5413      0.0000 
     81 H         -12.1207   -0.3022   24.7182 H         1 EY5413      0.0000 
     82 H         -13.3361   -0.4044   23.6701 H         1 EY5413      0.0000 
     83 H         -13.5030    0.4653   25.0125 H         1 EY5413      0.0000 
     84 H         -14.1009   -4.2884   32.1054 H         1 EY5413      0.0000 
     85 H         -14.7030   -2.8857   32.6113 H         1 EY5413      0.0000 
     86 H         -15.6136   -4.2108   32.6457 H         1 EY5413      0.0000 
     87 H         -20.6992   -6.4379   28.6045 H         1 EY5413      0.0000 
     88 H         -20.9377   -7.7232   29.5412 H         1 EY5413      0.0000 
     89 H         -21.7579   -6.3668   29.8130 H         1 EY5413      0.0000 
     90 H         -19.1405   -8.1542   34.0637 H         1 EY5413      0.0000 
     91 H         -18.3756   -6.9901   34.8674 H         1 EY5413      0.0000 
     92 H         -19.9603   -6.8851   34.6146 H         1 EY5413      0.0000 
     93 H         -17.5803   -2.7555   28.6846 H         1 EY5413      0.0000 
     94 H         -17.7025   -3.4404   27.2347 H         1 EY5413      0.0000 
     95 H         -18.3127   -4.1784   28.5267 H         1 EY5413      0.0000 
     96 H         -13.4877   -7.4017   26.1623 H         1 EY5413      0.0000 
     97 H         -14.5361   -7.9077   27.2718 H         1 EY5413      0.0000 
     98 H         -15.0546   -7.4832   25.8099 H         1 EY5413      0.0000 
     99 H         -11.2886   -4.8943   24.5682 H         1 EY5413      0.0000 
    100 H         -12.0706   -6.1040   25.2831 H         1 EY5413      0.0000 
    101 H         -12.6155   -5.5038   23.8943 H         1 EY5413      0.0000 
    102 H         -17.4912  -10.5051   26.2786 H         1 EY5413      0.0000 
    103 H         -17.4562  -10.2468   27.8655 H         1 EY5413      0.0000 
    104 H         -18.7588  -10.9006   27.1858 H         1 EY5413      0.0000 
    105 H         -22.0554   -8.7737   24.4936 H         1 EY5413      0.0000 
    106 H         -22.6607   -7.4535   25.1842 H         1 EY5413      0.0000 
    107 H         -22.7858   -7.6586   23.5941 H         1 EY5413      0.0000 
    108 H         -19.4942   -6.9400   22.6717 H         1 EY5413      0.0000 
    109 H         -20.0811   -8.4290   22.8282 H         1 EY5413      0.0000 
    110 H         -20.9688   -7.2840   22.1302 H         1 EY5413      0.0000 
    111 H         -11.5802   -0.6172   26.7369 H         1 EY5413      0.0000 
    112 H         -20.9991   -5.2938   32.7322 H         1 EY5413      0.0000 
    113 H         -19.7338   -4.6987   32.8868 H         1 EY5413      0.0000 
    114 H         -13.7536   -4.6962   28.3936 H         1 EY5413      0.0000 
    115 H         -20.2068   -5.0935   25.1104 H         1 EY5413      0.0000 
@<TRIPOS>BOND
     1    2    1 2    
     2    3    2 1    
     3   13    2 1    
     4    4    3 1    
     5    5    4 1    
     6    7    4 1    
     7   50    4 1    
     8    6    5 1    
     9   51    5 1    
    10   52    5 1    
    11   75    6 1    
    12   76    6 1    
    13   77    6 1    
    14    8    7 1    
    15    9    7 1    
    16   53    7 1    
    17   78    8 1    
    18   79    8 1    
    19   80    8 1    
    20   10    9 1    
    21   11    9 1    
    22   54    9 1    
    23  111   10 1    
    24   12   11 1    
    25   36   11 1    
    26   55   11 1    
    27   81   12 1    
    28   82   12 1    
    29   83   12 1    
    30   14   13 1    
    31   15   13 1    
    32   56   13 1    
    33   84   14 1    
    34   85   14 1    
    35   86   14 1    
    36   16   15 1    
    37   27   15 1    
    38   57   15 1    
    39   17   16 1    
    40   18   17 1    
    41   26   17 1    
    42   58   17 1    
    43   19   18 1    
    44   20   19 1    
    45   21   19 1    
    46   59   19 1    
    47   87   20 1    
    48   88   20 1    
    49   89   20 1    
    50   22   21 1    
    51   23   21 1    
    52   60   21 1    
    53  112   22 1    
    54   24   23 1    
    55   25   23 1    
    56   26   23 1    
    57   90   24 1    
    58   91   24 1    
    59   92   24 1    
    60  113   25 1    
    61   61   26 1    
    62   62   26 1    
    63   28   27 1    
    64   29   27 1    
    65   63   27 1    
    66   93   28 1    
    67   94   28 1    
    68   95   28 1    
    69   30   29 1    
    70   38   29 1    
    71   64   29 1    
    72   31   30 1    
    73   32   30 1    
    74   33   30 1    
    75   96   31 1    
    76   97   31 1    
    77   98   31 1    
    78  114   32 1    
    79   34   33 1    
    80   65   33 1    
    81   66   33 1    
    82   35   34 1    
    83   36   34 1    
    84   67   34 1    
    85   99   35 1    
    86  100   35 1    
    87  101   35 1    
    88   37   36 2    
    89   39   38 1    
    90   40   39 1    
    91   48   39 1    
    92   68   39 1    
    93   41   40 1    
    94   42   41 1    
    95   43   41 1    
    96   69   41 1    
    97  102   42 1    
    98  103   42 1    
    99  104   42 1    
   100   44   43 1    
   101   70   43 1    
   102   71   43 1    
   103   45   44 1    
   104   48   44 1    
   105   72   44 1    
   106   46   45 1    
   107   47   45 1    
   108   73   45 1    
   109  105   46 1    
   110  106   46 1    
   111  107   46 1    
   112  108   47 1    
   113  109   47 1    
   114  110   47 1    
   115   49   48 1    
   116   74   48 1    
   117  115   49 1    
@<TRIPOS>SUBSTRUCTURE
     1 EY5413      1 GROUP   
@<TRIPOS>SET

