#    Name: 1gts_AMP_1_INTS_M
#    Modification time : Tue Mar 25 03:52:19 2014

@<TRIPOS>MOLECULE
1gts_AMP_1_INTS_M
   54     0    12     0     0
SMALL
NO_CHARGES


@<TRIPOS>ATOM
      1 N          48.7315   28.1325   13.1105 N.am      2 SEC2        0.0000 
      2 N          48.0050   28.4870   14.3940 N.am     10 SEL2        0.0000 
      3 N          49.4580   27.7780   11.8270 N.am      6 SEP2        0.0000 
      4 NZ         48.7270   25.4255   15.0190 N.4       3 LYC4        0.0000 
      5 NZ         47.5000   26.1180   15.0540 N.4      11 LYL4        0.0000 
      6 NZ         49.9540   24.7330   14.9840 N.4       7 LYP4        0.0000 
      7 N          46.5535   25.1700   15.0890 N.am      2 SEC2        0.0000 
      8 N          47.5000   26.1180   15.0540 N.am     10 SEL2        0.0000 
      9 N          45.6070   24.2220   15.1240 N.am      6 SEP2        0.0000 
     10 N          48.7270   25.4255   15.0190 N.am      2 SEC2        0.0000 
     11 N          49.9540   24.7330   14.9840 N.am      6 SEP2        0.0000 
     12 CA         46.2115   27.5990   12.3385 C.3       4 GLC5        0.0000 
     13 CA         45.1080   27.9620   13.8540 C.3      12 GLL5        0.0000 
     14 CA         47.3150   27.2360   10.8230 C.3       8 GLP5        0.0000 
     15 CA         43.4220   29.3125   12.0555 C.3       4 GLC5        0.0000 
     16 CA         43.5790   28.0670   13.8650 C.3      12 GLL5        0.0000 
     17 CA         43.2650   30.5580   10.2460 C.3       8 GLP5        0.0000 
     18 O          40.5320   28.4135   14.1160 O.2       1 ALC1        0.0000 
     19 O          41.6430   29.5950   14.1460 O.2       9 ALL1        0.0000 
     20 O          39.4210   27.2320   14.0860 O.2       5 ALP1        0.0000 
     21 N          40.8720   30.6400   17.4820 N.am      2 SEC2        0.0000 
     22 N          41.8250   29.5190   16.7020 N.am     10 SEL2        0.0000 
     23 N          39.9190   31.7610   18.2620 N.am      6 SEP2        0.0000 
     24 O          41.7200   29.8620   18.1180 O.2       1 ALC1        0.0000 
     25 O          41.8250   29.5190   16.7020 O.2       9 ALL1        0.0000 
     26 O          41.6150   30.2050   19.5340 O.2       5 ALP1        0.0000 
     27 CA         43.3420   25.7135   15.1435 C.3       4 GLC5        0.0000 
     28 CA         42.2640   27.3580   15.6620 C.3      12 GLL5        0.0000 
     29 CA         44.4200   24.0690   14.6250 C.3       8 GLP5        0.0000 
     30 CA         40.8510   26.6850   14.5250 C.3       4 GLC5        0.0000 
     31 CA         39.4380   26.0120   13.3880 C.3       8 GLP5        0.0000 
     32 O          40.8100   22.9545   21.6030 O.2       1 ALC1        0.0000 
     33 O          41.6040   23.7430   20.4070 O.2       9 ALL1        0.0000 
     34 O          40.0160   22.1660   22.7990 O.2       5 ALP1        0.0000 
     35 N          38.9940   24.1955   20.3600 N.am      2 SEC2        0.0000 
     36 N          39.8040   24.5090   19.1350 N.am     10 SEL2        0.0000 
     37 N          38.1840   23.8820   21.5850 N.am      6 SEP2        0.0000 
     38 CA         40.0445   23.1935   18.0210 C.3       4 GLC5        0.0000 
     39 CA         39.3950   25.2380   18.1050 C.3      12 GLL5        0.0000 
     40 CA         40.6940   21.1490   17.9370 C.3       8 GLP5        0.0000 
     41 CA         37.5040   24.5745   18.1130 C.3       4 GLC5        0.0000 
     42 CA         35.6130   23.9110   18.1210 C.3       8 GLP5        0.0000 
     43 CA         39.4970   27.0615   18.7405 C.3       4 GLC5        0.0000 
     44 CA         39.5990   28.8850   19.3760 C.3       8 GLP5        0.0000 
     45 CA         38.8190   25.7665   19.9505 C.3       4 GLC5        0.0000 
     46 CA         38.2430   26.2950   21.7960 C.3       8 GLP5        0.0000 
     47 CA         43.3907   26.8152   12.5403 C.3       4 GLC5        0.0000 
     48 CA         42.4380   25.6160   11.2210 C.3       8 GLP5        0.0000 
     49 CA         44.3817   26.0418   14.2423 C.3       4 GLC5        0.0000 
     50 CA         41.1188   22.9808   18.4398 C.3       4 GLC5        0.0000 
     51 CA         41.9640   25.1730   18.5130 C.3      12 GLL5        0.0000 
     52 CA         40.6380   27.2037   18.6908 C.3       4 GLC5        0.0000 
     53 CA         40.6367   25.6382   20.5117 C.3       4 GLC5        0.0000 
     54 CA         39.7300   26.4640   22.0810 C.3       8 GLP5        0.0000 
@<TRIPOS>BOND
@<TRIPOS>SUBSTRUCTURE
     1 ALC1       18 GROUP        1 X    ALC  0     ROOT ALC X 1
     2 SEC2        1 GROUP        1 X    SEC  0     **** SEC X 2
     3 LYC4        4 GROUP        1 X    LYC  0     **** LYC X 4
     4 GLC5       12 GROUP        1 X    GLC  0     **** GLC X 6
     5 ALP1       20 GROUP        1 Y    ALP  0     ROOT ALP Y 8
     6 SEP2        3 GROUP        1 Y    SEP  0     **** SEP Y 9
     7 LYP4        6 GROUP        1 Y    LYP  0     **** LYP Y 11
     8 GLP5       14 GROUP        1 Y    GLP  0     **** GLP Y 13
     9 ALL1       19 GROUP        1 Z    ALL  0     ROOT ALL Z 15
    10 SEL2        2 GROUP        1 Z    SEL  0     **** SEL Z 16
    11 LYL4        5 GROUP        1 Z    LYL  0     **** LYL Z 18
    12 GLL5       13 GROUP        1 Z    GLL  0     **** GLL Z 20
@<TRIPOS>SET

