#    Name: 1gts_AMP_1_ligand
#    Modification time : Tue Mar 25 03:52:19 2014

@<TRIPOS>MOLECULE
1gts_AMP_1_ligand
   35    37     1     0     0
SMALL
NO_CHARGES


@<TRIPOS>ATOM
      1 P          47.2730   27.5540   15.2620 P.3       1 AMP999      0.0000 
      2 O1P        48.0050   28.4870   14.3940 O.co2     1 AMP999      0.0000 
      3 O2P        47.5000   26.1180   15.0540 O.co2     1 AMP999      0.0000 
      4 O3P        47.5610   27.8750   16.7940 O.co2     1 AMP999      0.0000 
      5 O5'        45.6710   27.7550   15.1530 O.3       1 AMP999      0.0000 
      6 C5'        45.1080   27.9620   13.8540 C.3       1 AMP999      0.0000 
      7 C4'        43.5790   28.0670   13.8650 C.3       1 AMP999      0.0000 
      8 O4'        43.1540   26.9370   14.6280 O.3       1 AMP999      0.0000 
      9 C3'        42.9690   29.2700   14.6090 C.3       1 AMP999      0.0000 
     10 O3'        41.6430   29.5950   14.1460 O.3       1 AMP999      0.0000 
     11 C2'        42.7970   28.7340   16.0010 C.3       1 AMP999      0.0000 
     12 O2'        41.8250   29.5190   16.7020 O.3       1 AMP999      0.0000 
     13 C1'        42.2640   27.3580   15.6620 C.3       1 AMP999      0.0000 
     14 N9         42.3970   26.4710   16.8110 N.pl3     1 AMP999      0.0000 
     15 C8         43.5420   26.1040   17.4650 C.2       1 AMP999      0.0000 
     16 N7         43.3370   25.3100   18.4830 N.2       1 AMP999      0.0000 
     17 C5         41.9640   25.1730   18.5130 C.ar      1 AMP999      0.0000 
     18 C6         41.1230   24.4520   19.3720 C.ar      1 AMP999      0.0000 
     19 N6         41.6040   23.7430   20.4070 N.pl3     1 AMP999      0.0000 
     20 N1         39.8040   24.5090   19.1350 N.ar      1 AMP999      0.0000 
     21 C2         39.3950   25.2380   18.1050 C.ar      1 AMP999      0.0000 
     22 N3         40.0960   25.9470   17.2280 N.ar      1 AMP999      0.0000 
     23 C4         41.3900   25.8720   17.4980 C.ar      1 AMP999      0.0000 
     24 H          45.3773   27.1373   13.1608 H         1 AMP999      0.0000 
     25 H          45.4993   28.8905   13.3873 H         1 AMP999      0.0000 
     26 H          43.1968   28.0125   12.8847 H         1 AMP999      0.0000 
     27 H          43.6333   30.0590   14.6190 H         1 AMP999      0.0000 
     28 H          43.7209   28.6473   16.4550 H         1 AMP999      0.0000 
     29 H          41.2820   27.4451   15.3200 H         1 AMP999      0.0000 
     30 H          44.4433   26.4324   17.1647 H         1 AMP999      0.0000 
     31 H          40.9236   23.3014   20.9919 H         1 AMP999      0.0000 
     32 H          42.5994   23.7202   20.5000 H         1 AMP999      0.0000 
     33 H          38.2876   25.2591   17.9509 H         1 AMP999      0.0000 
     34 H          41.1182   28.7502   14.2505 H         1 AMP999      0.0000 
     35 H          42.1066   29.4836   17.6609 H         1 AMP999      0.0000 
@<TRIPOS>BOND
     1    2    1 ar   
     2    3    1 ar   
     3    4    1 ar   
     4    5    1 1    
     5    6    5 1    
     6    7    6 1    
     7   24    6 1    
     8   25    6 1    
     9    8    7 1    
    10    9    7 1    
    11   26    7 1    
    12   13    8 1    
    13   10    9 1    
    14   11    9 1    
    15   27    9 1    
    16   34   10 1    
    17   12   11 1    
    18   13   11 1    
    19   28   11 1    
    20   35   12 1    
    21   14   13 1    
    22   29   13 1    
    23   15   14 1    
    24   23   14 1    
    25   16   15 2    
    26   30   15 1    
    27   17   16 1    
    28   18   17 ar   
    29   23   17 ar   
    30   19   18 1    
    31   20   18 ar   
    32   31   19 1    
    33   32   19 1    
    34   21   20 ar   
    35   22   21 ar   
    36   33   21 1    
    37   23   22 ar   
@<TRIPOS>SUBSTRUCTURE
     1 AMP999      1 GROUP   
@<TRIPOS>SET

