#    Name: 3haz_FAD_1_INTS_M
#    Modification time : Tue Mar 25 13:50:42 2014

@<TRIPOS>MOLECULE
3haz_FAD_1_INTS_M
  113     0    12     0     0
SMALL
NO_CHARGES


@<TRIPOS>ATOM
      1 NZ         26.7805  -14.1455  -27.1555 N.4       3 LYC4        0.0000 
      2 NZ         25.7520  -15.5320  -28.0210 N.4      11 LYL4        0.0000 
      3 NZ         27.8090  -12.7590  -26.2900 N.4       7 LYP4        0.0000 
      4 N          26.3165  -15.7415  -29.1370 N.am      2 SEC2        0.0000 
      5 N          25.7520  -15.5320  -28.0210 N.am     10 SEL2        0.0000 
      6 N          26.8810  -15.9510  -30.2530 N.am      6 SEP2        0.0000 
      7 NZ         27.2165  -15.3280  -24.3090 N.4       3 LYC4        0.0000 
      8 NZ         26.9530  -15.4820  -25.7400 N.4      11 LYL4        0.0000 
      9 NZ         27.4800  -15.1740  -22.8780 N.4       7 LYP4        0.0000 
     10 NZ         27.3810  -14.1205  -26.0150 N.4       3 LYC4        0.0000 
     11 N          27.2165  -15.3280  -24.3090 N.am      2 SEC2        0.0000 
     12 N          26.9530  -15.4820  -25.7400 N.am     10 SEL2        0.0000 
     13 N          27.4800  -15.1740  -22.8780 N.am      6 SEP2        0.0000 
     14 N          27.3810  -14.1205  -26.0150 N.am      2 SEC2        0.0000 
     15 N          27.8090  -12.7590  -26.2900 N.am      6 SEP2        0.0000 
     16 N          28.3960  -15.6140  -25.6505 N.am      2 SEC2        0.0000 
     17 N          29.8390  -15.7460  -25.5610 N.am      6 SEP2        0.0000 
     18 CA         22.5815  -14.0210  -23.4385 C.3       4 GLC5        0.0000 
     19 CA         22.4870  -13.5030  -25.5790 C.3      12 GLL5        0.0000 
     20 CA         22.6760  -14.5390  -21.2980 C.3       8 GLP5        0.0000 
     21 O          19.2725  -14.4100  -24.5710 O.2       1 ALC1        0.0000 
     22 O          20.3390  -14.6360  -25.5790 O.2       9 ALL1        0.0000 
     23 O          18.2060  -14.1840  -23.5630 O.2       5 ALP1        0.0000 
     24 CA         19.5920  -11.5595  -23.1925 C.3       4 GLC5        0.0000 
     25 CA         20.7710  -12.3110  -24.6230 C.3      12 GLL5        0.0000 
     26 CA         18.4130  -10.8080  -21.7620 C.3       8 GLP5        0.0000 
     27 CA         21.7235  -13.4250  -22.9605 C.3       4 GLC5        0.0000 
     28 O          19.2680  -13.4310  -23.4460 O.2       1 ALC1        0.0000 
     29 O          20.3300  -12.6780  -23.3290 O.2       9 ALL1        0.0000 
     30 CA         23.7505  -10.5590  -25.7190 C.3       4 GLC5        0.0000 
     31 CA         21.9570  -11.4150  -24.6660 C.3      12 GLL5        0.0000 
     32 CA         25.5440   -9.7030  -26.7720 C.3       8 GLP5        0.0000 
     33 CA         22.9155  -11.2105  -22.9195 C.3       4 GLC5        0.0000 
     34 CA         23.8740  -11.0060  -21.1730 C.3       8 GLP5        0.0000 
     35 CA         21.6460   -4.8575  -25.1365 C.3       4 GLC5        0.0000 
     36 CA         22.1020   -6.7250  -26.2160 C.3      12 GLL5        0.0000 
     37 CA         21.1900   -2.9900  -24.0570 C.3       8 GLP5        0.0000 
     38 CA         23.4355   -5.2720  -25.6030 C.3       4 GLC5        0.0000 
     39 CA         24.7690   -3.8190  -24.9900 C.3       8 GLP5        0.0000 
     40 O          22.2330   -4.5140  -26.7705 O.2       1 ALC1        0.0000 
     41 O          22.1110   -5.8770  -27.4020 O.2       9 ALL1        0.0000 
     42 O          22.3550   -3.1510  -26.1390 O.2       5 ALP1        0.0000 
     43 CA         22.3610   -5.9695  -22.0520 C.3       4 GLC5        0.0000 
     44 CA         22.1660   -6.9580  -23.8650 C.3      12 GLL5        0.0000 
     45 CA         22.5560   -4.9810  -20.2390 C.3       8 GLP5        0.0000 
     46 CA         21.6780   -4.9740  -23.9610 C.3       4 GLC5        0.0000 
     47 CA         23.4675   -5.3885  -24.4275 C.3       4 GLC5        0.0000 
     48 CA         23.8820   -7.2320  -24.6305 C.3       4 GLC5        0.0000 
     49 CA         25.5980   -7.5060  -25.3960 C.3       8 GLP5        0.0000 
     50 CA         23.1880   -8.2525  -22.6755 C.3       4 GLC5        0.0000 
     51 CA         24.2100   -9.5470  -21.4860 C.3       8 GLP5        0.0000 
     52 N          22.5495   -8.5855  -22.7340 N.am      2 SEC2        0.0000 
     53 N          22.0970   -8.3960  -23.9890 N.am     10 SEL2        0.0000 
     54 N          23.0020   -8.7750  -21.4790 N.am      6 SEP2        0.0000 
     55 CA         23.1235   -9.2635  -23.3575 C.3       4 GLC5        0.0000 
     56 CA         22.0370   -8.9800  -25.2290 C.3      12 GLL5        0.0000 
     57 N          14.7965  -15.2905  -19.2960 N.am      2 SEC2        0.0000 
     58 N          15.3150  -16.0330  -20.2430 N.am     10 SEL2        0.0000 
     59 N          14.2780  -14.5480  -18.3490 N.am      6 SEP2        0.0000 
     60 N          15.8470  -15.5720  -21.4420 N.am      2 SEC2        0.0000 
     61 N          16.3790  -15.1110  -22.6410 N.am      6 SEP2        0.0000 
     62 O          13.7395  -17.7865  -18.6915 O.2       1 ALC1        0.0000 
     63 O          14.9110  -18.1800  -19.1480 O.2       9 ALL1        0.0000 
     64 O          12.5680  -17.3930  -18.2350 O.2       5 ALP1        0.0000 
     65 N          13.7440  -19.6455  -17.0270 N.am      2 SEC2        0.0000 
     66 N          14.5450  -20.2880  -18.0630 N.am     10 SEL2        0.0000 
     67 N          12.9430  -19.0030  -15.9910 N.am      6 SEP2        0.0000 
     68 CA         21.2465  -25.9535  -19.6950 C.3       4 GLC5        0.0000 
     69 CA         19.5230  -25.4800  -20.7800 C.3      12 GLL5        0.0000 
     70 CA         22.9700  -26.4270  -18.6100 C.3       8 GLP5        0.0000 
     71 CA         19.2935  -27.0320  -20.2125 C.3       4 GLC5        0.0000 
     72 CA         19.0640  -28.5840  -19.6450 C.3       8 GLP5        0.0000 
     73 CA         22.2235  -25.2680  -22.8225 C.3       4 GLC5        0.0000 
     74 CA         21.1200  -23.7040  -22.6900 C.3      12 GLL5        0.0000 
     75 CA         23.3270  -26.8320  -22.9550 C.3       8 GLP5        0.0000 
     76 CA         20.3215  -25.0290  -24.2445 C.3       4 GLC5        0.0000 
     77 CA         19.5230  -26.3540  -25.7990 C.3       8 GLP5        0.0000 
     78 CA         19.5135  -18.6095  -20.3805 C.3       4 GLC5        0.0000 
     79 CA         18.9620  -18.8530  -22.1720 C.3      12 GLL5        0.0000 
     80 CA         20.0650  -18.3660  -18.5890 C.3       8 GLP5        0.0000 
     81 CA         16.8440  -17.7505  -23.7420 C.3       4 GLC5        0.0000 
     82 CA         18.5550  -18.6500  -23.6540 C.3      12 GLL5        0.0000 
     83 CA         15.1330  -16.8510  -23.8300 C.3       8 GLP5        0.0000 
     84 CA         21.8035  -16.0895  -22.5865 C.3       4 GLC5        0.0000 
     85 CA         20.9310  -17.6400  -23.8750 C.3      12 GLL5        0.0000 
     86 N          20.0675  -15.6070  -22.2430 N.am      2 SEC2        0.0000 
     87 N          20.5310  -16.4040  -23.3930 N.am     10 SEL2        0.0000 
     88 N          19.6040  -14.8100  -21.0930 N.am      6 SEP2        0.0000 
     89 NZ         26.7535  -16.2870  -23.2225 N.4       3 LYC4        0.0000 
     90 NZ         26.0270  -17.4000  -23.5670 N.4      11 LYL4        0.0000 
     91 N          26.7535  -16.2870  -23.2225 N.am      2 SEC2        0.0000 
     92 N          26.0270  -17.4000  -23.5670 N.am     10 SEL2        0.0000 
     93 N          26.6350  -18.4320  -23.0770 N.am      2 SEC2        0.0000 
     94 N          27.2430  -19.4640  -22.5870 N.am      6 SEP2        0.0000 
     95 N          25.9735  -19.3440  -23.7300 N.am      2 SEC2        0.0000 
     96 N          24.7040  -19.2240  -24.8730 N.am     10 SEL2        0.0000 
     97 N          25.4445  -20.3615  -24.6580 N.am      2 SEC2        0.0000 
     98 N          26.1850  -21.4990  -24.4430 N.am      6 SEP2        0.0000 
     99 CA         24.7485  -12.9765  -26.2840 C.3       4 GLC5        0.0000 
    100 CA         23.3790  -14.4210  -26.4250 C.3      12 GLL5        0.0000 
    101 CA         26.5640  -11.9910  -26.5660 C.3       8 GLP5        0.0000 
    102 CA         23.8251   -7.8664  -25.5754 C.3       4 GLC5        0.0000 
    103 CA         22.0330   -8.2220  -26.3450 C.3      12 GLL5        0.0000 
    104 CA         18.7661  -23.0789  -18.6387 C.3       4 GLC5        0.0000 
    105 CA         19.1820  -24.0060  -20.9310 C.3      12 GLL5        0.0000 
    106 CA         18.9750  -22.7750  -16.6820 C.3       8 GLP5        0.0000 
    107 CA         20.6371  -23.6654  -19.8987 C.3       4 GLC5        0.0000 
    108 CA         18.1090  -23.4690  -20.1830 C.3      12 GLL5        0.0000 
    109 CA         22.1900  -22.7220  -19.1290 C.3       8 GLP5        0.0000 
    110 CA         19.2797  -20.7392  -19.7435 C.3       4 GLC5        0.0000 
    111 CA         19.6110  -21.7900  -22.0040 C.3      12 GLL5        0.0000 
    112 CA         19.6930  -19.7650  -18.0920 C.3       8 GLP5        0.0000 
    113 CA         21.1318  -22.6648  -20.6343 C.3       4 GLC5        0.0000 
@<TRIPOS>BOND
@<TRIPOS>SUBSTRUCTURE
     1 ALC1       21 GROUP        1 X    ALC  0     ROOT ALC X 1
     2 SEC2        4 GROUP        1 X    SEC  0     **** SEC X 2
     3 LYC4        1 GROUP        1 X    LYC  0     **** LYC X 4
     4 GLC5       18 GROUP        1 X    GLC  0     **** GLC X 6
     5 ALP1       23 GROUP        1 Y    ALP  0     ROOT ALP Y 8
     6 SEP2        6 GROUP        1 Y    SEP  0     **** SEP Y 9
     7 LYP4        3 GROUP        1 Y    LYP  0     **** LYP Y 11
     8 GLP5       20 GROUP        1 Y    GLP  0     **** GLP Y 13
     9 ALL1       22 GROUP        1 Z    ALL  0     ROOT ALL Z 15
    10 SEL2        5 GROUP        1 Z    SEL  0     **** SEL Z 16
    11 LYL4        2 GROUP        1 Z    LYL  0     **** LYL Z 18
    12 GLL5       19 GROUP        1 Z    GLL  0     **** GLL Z 20
@<TRIPOS>SET

