#    Name: 3haz_FAD_1_ligand
#    Modification time : Tue Mar 25 13:50:43 2014

@<TRIPOS>MOLECULE
3haz_FAD_1_ligand
   84    89     1     0     0
SMALL
NO_CHARGES


@<TRIPOS>ATOM
      1 PA         25.6580  -15.6610  -26.3950 P.3       1 FAD2001     0.0000 
      2 O1A        25.7520  -15.5320  -28.0210 O.co2     1 FAD2001     0.0000 
      3 O2A        26.9530  -15.4820  -25.7400 O.co2     1 FAD2001     0.0000 
      4 O5B        24.6470  -14.5140  -25.8420 O.3       1 FAD2001     0.0000 
      5 C5B        23.3790  -14.4210  -26.4250 C.3       1 FAD2001     0.0000 
      6 C4B        22.4870  -13.5030  -25.5790 C.3       1 FAD2001     0.0000 
      7 O4B        23.0720  -12.2230  -24.9790 O.3       1 FAD2001     0.0000 
      8 C3B        21.0830  -13.4300  -25.5840 C.3       1 FAD2001     0.0000 
      9 O3B        20.3390  -14.6360  -25.5790 O.3       1 FAD2001     0.0000 
     10 C2B        20.7710  -12.3110  -24.6230 C.3       1 FAD2001     0.0000 
     11 O2B        20.3300  -12.6780  -23.3290 O.3       1 FAD2001     0.0000 
     12 C1B        21.9570  -11.4150  -24.6660 C.3       1 FAD2001     0.0000 
     13 N9A        21.9460  -10.3130  -25.6110 N.pl3     1 FAD2001     0.0000 
     14 C8A        21.9220  -10.3670  -27.0010 C.2       1 FAD2001     0.0000 
     15 N7A        21.9720   -9.0810  -27.4670 N.2       1 FAD2001     0.0000 
     16 C5A        22.0330   -8.2220  -26.3450 C.ar      1 FAD2001     0.0000 
     17 C6A        22.1020   -6.7250  -26.2160 C.ar      1 FAD2001     0.0000 
     18 N6A        22.1110   -5.8770  -27.4020 N.pl3     1 FAD2001     0.0000 
     19 N1A        22.1610   -6.1630  -25.0280 N.ar      1 FAD2001     0.0000 
     20 C2A        22.1660   -6.9580  -23.8650 C.ar      1 FAD2001     0.0000 
     21 N3A        22.0970   -8.3960  -23.9890 N.ar      1 FAD2001     0.0000 
     22 C4A        22.0370   -8.9800  -25.2290 C.ar      1 FAD2001     0.0000 
     23 N1         16.6950  -17.8950  -20.7760 N.2       1 FAD2001     0.0000 
     24 C2         15.6580  -17.3540  -20.0550 C.2       1 FAD2001     0.0000 
     25 O2         15.3150  -16.0330  -20.2430 O.2       1 FAD2001     0.0000 
     26 N3         14.9110  -18.1800  -19.1480 N.am      1 FAD2001     0.0000 
     27 C4         15.2300  -19.5000  -18.9970 C.2       1 FAD2001     0.0000 
     28 O4         14.5450  -20.2880  -18.0630 O.2       1 FAD2001     0.0000 
     29 C4X        16.3180  -20.0670  -19.7460 C.2       1 FAD2001     0.0000 
     30 N5         16.6850  -21.5080  -19.5850 N.2       1 FAD2001     0.0000 
     31 C5X        17.7560  -22.0500  -20.3370 C.ar      1 FAD2001     0.0000 
     32 C6         18.1090  -23.4690  -20.1830 C.ar      1 FAD2001     0.0000 
     33 C7         19.1820  -24.0060  -20.9310 C.ar      1 FAD2001     0.0000 
     34 C7M        19.5230  -25.4800  -20.7800 C.3       1 FAD2001     0.0000 
     35 C8         19.9520  -23.1460  -21.8600 C.ar      1 FAD2001     0.0000 
     36 C8M        21.1200  -23.7040  -22.6900 C.3       1 FAD2001     0.0000 
     37 C9         19.6110  -21.7900  -22.0040 C.ar      1 FAD2001     0.0000 
     38 C9A        18.4880  -21.2240  -21.2350 C.ar      1 FAD2001     0.0000 
     39 N10        18.1260  -19.8120  -21.3810 N.pl3     1 FAD2001     0.0000 
     40 C10        17.0310  -19.2680  -20.6110 C.2       1 FAD2001     0.0000 
     41 C1'        18.9620  -18.8530  -22.1720 C.3       1 FAD2001     0.0000 
     42 C2'        18.5550  -18.6500  -23.6540 C.3       1 FAD2001     0.0000 
     43 O2'        17.6790  -19.6930  -24.0680 O.3       1 FAD2001     0.0000 
     44 C3'        19.8260  -18.5560  -24.5140 C.3       1 FAD2001     0.0000 
     45 O3'        20.3690  -19.8550  -24.7230 O.3       1 FAD2001     0.0000 
     46 C4'        20.9310  -17.6400  -23.8750 C.3       1 FAD2001     0.0000 
     47 O4'        20.5310  -16.4040  -23.3930 O.3       1 FAD2001     0.0000 
     48 C5'        22.1870  -17.5280  -24.7800 C.3       1 FAD2001     0.0000 
     49 O5'        23.3630  -17.2060  -24.0540 O.3       1 FAD2001     0.0000 
     50 P          24.8060  -17.7790  -24.6380 P.3       1 FAD2001     0.0000 
     51 O1P        26.0270  -17.4000  -23.5670 O.co2     1 FAD2001     0.0000 
     52 O2P        24.7040  -19.2240  -24.8730 O.co2     1 FAD2001     0.0000 
     53 O3P        25.0010  -17.1210  -26.1200 O.3       1 FAD2001     0.0000 
     54 H          22.8719  -15.3941  -26.4906 H         1 FAD2001     0.0000 
     55 H          23.4103  -13.9972  -27.4387 H         1 FAD2001     0.0000 
     56 H          22.6053  -14.1867  -24.4359 H         1 FAD2001     0.0000 
     57 H          20.8541  -12.8961  -26.6308 H         1 FAD2001     0.0000 
     58 H          19.9483  -11.7148  -25.1484 H         1 FAD2001     0.0000 
     59 H          22.1156  -11.0132  -23.6450 H         1 FAD2001     0.0000 
     60 H          21.8786  -11.1597  -27.5205 H         1 FAD2001     0.0000 
     61 H          22.1137   -4.8906  -27.2376 H         1 FAD2001     0.0000 
     62 H          22.1137   -6.3516  -28.2822 H         1 FAD2001     0.0000 
     63 H          22.2170   -6.5416  -22.9442 H         1 FAD2001     0.0000 
     64 H          14.1399  -17.7478  -18.6252 H         1 FAD2001     0.0000 
     65 H          17.5743  -24.0344  -19.5420 H         1 FAD2001     0.0000 
     66 H          20.1192  -21.1759  -22.6294 H         1 FAD2001     0.0000 
     67 H          20.0258  -19.1819  -22.1563 H         1 FAD2001     0.0000 
     68 H          18.9534  -17.8541  -21.6799 H         1 FAD2001     0.0000 
     69 H          18.0581  -17.6748  -23.7021 H         1 FAD2001     0.0000 
     70 H          19.5544  -18.0999  -25.4671 H         1 FAD2001     0.0000 
     71 H          21.3184  -18.2722  -22.9821 H         1 FAD2001     0.0000 
     72 H          21.9557  -16.7684  -25.5531 H         1 FAD2001     0.0000 
     73 H          22.2812  -18.4939  -25.3150 H         1 FAD2001     0.0000 
     74 H          20.2979  -25.7427  -21.3549 H         1 FAD2001     0.0000 
     75 H          19.7658  -25.7104  -19.8377 H         1 FAD2001     0.0000 
     76 H          18.7552  -26.0670  -21.0367 H         1 FAD2001     0.0000 
     77 H          21.5339  -23.0009  -23.2683 H         1 FAD2001     0.0000 
     78 H          21.8466  -24.0708  -22.1090 H         1 FAD2001     0.0000 
     79 H          20.8258  -24.4446  -23.2941 H         1 FAD2001     0.0000 
     80 H          19.4599  -14.3960  -25.1672 H         1 FAD2001     0.0000 
     81 H          19.5401  -13.2714  -23.4835 H         1 FAD2001     0.0000 
     82 H          17.3294  -20.0894  -23.2191 H         1 FAD2001     0.0000 
     83 H          19.6073  -20.4828  -24.5623 H         1 FAD2001     0.0000 
     84 H          20.0276  -15.9827  -24.1474 H         1 FAD2001     0.0000 
@<TRIPOS>BOND
     1    2    1 ar   
     2    3    1 ar   
     3    4    1 1    
     4   53    1 1    
     5    5    4 1    
     6    6    5 1    
     7   54    5 1    
     8   55    5 1    
     9    7    6 1    
    10    8    6 1    
    11   56    6 1    
    12   12    7 1    
    13    9    8 1    
    14   10    8 1    
    15   57    8 1    
    16   80    9 1    
    17   11   10 1    
    18   12   10 1    
    19   58   10 1    
    20   81   11 1    
    21   13   12 1    
    22   59   12 1    
    23   14   13 1    
    24   22   13 1    
    25   15   14 2    
    26   60   14 1    
    27   16   15 1    
    28   17   16 ar   
    29   22   16 ar   
    30   18   17 1    
    31   19   17 ar   
    32   61   18 1    
    33   62   18 1    
    34   20   19 ar   
    35   21   20 ar   
    36   63   20 1    
    37   22   21 ar   
    38   24   23 1    
    39   40   23 2    
    40   25   24 2    
    41   26   24 am   
    42   27   26 am   
    43   64   26 1    
    44   28   27 2    
    45   29   27 1    
    46   30   29 2    
    47   40   29 1    
    48   31   30 1    
    49   32   31 ar   
    50   38   31 ar   
    51   33   32 ar   
    52   65   32 1    
    53   34   33 1    
    54   35   33 ar   
    55   74   34 1    
    56   75   34 1    
    57   76   34 1    
    58   36   35 1    
    59   37   35 ar   
    60   77   36 1    
    61   78   36 1    
    62   79   36 1    
    63   38   37 ar   
    64   66   37 1    
    65   39   38 1    
    66   40   39 1    
    67   41   39 1    
    68   42   41 1    
    69   67   41 1    
    70   68   41 1    
    71   43   42 1    
    72   44   42 1    
    73   69   42 1    
    74   82   43 1    
    75   45   44 1    
    76   46   44 1    
    77   70   44 1    
    78   83   45 1    
    79   47   46 1    
    80   48   46 1    
    81   71   46 1    
    82   84   47 1    
    83   49   48 1    
    84   72   48 1    
    85   73   48 1    
    86   50   49 1    
    87   51   50 ar   
    88   52   50 ar   
    89   53   50 1    
@<TRIPOS>SUBSTRUCTURE
     1 FAD2001     1 GROUP   
@<TRIPOS>SET

