#    Name: 2bif_ANP_1_INTS_M
#    Modification time : Mon Mar 24 21:01:53 2014

@<TRIPOS>MOLECULE
2bif_ANP_1_INTS_M
   64     0    12     0     0
SMALL
NO_CHARGES


@<TRIPOS>ATOM
      1 Zn         69.9985  -45.6165  -45.2990 Zn        3 ZIC7        0.0000 
      2 Zn         70.0550  -46.8400  -45.5520 Zn       11 ZIL7        0.0000 
      3 Zn         69.9420  -44.3930  -45.0460 Zn        7 ZIP7        0.0000 
      4 NZ         72.0465  -44.9705  -47.7900 N.4       2 LYC4        0.0000 
      5 NZ         71.2330  -46.3630  -47.7250 N.4      10 LYL4        0.0000 
      6 NZ         72.8600  -43.5780  -47.8550 N.4       6 LYP4        0.0000 
      7 N          72.0465  -44.9705  -47.7900 N.am      1 SEC2        0.0000 
      8 N          71.2330  -46.3630  -47.7250 N.am      9 SEL2        0.0000 
      9 N          72.8600  -43.5780  -47.8550 N.am      5 SEP2        0.0000 
     10 Zn         70.9040  -44.8795  -44.6270 Zn        3 ZIC7        0.0000 
     11 Zn         71.8660  -45.3660  -44.2080 Zn       11 ZIL7        0.0000 
     12 N          71.8955  -44.2695  -43.2005 N.am      1 SEC2        0.0000 
     13 N          71.8660  -45.3660  -44.2080 N.am      9 SEL2        0.0000 
     14 N          71.9250  -43.1730  -42.1930 N.am      5 SEP2        0.0000 
     15 NZ         73.4000  -44.2720  -46.7775 N.4       2 LYC4        0.0000 
     16 NZ         73.9400  -44.9660  -45.7000 N.4      10 LYL4        0.0000 
     17 N          75.4095  -45.4035  -45.7790 N.am      1 SEC2        0.0000 
     18 N          73.9400  -44.9660  -45.7000 N.am      9 SEL2        0.0000 
     19 N          76.8790  -45.8410  -45.8580 N.am      5 SEP2        0.0000 
     20 N          74.1930  -43.9075  -44.5345 N.am      1 SEC2        0.0000 
     21 N          74.4460  -42.8490  -43.3690 N.am      5 SEP2        0.0000 
     22 N          73.4000  -44.2720  -46.7775 N.am      1 SEC2        0.0000 
     23 N          72.9495  -44.8405  -40.4410 N.am      1 SEC2        0.0000 
     24 N          73.3240  -45.9110  -41.3540 N.am      9 SEL2        0.0000 
     25 N          72.5750  -43.7700  -39.5280 N.am      5 SEP2        0.0000 
     26 N          72.4130  -47.1865  -40.7065 N.am      1 SEC2        0.0000 
     27 N          71.5020  -48.4620  -40.0590 N.am      5 SEP2        0.0000 
     28 N          75.3015  -45.5865  -43.5950 N.am      1 SEC2        0.0000 
     29 N          74.0550  -46.5400  -43.6760 N.am      9 SEL2        0.0000 
     30 N          76.5480  -44.6330  -43.5140 N.am      5 SEP2        0.0000 
     31 CA         75.7820  -45.8775  -41.1595 C.3       4 GLC5        0.0000 
     32 CA         75.3800  -47.6440  -40.1030 C.3      12 GLL5        0.0000 
     33 CA         76.1840  -44.1110  -42.2160 C.3       8 GLP5        0.0000 
     34 CA         75.0020  -45.9300  -39.1995 C.3       4 GLC5        0.0000 
     35 CA         74.6240  -44.2160  -38.2960 C.3       8 GLP5        0.0000 
     36 CA         73.4385  -47.3635  -39.1050 C.3       4 GLC5        0.0000 
     37 CA         71.4970  -47.0830  -38.1070 C.3       8 GLP5        0.0000 
     38 CA         78.0625  -49.2090  -41.5430 C.3       4 GLC5        0.0000 
     39 CA         76.8870  -48.1340  -39.9920 C.3      12 GLL5        0.0000 
     40 CA         79.2380  -50.2840  -43.0940 C.3       8 GLP5        0.0000 
     41 CA         77.4480  -50.6735  -38.6700 C.3       4 GLC5        0.0000 
     42 CA         77.4100  -48.4700  -38.5060 C.3      12 GLL5        0.0000 
     43 CA         77.4860  -52.8770  -38.8340 C.3       8 GLP5        0.0000 
     44 CA         76.0590  -49.1175  -36.9875 C.3       4 GLC5        0.0000 
     45 CA         74.7080  -49.7650  -35.4690 C.3       8 GLP5        0.0000 
     46 CA         76.6935  -46.0840  -37.0360 C.3       4 GLC5        0.0000 
     47 CA         78.1420  -47.1440  -38.0780 C.3      12 GLL5        0.0000 
     48 CA         75.2450  -45.0240  -35.9940 C.3       8 GLP5        0.0000 
     49 CA         79.2300  -45.6580  -36.7960 C.3       4 GLC5        0.0000 
     50 CA         80.3180  -44.1720  -35.5140 C.3       8 GLP5        0.0000 
     51 CA         82.4960  -45.0660  -43.9090 C.3       4 GLC5        0.0000 
     52 CA         81.2440  -44.5270  -42.2480 C.3      12 GLL5        0.0000 
     53 CA         83.7480  -45.6050  -45.5700 C.3       8 GLP5        0.0000 
     54 CA         82.6175  -45.9690  -42.5945 C.3       4 GLC5        0.0000 
     55 CA         83.9910  -47.4110  -42.9410 C.3       8 GLP5        0.0000 
     56 CA         82.2885  -43.9465  -40.7905 C.3       4 GLC5        0.0000 
     57 CA         83.3330  -43.3660  -39.3330 C.3       8 GLP5        0.0000 
     58 N          80.4010  -46.7865  -42.4245 N.am      1 SEC2        0.0000 
     59 N          80.4510  -45.3680  -41.5920 N.am      9 SEL2        0.0000 
     60 N          80.3510  -48.2050  -43.2570 N.am      5 SEP2        0.0000 
     61 CA         77.9210  -44.0767  -41.3430 C.3       4 GLC5        0.0000 
     62 CA         79.6970  -44.7460  -40.6010 C.3      12 GLL5        0.0000 
     63 CA         81.6107  -43.6036  -39.9993 C.3       4 GLC5        0.0000 
     64 CA         79.6190  -43.3390  -40.3390 C.3      12 GLL5        0.0000 
@<TRIPOS>BOND
@<TRIPOS>SUBSTRUCTURE
     1 SEC2        7 GROUP        1 X    SEC  0     ROOT SEC X 2
     2 LYC4        4 GROUP        1 X    LYC  0     **** LYC X 4
     3 ZIC7        1 GROUP        1 X    ZIC  0     **** ZIC X 5
     4 GLC5       31 GROUP        1 X    GLC  0     **** GLC X 6
     5 SEP2        9 GROUP        1 Y    SEP  0     ROOT SEP Y 9
     6 LYP4        6 GROUP        1 Y    LYP  0     **** LYP Y 11
     7 ZIP7        3 GROUP        1 Y    ZIP  0     **** ZIP Y 12
     8 GLP5       33 GROUP        1 Y    GLP  0     **** GLP Y 13
     9 SEL2        8 GROUP        1 Z    SEL  0     ROOT SEL Z 16
    10 LYL4        5 GROUP        1 Z    LYL  0     **** LYL Z 18
    11 ZIL7        2 GROUP        1 Z    ZIL  0     **** ZIL Z 19
    12 GLL5       32 GROUP        1 Z    GLL  0     **** GLL Z 20
@<TRIPOS>SET

