#    Name: 2bif_ANP_1_ligand
#    Modification time : Mon Mar 24 21:01:54 2014

@<TRIPOS>MOLECULE
2bif_ANP_1_ligand
   43    45     1     0     0
SMALL
NO_CHARGES


@<TRIPOS>ATOM
      1 PG         71.1180  -47.2360  -46.5370 P.3       1 ANP500      0.0000 
      2 O1G        70.0550  -46.8400  -45.5520 O.co2     1 ANP500      0.0000 
      3 O2G        71.2330  -46.3630  -47.7250 O.co2     1 ANP500      0.0000 
      4 O3G        71.2180  -48.6530  -46.7970 O.co2     1 ANP500      0.0000 
      5 PB         73.1330  -45.8750  -44.8320 P.3       1 ANP500      0.0000 
      6 O1B        71.8660  -45.3660  -44.2080 O.co2     1 ANP500      0.0000 
      7 O2B        73.9400  -44.9660  -45.7000 O.co2     1 ANP500      0.0000 
      8 N3B        72.5990  -47.1230  -45.8020 N.4       1 ANP500      0.0000 
      9 PA         73.7400  -47.0910  -42.1730 P.3       1 ANP500      0.0000 
     10 O1A        72.7980  -48.2530  -42.3120 O.co2     1 ANP500      0.0000 
     11 O2A        73.3240  -45.9110  -41.3540 O.co2     1 ANP500      0.0000 
     12 O3A        74.0550  -46.5400  -43.6760 O.3       1 ANP500      0.0000 
     13 O5'        75.1340  -47.5700  -41.4890 O.3       1 ANP500      0.0000 
     14 C5'        75.3800  -47.6440  -40.1030 C.3       1 ANP500      0.0000 
     15 C4'        76.8870  -48.1340  -39.9920 C.3       1 ANP500      0.0000 
     16 O4'        77.7230  -47.1510  -40.5440 O.3       1 ANP500      0.0000 
     17 C3'        77.4100  -48.4700  -38.5060 C.3       1 ANP500      0.0000 
     18 O3'        78.3040  -49.6110  -38.5580 O.3       1 ANP500      0.0000 
     19 C2'        78.1420  -47.1440  -38.0780 C.3       1 ANP500      0.0000 
     20 O2'        79.1260  -47.3070  -36.9940 O.3       1 ANP500      0.0000 
     21 C1'        78.6280  -46.8000  -39.5250 C.3       1 ANP500      0.0000 
     22 N9         78.8340  -45.3380  -39.6780 N.pl3     1 ANP500      0.0000 
     23 C8         78.3500  -44.2760  -38.9110 C.2       1 ANP500      0.0000 
     24 N7         78.7820  -43.0620  -39.2390 N.2       1 ANP500      0.0000 
     25 C5         79.6190  -43.3390  -40.3390 C.ar      1 ANP500      0.0000 
     26 C6         80.5410  -42.5340  -41.1210 C.ar      1 ANP500      0.0000 
     27 N6         80.6790  -41.0770  -40.8570 N.pl3     1 ANP500      0.0000 
     28 N1         81.2760  -43.1790  -42.1080 N.ar      1 ANP500      0.0000 
     29 C2         81.2440  -44.5270  -42.2480 C.ar      1 ANP500      0.0000 
     30 N3         80.4510  -45.3680  -41.5920 N.ar      1 ANP500      0.0000 
     31 C4         79.6970  -44.7460  -40.6010 C.ar      1 ANP500      0.0000 
     32 H          74.7850  -48.3799  -39.5986 H         1 ANP500      0.0000 
     33 H          75.3334  -46.6949  -39.6060 H         1 ANP500      0.0000 
     34 H          76.9634  -49.0656  -40.5615 H         1 ANP500      0.0000 
     35 H          76.5624  -48.5952  -37.9089 H         1 ANP500      0.0000 
     36 H          77.3402  -46.4543  -37.8672 H         1 ANP500      0.0000 
     37 H          79.5911  -47.2861  -39.6724 H         1 ANP500      0.0000 
     38 H          77.7038  -44.4553  -38.1504 H         1 ANP500      0.0000 
     39 H          80.4903  -40.7796  -39.9211 H         1 ANP500      0.0000 
     40 H          80.9493  -40.5122  -41.6368 H         1 ANP500      0.0000 
     41 H          81.9385  -44.9516  -42.9696 H         1 ANP500      0.0000 
     42 H          79.0061  -49.4209  -37.8717 H         1 ANP500      0.0000 
     43 H          79.8116  -46.5979  -37.1582 H         1 ANP500      0.0000 
@<TRIPOS>BOND
     1    2    1 ar   
     2    3    1 ar   
     3    4    1 ar   
     4    8    1 1    
     5    6    5 ar   
     6    7    5 ar   
     7    8    5 1    
     8   12    5 1    
     9   10    9 ar   
    10   11    9 ar   
    11   12    9 1    
    12   13    9 1    
    13   14   13 1    
    14   15   14 1    
    15   32   14 1    
    16   33   14 1    
    17   16   15 1    
    18   17   15 1    
    19   34   15 1    
    20   21   16 1    
    21   18   17 1    
    22   19   17 1    
    23   35   17 1    
    24   42   18 1    
    25   20   19 1    
    26   21   19 1    
    27   36   19 1    
    28   43   20 1    
    29   22   21 1    
    30   37   21 1    
    31   23   22 1    
    32   31   22 1    
    33   24   23 2    
    34   38   23 1    
    35   25   24 1    
    36   26   25 ar   
    37   31   25 ar   
    38   27   26 1    
    39   28   26 ar   
    40   39   27 1    
    41   40   27 1    
    42   29   28 ar   
    43   30   29 ar   
    44   41   29 1    
    45   31   30 ar   
@<TRIPOS>SUBSTRUCTURE
     1 ANP500      1 GROUP   
@<TRIPOS>SET

