#    Name: 1ig3_VIB_2_INTS_M
#    Modification time : Tue Mar 25 07:00:52 2014

@<TRIPOS>MOLECULE
1ig3_VIB_2_INTS_M
   49     0     9     0     0
SMALL
NO_CHARGES


@<TRIPOS>ATOM
      1 CA         17.7755   39.0990   24.1470 C.3       3 GLC5        0.0000 
      2 CA         19.3390   39.6510   23.0300 C.3       9 GLL5        0.0000 
      3 CA         16.2120   38.5470   25.2640 C.3       6 GLP5        0.0000 
      4 CA         19.1345   40.2880   24.9230 C.3       3 GLC5        0.0000 
      5 CA         18.9300   40.9250   26.8160 C.3       6 GLP5        0.0000 
      6 O          25.4360   39.2760   20.9225 O.2       1 ALC1        0.0000 
      7 O          23.9870   39.0710   21.4980 O.2       7 ALL1        0.0000 
      8 O          26.8850   39.4810   20.3470 O.2       4 ALP1        0.0000 
      9 O          25.0360   38.6445   22.4635 O.2       1 ALC1        0.0000 
     10 O          26.0850   38.2180   23.4290 O.2       4 ALP1        0.0000 
     11 CA         25.0430   38.4905   17.1305 C.3       3 GLC5        0.0000 
     12 CA         25.6750   40.2260   16.9580 C.3       9 GLL5        0.0000 
     13 CA         24.4110   36.7550   17.3030 C.3       6 GLP5        0.0000 
     14 CA         27.8745   45.3670   18.1070 C.3       3 GLC5        0.0000 
     15 CA         27.0400   44.1140   16.8020 C.3       9 GLL5        0.0000 
     16 CA         28.7090   46.6200   19.4120 C.3       6 GLP5        0.0000 
     17 CA         26.9620   43.8130   20.9780 C.3       3 GLC5        0.0000 
     18 CA         25.5530   43.3650   19.6040 C.3       9 GLL5        0.0000 
     19 CA         28.3710   44.2610   22.3520 C.3       6 GLP5        0.0000 
     20 CA         25.9400   45.3435   19.4285 C.3       3 GLC5        0.0000 
     21 CA         26.3270   47.3220   19.2530 C.3       6 GLP5        0.0000 
     22 CA         23.2380   38.5645   17.9370 C.3       3 GLC5        0.0000 
     23 CA         23.4190   40.0960   18.8720 C.3       9 GLL5        0.0000 
     24 CA         23.0570   37.0330   17.0020 C.3       6 GLP5        0.0000 
     25 N          18.8770   40.8450   20.2775 N.am      2 SEC2        0.0000 
     26 N          20.0340   40.2820   20.6810 N.am      8 SEL2        0.0000 
     27 N          17.7200   41.4080   19.8740 N.am      5 SEP2        0.0000 
     28 CA         19.7305   41.8975   20.3580 C.3       3 GLC5        0.0000 
     29 CA         21.0180   40.3880   19.6760 C.3       9 GLL5        0.0000 
     30 CA         18.4430   43.4070   21.0400 C.3       6 GLP5        0.0000 
     31 CA         19.7580   40.0890   18.2580 C.3       3 GLC5        0.0000 
     32 CA         18.4980   39.7900   16.8400 C.3       6 GLP5        0.0000 
     33 CA         20.0282   38.0305   21.5663 C.3       3 GLC5        0.0000 
     34 CA         20.3740   39.7670   21.9510 C.3       9 GLL5        0.0000 
     35 CA         20.2000   36.3520   20.6420 C.3       6 GLP5        0.0000 
     36 CA         18.6227   41.0070   21.7093 C.3       3 GLC5        0.0000 
     37 CA         17.3890   42.3050   20.9280 C.3       6 GLP5        0.0000 
     38 CA         26.8270   39.2458   17.8350 C.3       3 GLC5        0.0000 
     39 CA         25.3950   41.2550   18.0460 C.3       9 GLL5        0.0000 
     40 CA         28.1190   37.7510   18.1680 C.3       6 GLP5        0.0000 
     41 CA         25.3220   43.2127   16.2305 C.3       3 GLC5        0.0000 
     42 CA         27.3760   42.7450   17.4460 C.3       9 GLL5        0.0000 
     43 CA         23.4360   42.9960   15.3370 C.3       6 GLP5        0.0000 
     44 CA         26.0367   41.7218   21.2353 C.3       3 GLC5        0.0000 
     45 CA         27.1420   40.6990   22.8080 C.3       6 GLP5        0.0000 
     46 CA         24.6430   42.2729   16.6047 C.3       3 GLC5        0.0000 
     47 CA         26.1650   42.3590   18.2430 C.3       9 GLL5        0.0000 
     48 CA         20.9829   38.2049   20.3846 C.3       3 GLC5        0.0000 
     49 CA         22.3520   39.9850   19.9420 C.3       9 GLL5        0.0000 
@<TRIPOS>BOND
@<TRIPOS>SUBSTRUCTURE
     1 ALC1        6 GROUP        1 X    ALC  0     ROOT ALC X 1
     2 SEC2       25 GROUP        1 X    SEC  0     **** SEC X 2
     3 GLC5        1 GROUP        1 X    GLC  0     **** GLC X 6
     4 ALP1        8 GROUP        1 Y    ALP  0     ROOT ALP Y 8
     5 SEP2       27 GROUP        1 Y    SEP  0     **** SEP Y 9
     6 GLP5        3 GROUP        1 Y    GLP  0     **** GLP Y 13
     7 ALL1        7 GROUP        1 Z    ALL  0     ROOT ALL Z 15
     8 SEL2       26 GROUP        1 Z    SEL  0     **** SEL Z 16
     9 GLL5        2 GROUP        1 Z    GLL  0     **** GLL Z 20
@<TRIPOS>SET

