#    Name: 1ig3_VIB_2_ligand
#    Modification time : Tue Mar 25 07:00:52 2014

@<TRIPOS>MOLECULE
1ig3_VIB_2_ligand
   35    36     1     0     0
SMALL
NO_CHARGES


@<TRIPOS>ATOM
      1 CM2        19.3390   39.6510   23.0300 C.3       1 VIB501      0.0000 
      2 N4A        23.9870   39.0710   21.4980 N.pl3     1 VIB501      0.0000 
      3 CM4        25.6750   40.2260   16.9580 C.3       1 VIB501      0.0000 
      4 O1         28.1250   44.5160   15.9890 O.3       1 VIB501      0.0000 
      5 C7         27.0400   44.1140   16.8020 C.3       1 VIB501      0.0000 
      6 C6         27.3760   42.7450   17.4460 C.3       1 VIB501      0.0000 
      7 C2         24.3100   42.1240   19.7210 C.2       1 VIB501      0.0000 
      8 S1         25.5530   43.3650   19.6040 S.3       1 VIB501      0.0000 
      9 C5         26.1650   42.3590   18.2430 C.2       1 VIB501      0.0000 
     10 C4         25.3950   41.2550   18.0460 C.2       1 VIB501      0.0000 
     11 N3         24.4090   41.1850   18.8730 N.pl3     1 VIB501      0.0000 
     12 C7A        23.4190   40.0960   18.8720 C.3       1 VIB501      0.0000 
     13 C4A        22.6750   39.4700   21.2150 C.ar      1 VIB501      0.0000 
     14 N3A        21.6930   39.3680   22.2080 N.ar      1 VIB501      0.0000 
     15 C2A        20.3740   39.7670   21.9510 C.ar      1 VIB501      0.0000 
     16 N1A        20.0340   40.2820   20.6810 N.ar      1 VIB501      0.0000 
     17 C6A        21.0180   40.3880   19.6760 C.ar      1 VIB501      0.0000 
     18 C5A        22.3520   39.9850   19.9420 C.ar      1 VIB501      0.0000 
     19 H          24.7075   39.5222   20.9713 H         1 VIB501      0.0000 
     20 H          24.0912   38.3690   22.2025 H         1 VIB501      0.0000 
     21 H          26.1164   43.9831   16.2336 H         1 VIB501      0.0000 
     22 H          26.8462   44.8136   17.6183 H         1 VIB501      0.0000 
     23 H          28.2257   42.8654   18.0836 H         1 VIB501      0.0000 
     24 H          27.5583   42.0354   16.6674 H         1 VIB501      0.0000 
     25 H          23.7071   42.3550   20.4508 H         1 VIB501      0.0000 
     26 H          23.9735   39.0933   18.8427 H         1 VIB501      0.0000 
     27 H          22.8835   40.0851   17.8587 H         1 VIB501      0.0000 
     28 H          20.7737   40.7546   18.7552 H         1 VIB501      0.0000 
     29 H          19.2293   38.7064   23.3394 H         1 VIB501      0.0000 
     30 H          19.5772   40.1968   23.8334 H         1 VIB501      0.0000 
     31 H          18.4415   39.9636   22.7189 H         1 VIB501      0.0000 
     32 H          26.5769   39.8077   17.0657 H         1 VIB501      0.0000 
     33 H          25.0047   39.4839   16.9673 H         1 VIB501      0.0000 
     34 H          25.6482   40.6338   16.0453 H         1 VIB501      0.0000 
     35 H          28.7024   45.0934   16.5664 H         1 VIB501      0.0000 
@<TRIPOS>BOND
     1   15    1 1    
     2   29    1 1    
     3   30    1 1    
     4   31    1 1    
     5   13    2 1    
     6   19    2 1    
     7   20    2 1    
     8   10    3 1    
     9   32    3 1    
    10   33    3 1    
    11   34    3 1    
    12    5    4 1    
    13   35    4 1    
    14    6    5 1    
    15   21    5 1    
    16   22    5 1    
    17    9    6 1    
    18   23    6 1    
    19   24    6 1    
    20    8    7 1    
    21   11    7 2    
    22   25    7 1    
    23    9    8 1    
    24   10    9 2    
    25   11   10 1    
    26   12   11 1    
    27   18   12 1    
    28   26   12 1    
    29   27   12 1    
    30   14   13 ar   
    31   18   13 ar   
    32   15   14 ar   
    33   16   15 ar   
    34   17   16 ar   
    35   18   17 ar   
    36   28   17 1    
@<TRIPOS>SUBSTRUCTURE
     1 VIB501      1 GROUP   
@<TRIPOS>SET

