#    Name: 4loq_SB4_1_INTS_M
#    Modification time : Tue Mar 25 11:21:45 2014

@<TRIPOS>MOLECULE
4loq_SB4_1_INTS_M
   66     0    12     0     0
SMALL
NO_CHARGES


@<TRIPOS>ATOM
      1 OD1         1.8040   -5.0200   33.3610 O.co2     3 ASC3        0.0000 
      2 OD1         2.9580   -5.9150   34.1220 O.co2    11 ASL3        0.0000 
      3 OD1         0.6500   -4.1250   32.6000 O.co2     7 ASP3        0.0000 
      4 CA          3.0590   -3.8315   33.0810 C.3       4 GLC5        0.0000 
      5 CA          4.1050   -5.5180   33.3140 C.3      12 GLL5        0.0000 
      6 CA          2.0130   -2.1450   32.8480 C.3       8 GLP5        0.0000 
      7 CA         12.3210   -6.9615   36.6160 C.3       4 GLC5        0.0000 
      8 CA         11.5910   -8.8740   36.9660 C.3      12 GLL5        0.0000 
      9 CA         13.0510   -5.0490   36.2660 C.3       8 GLP5        0.0000 
     10 CA         14.6920   -9.0505   38.9520 C.3       4 GLC5        0.0000 
     11 CA         12.5300   -9.1090   38.7930 C.3      12 GLL5        0.0000 
     12 CA         16.8540   -8.9920   39.1110 C.3       8 GLP5        0.0000 
     13 CA         13.0240   -9.3225   40.7490 C.3       4 GLC5        0.0000 
     14 CA         13.5180   -9.5360   42.7050 C.3       8 GLP5        0.0000 
     15 CA          6.5540   -8.4625   38.5930 C.3       4 GLC5        0.0000 
     16 CA          6.8350   -6.7850   37.5100 C.3      12 GLL5        0.0000 
     17 CA          6.2730  -10.1400   39.6760 C.3       8 GLP5        0.0000 
     18 CA          5.8975   -7.9485   39.4510 C.3       4 GLC5        0.0000 
     19 CA          5.5220   -5.7570   39.2260 C.3      12 GLL5        0.0000 
     20 CA          6.7560   -6.4905   40.3705 C.3       4 GLC5        0.0000 
     21 CA          7.9900   -7.2240   41.5150 C.3       8 GLP5        0.0000 
     22 CA          5.2455   -5.4665   41.2330 C.3       4 GLC5        0.0000 
     23 CA          4.9690   -5.1760   43.2400 C.3       8 GLP5        0.0000 
     24 N           6.4470   -3.5230   40.3635 N.am      2 SEC2        0.0000 
     25 N           6.4800   -4.8720   39.5150 N.am     10 SEL2        0.0000 
     26 N           6.4140   -2.1740   41.2120 N.am      6 SEP2        0.0000 
     27 CA          7.6555   -2.9145   38.8215 C.3       4 GLC5        0.0000 
     28 CA          7.6380   -4.8880   38.7130 C.3      12 GLL5        0.0000 
     29 CA          7.6730   -0.9410   38.9300 C.3       8 GLP5        0.0000 
     30 O           4.1060   -4.2095   40.0885 O.2       1 ALC1        0.0000 
     31 O           4.3930   -5.7000   39.9650 O.2       9 ALL1        0.0000 
     32 O           3.8190   -2.7190   40.2120 O.2       5 ALP1        0.0000 
     33 N           8.4455   -9.7795   34.1390 N.am      2 SEC2        0.0000 
     34 N           7.9730   -9.0760   35.1440 N.am     10 SEL2        0.0000 
     35 N           8.9180  -10.4830   33.1340 N.am      6 SEP2        0.0000 
     36 CA          7.0047   -6.3637   33.9515 C.3       4 GLC5        0.0000 
     37 CA          5.3330   -5.9420   34.1320 C.3      12 GLL5        0.0000 
     38 CA          8.8280   -6.2090   33.3210 C.3       8 GLP5        0.0000 
     39 CA          8.0452   -9.5087   39.2182 C.3       4 GLC5        0.0000 
     40 CA          9.2050   -8.7910   38.4480 C.3      12 GLL5        0.0000 
     41 CA          8.9038   -8.0508   40.1377 C.3       4 GLC5        0.0000 
     42 CA         10.6103   -7.3582   39.3083 C.3       4 GLC5        0.0000 
     43 CA         10.4300   -8.9640   39.0730 C.3      12 GLL5        0.0000 
     44 CA         11.4030   -5.8390   39.8560 C.3       8 GLP5        0.0000 
     45 CA         10.9570  -10.8682   38.4540 C.3       4 GLC5        0.0000 
     46 CA         11.5980   -8.9960   38.3250 C.3      12 GLL5        0.0000 
     47 CA          9.8500  -12.6840   38.3490 C.3       8 GLP5        0.0000 
     48 CA         13.1855  -10.6423   38.7650 C.3       4 GLC5        0.0000 
     49 CA         14.3070  -12.2320   38.9710 C.3       8 GLP5        0.0000 
     50 CA         10.6167  -10.7540   36.2788 C.3       4 GLC5        0.0000 
     51 CA         10.2460  -12.7130   35.9040 C.3       8 GLP5        0.0000 
     52 CA          9.3057   -7.4522   35.0120 C.3       4 GLC5        0.0000 
     53 CA         10.3840   -8.7160   36.3410 C.3      12 GLL5        0.0000 
     54 CA          9.6751  -10.7301   38.1309 C.3       4 GLC5        0.0000 
     55 CA          9.1830   -8.6750   37.0650 C.3      12 GLL5        0.0000 
     56 CA         11.7326   -7.4305   39.0376 C.3       4 GLC5        0.0000 
     57 CA          9.3852   -4.2562   37.5575 C.3       4 GLC5        0.0000 
     58 CA          7.8290   -5.8490   37.7370 C.3      12 GLL5        0.0000 
     59 CA         11.0370   -3.1440   36.8900 C.3       8 GLP5        0.0000 
     60 CA          9.5682   -5.6037   39.0405 C.3       4 GLC5        0.0000 
     61 CA          7.7375   -6.4132   39.8416 C.3       4 GLC5        0.0000 
     62 CA          8.1977   -7.1452   34.8630 C.3       4 GLC5        0.0000 
     63 CA          7.0450   -7.6690   36.4940 C.3      12 GLL5        0.0000 
     64 CA          6.9704   -9.7364   37.0471 C.3       4 GLC5        0.0000 
     65 CA          8.0900   -8.4940   36.3160 C.3      12 GLL5        0.0000 
     66 CA          6.1000  -11.3460   37.5020 C.3       8 GLP5        0.0000 
@<TRIPOS>BOND
@<TRIPOS>SUBSTRUCTURE
     1 ALC1       30 GROUP        1 X    ALC  0     ROOT ALC X 1
     2 SEC2       24 GROUP        1 X    SEC  0     **** SEC X 2
     3 ASC3        1 GROUP        1 X    ASC  0     **** ASC X 3
     4 GLC5        4 GROUP        1 X    GLC  0     **** GLC X 6
     5 ALP1       32 GROUP        1 Y    ALP  0     ROOT ALP Y 8
     6 SEP2       26 GROUP        1 Y    SEP  0     **** SEP Y 9
     7 ASP3        3 GROUP        1 Y    ASP  0     **** ASP Y 10
     8 GLP5        6 GROUP        1 Y    GLP  0     **** GLP Y 13
     9 ALL1       31 GROUP        1 Z    ALL  0     ROOT ALL Z 15
    10 SEL2       25 GROUP        1 Z    SEL  0     **** SEL Z 16
    11 ASL3        2 GROUP        1 Z    ASL  0     **** ASL Z 17
    12 GLL5        5 GROUP        1 Z    GLL  0     **** GLL Z 20
@<TRIPOS>SET

