#    Name: 4loq_SB4_1_ligand
#    Modification time : Tue Mar 25 11:21:45 2014

@<TRIPOS>MOLECULE
4loq_SB4_1_ligand
   43    46     1     0     0
SMALL
NO_CHARGES


@<TRIPOS>ATOM
      1 CA1         4.0790   -8.0420   34.3040 C.3       1 SB4401      0.0000 
      2 CA2         2.7920   -7.3990   34.1890 C.3       1 SB4401      0.0000 
      3 NA3         2.9580   -5.9150   34.1220 N.4       1 SB4401      0.0000 
      4 CA4         4.1050   -5.5180   33.3140 C.3       1 SB4401      0.0000 
      5 CA5         5.3330   -5.9420   34.1320 C.3       1 SB4401      0.0000 
      6 CA6         5.0300   -7.0950   35.0320 C.3       1 SB4401      0.0000 
      7 CB1         9.2050   -8.7910   38.4480 C.ar      1 SB4401      0.0000 
      8 CB2        10.4300   -8.9640   39.0730 C.ar      1 SB4401      0.0000 
      9 CB3        11.5980   -8.9960   38.3250 C.ar      1 SB4401      0.0000 
     10 CB4        11.5910   -8.8740   36.9660 C.ar      1 SB4401      0.0000 
     11 CB5        10.3840   -8.7160   36.3410 C.ar      1 SB4401      0.0000 
     12 CB6         9.1830   -8.6750   37.0650 C.ar      1 SB4401      0.0000 
     13 FB7        12.5300   -9.1090   38.7930 F         1 SB4401      0.0000 
     14 CC1         7.8290   -5.8490   37.7370 C.ar      1 SB4401      0.0000 
     15 CC2         6.8350   -6.7850   37.5100 C.ar      1 SB4401      0.0000 
     16 NC3         5.7240   -6.6750   38.2530 N.ar      1 SB4401      0.0000 
     17 CC4         5.5220   -5.7570   39.2260 C.ar      1 SB4401      0.0000 
     18 NC5         6.4800   -4.8720   39.5150 N.ar      1 SB4401      0.0000 
     19 CC6         7.6380   -4.8880   38.7130 C.ar      1 SB4401      0.0000 
     20 NC7         4.3930   -5.7000   39.9650 N.pl3     1 SB4401      0.0000 
     21 ND1         6.2880   -7.7730   35.3770 N.pl3     1 SB4401      0.0000 
     22 CD2         6.8590   -8.6640   34.5590 C.2       1 SB4401      0.0000 
     23 ND3         7.9730   -9.0760   35.1440 N.2       1 SB4401      0.0000 
     24 CD4         8.0900   -8.4940   36.3160 C.2       1 SB4401      0.0000 
     25 CD5         7.0450   -7.6690   36.4940 C.2       1 SB4401      0.0000 
     26 H           4.5039   -8.2638   33.3260 H         1 SB4401      0.0000 
     27 H           4.0146   -8.9654   34.8779 H         1 SB4401      0.0000 
     28 H           2.1539   -7.6447   35.0504 H         1 SB4401      0.0000 
     29 H           2.2656   -7.7369   33.2844 H         1 SB4401      0.0000 
     30 H           4.1407   -4.4553   33.1739 H         1 SB4401      0.0000 
     31 H           4.1261   -6.0373   32.3758 H         1 SB4401      0.0000 
     32 H           5.6700   -5.0821   34.7223 H         1 SB4401      0.0000 
     33 H           6.1374   -6.2084   33.4367 H         1 SB4401      0.0000 
     34 H           4.5424   -6.7320   35.9158 H         1 SB4401      0.0000 
     35 H           8.3437   -8.7500   38.9881 H         1 SB4401      0.0000 
     36 H          10.4740   -9.0694   40.0980 H         1 SB4401      0.0000 
     37 H          12.4610   -8.8996   36.4288 H         1 SB4401      0.0000 
     38 H          10.3401   -8.6228   35.3054 H         1 SB4401      0.0000 
     39 H           8.6944   -5.8682   37.1891 H         1 SB4401      0.0000 
     40 H           8.3580   -4.1569   38.8667 H         1 SB4401      0.0000 
     41 H           4.1517   -4.8012   40.3311 H         1 SB4401      0.0000 
     42 H           3.8987   -6.5616   40.0804 H         1 SB4401      0.0000 
     43 H           6.5160   -8.9485   33.7024 H         1 SB4401      0.0000 
@<TRIPOS>BOND
     1    2    1 1    
     2    6    1 1    
     3   26    1 1    
     4   27    1 1    
     5    3    2 1    
     6   28    2 1    
     7   29    2 1    
     8    4    3 1    
     9    5    4 1    
    10   30    4 1    
    11   31    4 1    
    12    6    5 1    
    13   32    5 1    
    14   33    5 1    
    15   21    6 1    
    16   34    6 1    
    17    8    7 ar   
    18   12    7 ar   
    19   35    7 1    
    20    9    8 ar   
    21   36    8 1    
    22   10    9 ar   
    23   13    9 1    
    24   11   10 ar   
    25   37   10 1    
    26   12   11 ar   
    27   38   11 1    
    28   24   12 1    
    29   15   14 ar   
    30   19   14 ar   
    31   39   14 1    
    32   16   15 ar   
    33   25   15 1    
    34   17   16 ar   
    35   18   17 ar   
    36   20   17 1    
    37   19   18 ar   
    38   40   19 1    
    39   41   20 1    
    40   42   20 1    
    41   22   21 1    
    42   25   21 1    
    43   23   22 2    
    44   43   22 1    
    45   24   23 1    
    46   25   24 2    
@<TRIPOS>SUBSTRUCTURE
     1 SB4401      1 GROUP   
@<TRIPOS>SET

