#    Name: 3qar_QAR_1_INTS_M
#    Modification time : Tue Mar 25 09:15:59 2014

@<TRIPOS>MOLECULE
3qar_QAR_1_INTS_M
   53     0     9     0     0
SMALL
NO_CHARGES


@<TRIPOS>ATOM
      1 N          18.5795   11.1980   24.5355 N.am      2 SEC2        0.0000 
      2 N          19.6800   12.2810   24.2590 N.am      8 SEL2        0.0000 
      3 N          17.4790   10.1150   24.8120 N.am      5 SEP2        0.0000 
      4 CA         21.1180   14.2455   20.3435 C.3       3 GLC5        0.0000 
      5 CA         21.5510   15.9450   21.4520 C.3       9 GLL5        0.0000 
      6 CA         20.6850   12.5460   19.2350 C.3       6 GLP5        0.0000 
      7 CA         21.1640   16.0440   23.4310 C.3       3 GLC5        0.0000 
      8 CA         20.7770   16.1430   25.4100 C.3       6 GLP5        0.0000 
      9 CA         20.8775   19.0930   22.6680 C.3       3 GLC5        0.0000 
     10 CA         20.3610   18.0010   20.9600 C.3       9 GLL5        0.0000 
     11 CA         21.3940   20.1850   24.3760 C.3       6 GLP5        0.0000 
     12 CA         25.5010   13.2615   23.8030 C.3       3 GLC5        0.0000 
     13 CA         25.7040   11.9970   22.1020 C.3       9 GLL5        0.0000 
     14 CA         25.2980   14.5260   25.5040 C.3       6 GLP5        0.0000 
     15 CA         27.9230   10.6100   20.4720 C.3       3 GLC5        0.0000 
     16 CA         26.9300   12.0110   21.5910 C.3       9 GLL5        0.0000 
     17 CA         28.9160    9.2090   19.3530 C.3       6 GLP5        0.0000 
     18 O          28.0340   13.3310   19.4960 O.2       1 ALC1        0.0000 
     19 O          26.9940   13.0170   20.7180 O.2       7 ALL1        0.0000 
     20 O          29.0740   13.6450   18.2740 O.2       4 ALP1        0.0000 
     21 CA         20.9115   13.2425   20.9600 C.3       3 GLC5        0.0000 
     22 CA         21.1380   13.9390   22.6850 C.3       9 GLL5        0.0000 
     23 CA         20.9575   15.0410   24.0475 C.3       3 GLC5        0.0000 
     24 CA         22.8725   15.1680   23.2975 C.3       3 GLC5        0.0000 
     25 CA         24.6070   16.3970   23.9100 C.3       6 GLP5        0.0000 
     26 CA         20.8925   14.1490   24.7945 C.3       3 GLC5        0.0000 
     27 CA         21.0080   12.1550   24.1790 C.3       9 GLL5        0.0000 
     28 CA         22.5900    9.8295   25.6445 C.3       3 GLC5        0.0000 
     29 CA         21.6990   11.0710   24.9810 C.3       9 GLL5        0.0000 
     30 CA         23.4810    8.5880   26.3080 C.3       6 GLP5        0.0000 
     31 CA         20.2430   10.4285   26.2750 C.3       3 GLC5        0.0000 
     32 CA         18.7870    9.7860   27.5690 C.3       6 GLP5        0.0000 
     33 CA         21.3485   12.1325   26.5780 C.3       3 GLC5        0.0000 
     34 CA         20.9980   13.1940   28.1750 C.3       6 GLP5        0.0000 
     35 CA         18.3720   11.3430   23.0160 C.3       3 GLC5        0.0000 
     36 CA         19.0790   13.2460   23.5510 C.3       9 GLL5        0.0000 
     37 CA         17.6650    9.4400   22.4810 C.3       6 GLP5        0.0000 
     38 CA         19.9280   14.6945   24.4805 C.3       3 GLC5        0.0000 
     39 O          16.7385   12.8390   24.5350 O.2       1 ALC1        0.0000 
     40 O          17.7640   13.3650   23.6380 O.2       7 ALL1        0.0000 
     41 O          15.7130   12.3130   25.4320 O.2       4 ALP1        0.0000 
     42 CA         23.3505   16.2840   22.4933 C.3       3 GLC5        0.0000 
     43 CA         19.8597   17.2320   23.1045 C.3       3 GLC5        0.0000 
     44 CA         20.4100   16.7490   21.5800 C.3       9 GLL5        0.0000 
     45 CA         19.3340   17.0890   24.9390 C.3       6 GLP5        0.0000 
     46 CA         25.7015   11.1485   20.4607 C.3       3 GLC5        0.0000 
     47 CA         25.0860   10.2930   19.0750 C.3       6 GLP5        0.0000 
     48 CA         27.6745   13.0000   22.6713 C.3       3 GLC5        0.0000 
     49 CA         29.0320   13.9960   23.4960 C.3       6 GLP5        0.0000 
     50 CA         22.2722   10.4905   23.1080 C.3       3 GLC5        0.0000 
     51 CA         23.1910    9.3680   21.6360 C.3       6 GLP5        0.0000 
     52 CA         22.6698   12.8805   25.3740 C.3       3 GLC5        0.0000 
     53 CA         23.9860   14.1480   26.1680 C.3       6 GLP5        0.0000 
@<TRIPOS>BOND
@<TRIPOS>SUBSTRUCTURE
     1 ALC1       18 GROUP        1 X    ALC  0     ROOT ALC X 1
     2 SEC2        1 GROUP        1 X    SEC  0     **** SEC X 2
     3 GLC5        4 GROUP        1 X    GLC  0     **** GLC X 6
     4 ALP1       20 GROUP        1 Y    ALP  0     ROOT ALP Y 8
     5 SEP2        3 GROUP        1 Y    SEP  0     **** SEP Y 9
     6 GLP5        6 GROUP        1 Y    GLP  0     **** GLP Y 13
     7 ALL1       19 GROUP        1 Z    ALL  0     ROOT ALL Z 15
     8 SEL2        2 GROUP        1 Z    SEL  0     **** SEL Z 16
     9 GLL5        5 GROUP        1 Z    GLL  0     **** GLL Z 20
@<TRIPOS>SET

