#    Name: 3qar_QAR_1_ligand
#    Modification time : Tue Mar 25 09:15:59 2014

@<TRIPOS>MOLECULE
3qar_QAR_1_ligand
   36    39     1     0     0
SMALL
NO_CHARGES


@<TRIPOS>ATOM
      1 N1         19.6800   12.2810   24.2590 N.ar      1 QAR1103     0.0000 
      2 N3         21.7330   12.9740   23.4020 N.ar      1 QAR1103     0.0000 
      3 C4         21.5510   15.9450   21.4520 C.ar      1 QAR1103     0.0000 
      4 C5         22.6370   16.3970   20.7010 C.ar      1 QAR1103     0.0000 
      5 C6         23.1240   14.4510   21.4780 C.2       1 QAR1103     0.0000 
      6 C7         20.4100   16.7490   21.5800 C.ar      1 QAR1103     0.0000 
      7 C8         20.3610   18.0010   20.9600 C.ar      1 QAR1103     0.0000 
      8 C10        22.5920   17.6500   20.0840 C.ar      1 QAR1103     0.0000 
      9 C13        25.7040   11.9970   22.1020 C.2       1 QAR1103     0.0000 
     10 C14        26.9300   12.0110   21.5910 C.2       1 QAR1103     0.0000 
     11 N8         26.9940   13.0170   20.7180 N.pl3     1 QAR1103     0.0000 
     12 N9         25.9040   13.5980   20.6700 N.2       1 QAR1103     0.0000 
     13 C12        25.0650   13.0040   21.5160 C.2       1 QAR1103     0.0000 
     14 N6         23.7770   13.3100   21.7590 N.pl3     1 QAR1103     0.0000 
     15 N5         23.5790   15.4570   20.7380 N.2       1 QAR1103     0.0000 
     16 C9         21.4560   18.4520   20.2110 C.ar      1 QAR1103     0.0000 
     17 N4         21.8910   14.7400   21.9130 N.pl3     1 QAR1103     0.0000 
     18 C2         21.1380   13.9390   22.6850 C.ar      1 QAR1103     0.0000 
     19 N2         19.8010   14.0720   22.7650 N.ar      1 QAR1103     0.0000 
     20 C3         21.0080   12.1550   24.1790 C.ar      1 QAR1103     0.0000 
     21 C11        21.6990   11.0710   24.9810 C.3       1 QAR1103     0.0000 
     22 C1         19.0790   13.2460   23.5510 C.ar      1 QAR1103     0.0000 
     23 N7         17.7640   13.3650   23.6380 N.pl3     1 QAR1103     0.0000 
     24 H          19.6102   16.4166   22.1300 H         1 QAR1103     0.0000 
     25 H          19.5270   18.5886   21.0522 H         1 QAR1103     0.0000 
     26 H          23.3952   17.9809   19.5368 H         1 QAR1103     0.0000 
     27 H          25.3551   11.3912   22.7531 H         1 QAR1103     0.0000 
     28 H          27.6499   11.4017   21.8108 H         1 QAR1103     0.0000 
     29 H          27.8273   13.2248   20.2057 H         1 QAR1103     0.0000 
     30 H          23.1825   12.5248   22.2510 H         1 QAR1103     0.0000 
     31 H          21.4210   19.3708   19.7572 H         1 QAR1103     0.0000 
     32 H          17.3506   13.0614   24.4964 H         1 QAR1103     0.0000 
     33 H          17.3029   13.7477   22.8374 H         1 QAR1103     0.0000 
     34 H          22.6887   11.0767   24.8376 H         1 QAR1103     0.0000 
     35 H          21.5445   11.1799   25.9630 H         1 QAR1103     0.0000 
     36 H          21.3720   10.1593   24.7321 H         1 QAR1103     0.0000 
@<TRIPOS>BOND
     1   20    1 ar   
     2   22    1 ar   
     3   18    2 ar   
     4   20    2 ar   
     5    4    3 ar   
     6    6    3 ar   
     7   17    3 1    
     8    8    4 ar   
     9   15    4 1    
    10   14    5 1    
    11   15    5 2    
    12   17    5 1    
    13    7    6 ar   
    14   24    6 1    
    15   16    7 ar   
    16   25    7 1    
    17   16    8 ar   
    18   26    8 1    
    19   10    9 2    
    20   13    9 1    
    21   27    9 1    
    22   11   10 1    
    23   28   10 1    
    24   12   11 1    
    25   29   11 1    
    26   13   12 2    
    27   14   13 1    
    28   30   14 1    
    29   31   16 1    
    30   18   17 1    
    31   19   18 ar   
    32   22   19 ar   
    33   21   20 1    
    34   34   21 1    
    35   35   21 1    
    36   36   21 1    
    37   23   22 1    
    38   32   23 1    
    39   33   23 1    
@<TRIPOS>SUBSTRUCTURE
     1 QAR1103     1 GROUP   
@<TRIPOS>SET

