#    Name: 4es0_GLY_CYS_ALA_ARG_SER_GLU_GLY_1_INTS_M
#    Modification time : Mon Mar 24 18:35:46 2014

@<TRIPOS>MOLECULE
4es0_GLY_CYS_ALA_ARG_SER_GLU_GLY_1_INTS_M
   69     0     6     0     0
SMALL
NO_CHARGES


@<TRIPOS>ATOM
      1 CA         -9.9105  -30.4645  -14.9980 C.3       2 GLC5        0.0000 
      2 CA         -9.9740  -30.3370  -12.9010 C.3       6 GLL5        0.0000 
      3 CA         -9.8470  -30.5920  -17.0950 C.3       4 GLP5        0.0000 
      4 CA        -10.8145  -28.8545  -13.4900 C.3       2 GLC5        0.0000 
      5 CA        -11.6550  -27.3720  -14.0790 C.3       4 GLP5        0.0000 
      6 CA        -10.7110  -26.5045  -12.0185 C.3       2 GLC5        0.0000 
      7 CA        -10.7170  -26.8170  -10.0380 C.3       6 GLL5        0.0000 
      8 CA        -10.7050  -26.1920  -13.9990 C.3       4 GLP5        0.0000 
      9 CA         -9.6430  -24.8465  -10.1650 C.3       2 GLC5        0.0000 
     10 CA         -8.5690  -22.8760  -10.2920 C.3       4 GLP5        0.0000 
     11 CA        -13.2995  -24.4600  -10.6615 C.3       2 GLC5        0.0000 
     12 CA        -12.3830  -26.1860  -10.3310 C.3       6 GLL5        0.0000 
     13 CA        -14.2160  -22.7340  -10.9920 C.3       4 GLP5        0.0000 
     14 CA        -12.0190  -26.7790  -12.2050 C.3       2 GLC5        0.0000 
     15 CA        -12.0200  -24.4995   -9.1750 C.3       2 GLC5        0.0000 
     16 CA        -11.6570  -22.8130   -8.0190 C.3       4 GLP5        0.0000 
     17 O          -9.9290  -28.0195   -7.0495 O.2       1 ALC1        0.0000 
     18 O         -11.3280  -28.4240   -7.4230 O.2       5 ALL1        0.0000 
     19 O          -8.5300  -27.6150   -6.6760 O.2       3 ALP1        0.0000 
     20 CA        -13.1825  -27.4410   -4.9865 C.3       2 GLC5        0.0000 
     21 CA        -12.1810  -28.8500   -6.3230 C.3       6 GLL5        0.0000 
     22 CA        -14.1840  -26.0320   -3.6500 C.3       4 GLP5        0.0000 
     23 CA         -9.9945  -29.2795   -4.1000 C.3       2 GLC5        0.0000 
     24 CA        -11.5860  -28.4300   -4.9930 C.3       6 GLL5        0.0000 
     25 CA         -8.4030  -30.1290   -3.2070 C.3       4 GLP5        0.0000 
     26 CA        -12.2955  -27.0025   -4.0330 C.3       2 GLC5        0.0000 
     27 CA        -13.0050  -25.5750   -3.0730 C.3       4 GLP5        0.0000 
     28 CA        -11.8945  -28.4590   -3.0745 C.3       2 GLC5        0.0000 
     29 CA        -12.2030  -28.4880   -1.1560 C.3       4 GLP5        0.0000 
     30 O         -12.6465  -26.0545   -6.9205 O.2       1 ALC1        0.0000 
     31 O         -13.8080  -27.1150   -6.8870 O.2       5 ALL1        0.0000 
     32 O         -11.4850  -24.9940   -6.9540 O.2       3 ALP1        0.0000 
     33 CA        -14.6790  -26.3120   -5.3150 C.3       2 GLC5        0.0000 
     34 CA        -15.1740  -26.5920   -6.9800 C.3       6 GLL5        0.0000 
     35 CA        -13.4540  -24.3415   -6.9440 C.3       2 GLC5        0.0000 
     36 CA        -15.1810  -25.0700   -7.1770 C.3       6 GLL5        0.0000 
     37 CA        -11.7270  -23.6130   -6.7110 C.3       4 GLP5        0.0000 
     38 CA        -18.3595  -24.7115   -7.8830 C.3       2 GLC5        0.0000 
     39 CA        -16.5860  -24.4700   -7.1000 C.3       6 GLL5        0.0000 
     40 CA        -20.1330  -24.9530   -8.6660 C.3       4 GLP5        0.0000 
     41 CA        -15.4060  -22.8425   -9.1380 C.3       2 GLC5        0.0000 
     42 CA        -16.5960  -22.9510   -7.2840 C.3       6 GLL5        0.0000 
     43 CA        -17.2155  -21.1500   -7.2340 C.3       2 GLC5        0.0000 
     44 CA        -17.8350  -19.3490   -7.1840 C.3       4 GLP5        0.0000 
     45 CA        -18.0990  -23.3740   -8.3910 C.3       2 GLC5        0.0000 
     46 CA        -19.6020  -23.7970   -9.4980 C.3       4 GLP5        0.0000 
     47 O         -14.6205  -21.7950   -6.9800 O.2       1 ALC1        0.0000 
     48 O         -15.7370  -22.2630   -6.3160 O.2       5 ALL1        0.0000 
     49 O         -13.5040  -21.3270   -7.6440 O.2       3 ALP1        0.0000 
     50 O         -18.6390  -22.4730   -5.1610 O.2       1 ALC1        0.0000 
     51 O         -17.4210  -21.8580   -4.7720 O.2       5 ALL1        0.0000 
     52 O         -19.8570  -23.0880   -5.5500 O.2       3 ALP1        0.0000 
     53 O         -13.7915  -21.4190   -4.1000 O.2       1 ALC1        0.0000 
     54 O         -15.2720  -21.1520   -4.3610 O.2       5 ALL1        0.0000 
     55 O         -12.3110  -21.6860   -3.8390 O.2       3 ALP1        0.0000 
     56 CA        -15.7840  -27.6705  -13.3320 C.3       2 GLC5        0.0000 
     57 CA        -15.5400  -28.0250  -11.6320 C.3       6 GLL5        0.0000 
     58 CA        -16.0280  -27.3160  -15.0320 C.3       4 GLP5        0.0000 
     59 CA        -19.3065  -30.1030   -7.0415 C.3       2 GLC5        0.0000 
     60 CA        -18.2190  -30.8330   -5.8560 C.3       6 GLL5        0.0000 
     61 CA        -20.3940  -29.3730   -8.2270 C.3       4 GLP5        0.0000 
     62 CA         -9.0043  -26.8428  -10.8705 C.3       2 GLC5        0.0000 
     63 CA        -10.6200  -28.3240   -9.7400 C.3       6 GLL5        0.0000 
     64 CA         -7.3400  -26.1150  -11.8520 C.3       4 GLP5        0.0000 
     65 CA        -15.6242  -25.0600   -5.2873 C.3       2 GLC5        0.0000 
     66 CA        -15.3650  -25.3500   -3.4360 C.3       4 GLP5        0.0000 
     67 CA        -17.3880  -27.2847  -11.6920 C.3       2 GLC5        0.0000 
     68 CA        -16.2160  -28.2320  -10.2720 C.3       6 GLL5        0.0000 
     69 CA        -18.8980  -26.4410  -12.4320 C.3       4 GLP5        0.0000 
@<TRIPOS>BOND
@<TRIPOS>SUBSTRUCTURE
     1 ALC1       17 GROUP        1 X    ALC  0     ROOT ALC X 1
     2 GLC5        1 GROUP        1 X    GLC  0     **** GLC X 6
     3 ALP1       19 GROUP        1 Y    ALP  0     ROOT ALP Y 8
     4 GLP5        3 GROUP        1 Y    GLP  0     **** GLP Y 13
     5 ALL1       18 GROUP        1 Z    ALL  0     ROOT ALL Z 15
     6 GLL5        2 GROUP        1 Z    GLL  0     **** GLL Z 20
@<TRIPOS>SET

