#    Name: 4es0_GLY_CYS_ALA_ARG_SER_GLU_GLY_1_ligand
#    Modification time : Mon Mar 24 18:35:46 2014

@<TRIPOS>MOLECULE
4es0_GLY_CYS_ALA_ARG_SER_GLU_GLY_1_ligand
   87    86     7     0     0
SMALL
NO_CHARGES


@<TRIPOS>ATOM
      1 N         -11.1080  -31.2260  -12.7000 N.4       1 GLY1702     0.0000
      2 CA         -9.9740  -30.3370  -12.9010 C.3       1 GLY1702     0.0000
      3 C          -9.7330  -29.4290  -11.7080 C.2       1 GLY1702     0.0000
      4 O          -8.6030  -29.0030  -11.4660 O.2       1 GLY1702     0.0000
      5 HA2       -10.1298  -29.7013  -13.7910 H         1 GLY1702     0.0000
      6 HA3        -9.0516  -30.9168  -13.0837 H         1 GLY1702     0.0000
      7 HNCA      -11.2592  -31.8196  -13.4904 H         1 GLY1702     0.0000
      8 H         -10.9773  -31.8212  -11.9071 H         1 GLY1702     0.0000
      9 H         -11.9559  -30.7180  -12.5485 H         1 GLY1702     0.0000
     10 N         -10.7880  -29.1230  -10.9540 N.am      2 CYS1703     0.0000
     11 CA        -10.6200  -28.3240   -9.7400 C.3       2 CYS1703     0.0000
     12 C         -11.6340  -28.7310   -8.6790 C.2       2 CYS1703     0.0000
     13 O         -12.6720  -29.3080   -8.9950 O.2       2 CYS1703     0.0000
     14 CB        -10.7170  -26.8170  -10.0380 C.3       2 CYS1703     0.0000
     15 SG        -12.3830  -26.1860  -10.3310 S.3       2 CYS1703     0.0000
     16 HNCA      -11.7476  -29.4219  -11.1766 H         2 CYS1703     0.0000
     17 HA         -9.6190  -28.5047   -9.3215 H         2 CYS1703     0.0000
     18 HB2       -10.1944  -26.5325  -10.9450 H         2 CYS1703     0.0000
     19 HB3       -10.3736  -26.2016   -9.2134 H         2 CYS1703     0.0000
     20 N         -11.3280  -28.4240   -7.4230 N.am      3 ALA1704     0.0000
     21 CA        -12.1810  -28.8500   -6.3230 C.3       3 ALA1704     0.0000
     22 C         -13.6220  -28.3610   -6.4650 C.2       3 ALA1704     0.0000
     23 O         -14.5680  -29.1160   -6.2060 O.2       3 ALA1704     0.0000
     24 CB        -11.5860  -28.4300   -4.9930 C.3       3 ALA1704     0.0000
     25 H         -10.4869  -27.8787   -7.1662 H         3 ALA1704     0.0000
     26 HA        -12.2207  -29.9620   -6.3133 H         3 ALA1704     0.0000
     27 HB1       -10.6792  -28.8265   -4.8500 H         3 ALA1704     0.0000
     28 HB2       -11.4853  -27.4372   -4.9281 H         3 ALA1704     0.0000
     29 HB3       -12.1563  -28.7177   -4.2236 H         3 ALA1704     0.0000
     30 N         -13.8080  -27.1150   -6.8870 N.am      4 ARG1705     0.0000
     31 CA        -15.1740  -26.5920   -6.9800 C.3       4 ARG1705     0.0000
     32 C         -16.0400  -27.2870   -8.0440 C.2       4 ARG1705     0.0000
     33 O         -17.2290  -27.5380   -7.8170 O.2       4 ARG1705     0.0000
     34 CB        -15.1810  -25.0700   -7.1770 C.3       4 ARG1705     0.0000
     35 CG        -16.5860  -24.4700   -7.1000 C.3       4 ARG1705     0.0000
     36 CD        -16.5960  -22.9510   -7.2840 C.3       4 ARG1705     0.0000
     37 NE        -15.7370  -22.2630   -6.3160 N.pl3     4 ARG1705     0.0000
     38 CZ        -16.1450  -21.7610   -5.1520 C.cat     4 ARG1705     0.0000
     39 NH1       -17.4210  -21.8580   -4.7720 N.pl3     4 ARG1705     0.0000
     40 NH2       -15.2720  -21.1520   -4.3610 N.pl3     4 ARG1705     0.0000
     41 HNCA      -13.0532  -26.4823   -7.1568 H         4 ARG1705     0.0000
     42 HA        -15.6870  -26.7696   -5.9981 H         4 ARG1705     0.0000
     43 HB2       -14.7437  -24.8360   -8.1544 H         4 ARG1705     0.0000
     44 HB3       -14.5510  -24.6090   -6.4076 H         4 ARG1705     0.0000
     45 HG2       -17.0268  -24.7150   -6.1255 H         4 ARG1705     0.0000
     46 HG3       -17.2137  -24.9281   -7.8747 H         4 ARG1705     0.0000
     47 HD2       -17.6386  -22.6031   -7.1932 H         4 ARG1705     0.0000
     48 HD3       -16.2728  -22.7300   -8.3150 H         4 ARG1705     0.0000
     49 HE        -14.7193  -22.1856   -6.6146 H         4 ARG1705     0.0000
     50 HH11      -18.0277  -22.3568   -5.3909 H         4 ARG1705     0.0000
     51 HH12      -17.6555  -21.4232   -3.9026 H         4 ARG1705     0.0000
     52 HH21      -15.6305  -20.8060   -3.4940 H         4 ARG1705     0.0000
     53 HH22      -14.3341  -21.0939   -4.7031 H         4 ARG1705     0.0000
     54 N         -15.4580  -27.5920   -9.2020 N.am      5 SER1706     0.0000
     55 CA        -16.2160  -28.2320  -10.2720 C.3       5 SER1706     0.0000
     56 C         -16.4190  -29.7180   -9.9950 C.2       5 SER1706     0.0000
     57 O         -17.2670  -30.3610  -10.6140 O.2       5 SER1706     0.0000
     58 CB        -15.5400  -28.0250  -11.6320 C.3       5 SER1706     0.0000
     59 OG        -14.2540  -28.6320  -11.6750 O.3       5 SER1706     0.0000
     60 HNCA      -14.4626  -27.3965   -9.3998 H         5 SER1706     0.0000
     61 HA        -17.2145  -27.7738  -10.3369 H         5 SER1706     0.0000
     62 HB2       -15.4851  -26.9369  -11.8103 H         5 SER1706     0.0000
     63 HB3       -16.2143  -28.4398  -12.4015 H         5 SER1706     0.0000
     64 HG        -13.6541  -28.0023  -11.1814 H         5 SER1706     0.0000
     65 N         -15.6490  -30.2550   -9.0570 N.am      6 GLU1707     0.0000
     66 CA        -15.7970  -31.6540   -8.6570 C.3       6 GLU1707     0.0000
     67 C         -16.9690  -31.8080   -7.6990 C.2       6 GLU1707     0.0000
     68 O         -17.6780  -32.8160   -7.7300 O.2       6 GLU1707     0.0000
     69 CB        -14.5260  -32.1810   -7.9840 C.3       6 GLU1707     0.0000
     70 CG        -13.4040  -32.5260   -8.9480 C.3       6 GLU1707     0.0000
     71 CD        -13.7700  -33.6580   -9.8960 C.2       6 GLU1707     0.0000
     72 OE1       -14.0500  -34.7780   -9.4120 O.co2     6 GLU1707     0.0000
     73 OE2       -13.7790  -33.4240  -11.1240 O.co2     6 GLU1707     0.0000
     74 HNCA      -14.9092  -29.7195   -8.5620 H         6 GLU1707     0.0000
     75 HA        -15.9944  -32.2752   -9.5256 H         6 GLU1707     0.0000
     76 HB2       -14.7850  -33.0781   -7.3938 H         6 GLU1707     0.0000
     77 HB3       -14.1662  -31.4225   -7.2660 H         6 GLU1707     0.0000
     78 HG2       -12.5114  -32.8122   -8.3749 H         6 GLU1707     0.0000
     79 HG3       -13.1469  -31.6342   -9.5361 H         6 GLU1707     0.0000
     80 N         -17.1670  -30.8010   -6.8530 N.am      7 GLY1708     0.0000
     81 CA        -18.2190  -30.8330   -5.8560 C.3       7 GLY1708     0.0000
     82 C         -18.0580  -31.9590   -4.8570 C.2       7 GLY1708     0.0000
     83 O         -16.9470  -32.3010   -4.4660 O.2       7 GLY1708     0.0000
     84 HNCA      -16.5760  -29.9412   -6.8660 H         7 GLY1708     0.0000
     85 HA2       -19.2116  -30.9410   -6.3390 H         7 GLY1708     0.0000
     86 HA3       -18.2540  -29.8772   -5.2943 H         7 GLY1708     0.0000
     87 H         -18.9812  -32.3699   -4.5734 H         7 GLY1708     0.0000
@<TRIPOS>BOND
     1    2    1 1
     2    7    1 1
     3    8    1 1
     4    9    1 1
     5    3    2 1
     6    5    2 1
     7    6    2 1
     8    4    3 2
     9   11   10 1
    10   16   10 1
    11   12   11 1
    12   14   11 1
    13   17   11 1
    14   13   12 2
    15   15   14 1
    16   18   14 1
    17   19   14 1
    18   21   20 1
    19   25   20 1
    20   22   21 1
    21   24   21 1
    22   26   21 1
    23   23   22 2
    24   27   24 1
    25   28   24 1
    26   29   24 1
    27   31   30 1
    28   41   30 1
    29   32   31 1
    30   34   31 1
    31   42   31 1
    32   33   32 2
    33   35   34 1
    34   43   34 1
    35   44   34 1
    36   36   35 1
    37   45   35 1
    38   46   35 1
    39   37   36 1
    40   47   36 1
    41   48   36 1
    42   38   37 ar
    43   49   37 1
    44   39   38 ar
    45   40   38 ar
    46   50   39 1
    47   51   39 1
    48   52   40 1
    49   53   40 1
    50   55   54 1
    51   60   54 1
    52   56   55 1
    53   58   55 1
    54   61   55 1
    55   57   56 2
    56   59   58 1
    57   62   58 1
    58   63   58 1
    59   64   59 1
    60   66   65 1
    61   74   65 1
    62   67   66 1
    63   69   66 1
    64   75   66 1
    65   68   67 2
    66   70   69 1
    67   76   69 1
    68   77   69 1
    69   71   70 1
    70   78   70 1
    71   79   70 1
    72   72   71 ar
    73   73   71 ar
    74   81   80 1
    75   84   80 1
    76   82   81 1
    77   85   81 1
    78   86   81 1
    79   83   82 2
    80   87   82 1
    81   10    3 am
    82   20   12 am
    83   30   22 am
    84   54   32 am
    85   65   56 am
    86   80   67 am
@<TRIPOS>SUBSTRUCTURE
     1 GLY1702     1 RESIDUE
     2 CYS1703    10 RESIDUE
     3 ALA1704    20 RESIDUE
     4 ARG1705    30 RESIDUE
     5 SER1706    54 RESIDUE
     6 GLU1707    65 RESIDUE
     7 GLY1708    80 RESIDUE
@<TRIPOS>SET

