#    Name: 2QU5_1_CAVITY_N1_6.mol2
#    Modification time : Tue Mar 11 08:59:11 2014

@<TRIPOS>MOLECULE
2QU5_1_CAVITY_N1_6.mol2
    5     0     2     0     0
SMALL
NO_CHARGES


@<TRIPOS>ATOM
      1 N          73.5033   93.5879   39.9393 N.2       1 ALA2        0.0000 
      2 CZ         73.0054   96.0202   40.7050 C.ar      2 PHE5        0.0000 
      3 O          74.1952   95.5928   39.8976 O.2       1 ALA2        0.0000 
      4 O          73.3037   94.7600   39.0248 O.2       1 ALA2        0.0000 
      5 O          74.4935   94.3327   38.2174 O.2       1 ALA2        0.0000 
@<TRIPOS>BOND
@<TRIPOS>SUBSTRUCTURE
     1 ALA2        1 GROUP   
     2 PHE5        2 GROUP   
@<TRIPOS>SET

