#    Name: 2QU5_1_CAVITY_N1_ALL.mol2
#    Modification time : Tue Mar 11 08:59:11 2014

@<TRIPOS>MOLECULE
2QU5_1_CAVITY_N1_ALL.mol2
   66     0     5     0     0
SMALL
NO_CHARGES


@<TRIPOS>ATOM
      1 N          75.8792   97.3466   44.2379 N.2       2 ALA2        0.0000 
      2 O          77.0690   96.9192   43.4306 O.2       2 ALA2        0.0000 
      3 CA         74.9878   96.5138   43.3651 C.3       4 GLY6        0.0000 
      4 CA         76.1776   96.0864   42.5578 C.3       4 GLY6        0.0000 
      5 N          75.2862   95.2536   41.6850 N.2       2 ALA2        0.0000 
      6 N          73.5033   93.5879   39.9393 N.2       2 ALA2        0.0000 
      7 CA         76.5710   99.3515   44.1962 C.3       4 GLY6        0.0000 
      8 CA         74.4899   98.9460   44.1307 C.3       4 GLY6        0.0000 
      9 CA         75.6796   98.5187   43.3234 C.3       4 GLY6        0.0000 
     10 DU         76.8694   98.0913   42.5160 H         5 CUB7        0.0000 
     11 CA         73.5984   98.1132   43.2579 C.3       4 GLY6        0.0000 
     12 CA         74.7882   97.6858   42.4506 C.3       4 GLY6        0.0000 
     13 DU         75.9780   97.2585   41.6432 H         5 CUB7        0.0000 
     14 CZ         73.8968   96.8530   41.5778 C.ar      3 PHE5        0.0000 
     15 DU         75.0866   96.4257   40.7704 H         5 CUB7        0.0000 
     16 CZ         73.0054   96.0202   40.7050 C.ar      3 PHE5        0.0000 
     17 O          74.1952   95.5928   39.8976 O.2       2 ALA2        0.0000 
     18 O          73.3037   94.7600   39.0248 O.2       2 ALA2        0.0000 
     19 O          74.4935   94.3327   38.2174 O.2       2 ALA2        0.0000 
     20 CA         75.4800   99.6907   42.4089 C.3       4 GLY6        0.0000 
     21 CA         76.6698   99.2634   41.6015 C.3       4 GLY6        0.0000 
     22 CA         73.3989   99.2853   42.3434 C.3       4 GLY6        0.0000 
     23 CA         74.5886   98.8579   41.5360 C.3       4 GLY6        0.0000 
     24 DU         75.7784   98.4306   40.7287 H         5 CUB7        0.0000 
     25 CZ         72.5074   98.4525   41.4706 C.ar      3 PHE5        0.0000 
     26 N          73.6972   98.0251   40.6632 N.2       2 ALA2        0.0000 
     27 DU         74.8870   97.5977   39.8559 H         5 CUB7        0.0000 
     28 DU         76.0768   97.1704   39.0485 H         5 CUB7        0.0000 
     29 N          72.8058   97.1923   39.7904 N.2       2 ALA2        0.0000 
     30 O          73.9956   96.7649   38.9831 O.2       2 ALA2        0.0000 
     31 O          75.1854   96.3376   38.1757 O.2       2 ALA2        0.0000 
     32 CA         77.3616  101.2683   41.5598 C.3       4 GLY6        0.0000 
     33 CA         75.2805  100.8628   41.4943 C.3       4 GLY6        0.0000 
     34 CA         76.4702  100.4355   40.6870 C.3       4 GLY6        0.0000 
     35 DU         77.6600  100.0081   39.8796 H         5 CUB7        0.0000 
     36 CA         74.3890  100.0300   40.6215 C.3       4 GLY6        0.0000 
     37 DU         75.5788   99.6026   39.8142 H         5 CUB7        0.0000 
     38 CA         73.4976   99.1972   39.7487 C.3       4 GLY6        0.0000 
     39 CA         74.6874   98.7698   38.9413 C.3       4 GLY6        0.0000 
     40 DU         75.8772   98.3425   38.1340 H         5 CUB7        0.0000 
     41 N          72.6062   98.3644   38.8759 N.2       2 ALA2        0.0000 
     42 O          73.7960   97.9370   38.0685 O.2       2 ALA2        0.0000 
     43 O          74.9858   97.5097   37.2612 O.2       2 ALA2        0.0000 
     44 CA         77.1621  102.4404   40.6452 C.3       4 GLY6        0.0000 
     45 CA         76.2707  101.6076   39.7724 C.3       4 GLY6        0.0000 
     46 DU         77.4604  101.1802   38.9651 H         5 CUB7        0.0000 
     47 CA         75.3792  100.7747   38.8996 C.3       4 GLY6        0.0000 
     48 DU         76.5690  100.3474   38.0923 H         5 CUB7        0.0000 
     49 CA         74.4878   99.9419   38.0268 C.3       4 GLY6        0.0000 
     50 DU         75.6776   99.5146   37.2194 H         5 CUB7        0.0000 
     51 N          73.5964   99.1091   37.1540 N.2       2 ALA2        0.0000 
     52 OG         74.7862   98.6817   36.3466 O.2       1 SER1        0.0000 
     53 CA         76.9625  103.6125   39.7307 C.3       4 GLY6        0.0000 
     54 CA         76.0711  102.7796   38.8579 C.3       4 GLY6        0.0000 
     55 DU         77.2608  102.3523   38.0505 H         5 CUB7        0.0000 
     56 CA         75.1797  101.9468   37.9851 C.3       4 GLY6        0.0000 
     57 DU         76.3694  101.5195   37.1777 H         5 CUB7        0.0000 
     58 CA         74.2882  101.1140   37.1123 C.3       4 GLY6        0.0000 
     59 O          75.4780  100.6866   36.3049 O.2       2 ALA2        0.0000 
     60 CA         73.3968  100.2812   36.2394 C.3       4 GLY6        0.0000 
     61 O          74.5866   99.8538   35.4321 O.2       2 ALA2        0.0000 
     62 CA         75.8715  103.9517   37.9433 C.3       4 GLY6        0.0000 
     63 CA         74.9801  103.1189   37.0705 C.3       4 GLY6        0.0000 
     64 DU         76.1699  102.6915   36.2632 H         5 CUB7        0.0000 
     65 OG         74.0887  102.2861   36.1977 O.2       1 SER1        0.0000 
     66 O          75.2784  101.8587   35.3904 O.2       2 ALA2        0.0000 
@<TRIPOS>BOND
@<TRIPOS>SUBSTRUCTURE
     1 SER1       52 GROUP   
     2 ALA2        1 GROUP   
     3 PHE5       14 GROUP   
     4 GLY6        3 GROUP   
     5 CUB7       10 GROUP   
@<TRIPOS>SET

