#    Name: 2qu5_276_1_INTS_M
#    Modification time : Mon Mar 24 22:51:42 2014

@<TRIPOS>MOLECULE
2qu5_276_1_INTS_M
   93     0     9     0     0
SMALL
NO_CHARGES


@<TRIPOS>ATOM
      1 CA         66.3470   88.1830   40.8790 C.3       3 GLC5        0.0000 
      2 CA         66.8250   90.0640   41.1750 C.3       9 GLL5        0.0000 
      3 CA         65.8690   86.3020   40.5830 C.3       6 GLP5        0.0000 
      4 CA         66.1220   90.0060   39.3855 C.3       3 GLC5        0.0000 
      5 CA         65.4190   89.9480   37.5960 C.3       6 GLP5        0.0000 
      6 N          66.9695   88.9240   39.5255 N.am      2 SEC2        0.0000 
      7 N          67.8350   89.9260   40.2650 N.am      8 SEL2        0.0000 
      8 N          66.1040   87.9220   38.7860 N.am      5 SEP2        0.0000 
      9 CA         68.4390   92.0405   39.6575 C.3       3 GLC5        0.0000 
     10 CA         69.0930   90.3430   40.6020 C.3       9 GLL5        0.0000 
     11 CA         67.7850   93.7380   38.7130 C.3       6 GLP5        0.0000 
     12 O          68.9805   89.1085   37.6590 O.2       1 ALC1        0.0000 
     13 O          69.9370   89.3780   38.6010 O.2       7 ALL1        0.0000 
     14 O          68.0240   88.8390   36.7170 O.2       4 ALP1        0.0000 
     15 CA         72.3270   88.6345   39.1390 C.3       3 GLC5        0.0000 
     16 CA         70.9310   89.1270   37.5570 C.3       9 GLL5        0.0000 
     17 CA         73.7230   88.1420   40.7210 C.3       6 GLP5        0.0000 
     18 CA         70.7630   87.4280   38.1190 C.3       3 GLC5        0.0000 
     19 CA         70.5950   85.7290   38.6810 C.3       6 GLP5        0.0000 
     20 CA         70.4255   90.5580   36.6160 C.3       3 GLC5        0.0000 
     21 CA         69.9200   91.9890   35.6750 C.3       6 GLP5        0.0000 
     22 O          64.9360   95.4590   49.1940 O.2       1 ALC1        0.0000 
     23 O          64.2820   95.9030   47.8620 O.2       7 ALL1        0.0000 
     24 O          65.5900   95.0150   50.5260 O.2       4 ALP1        0.0000 
     25 CA         58.4025   98.8825   47.0450 C.3       3 GLC5        0.0000 
     26 CA         59.8900   99.1210   45.5280 C.3       9 GLL5        0.0000 
     27 CA         56.9150   98.6440   48.5620 C.3       6 GLP5        0.0000 
     28 CA         58.9875   97.6130   44.8185 C.3       3 GLC5        0.0000 
     29 CA         58.0850   96.1050   44.1090 C.3       6 GLP5        0.0000 
     30 CA         58.9460  100.6315   45.3180 C.3       3 GLC5        0.0000 
     31 CA         58.0020  102.1420   45.1080 C.3       6 GLP5        0.0000 
     32 CA         61.3900  100.5530   44.9235 C.3       3 GLC5        0.0000 
     33 CA         62.8900  101.9850   44.3190 C.3       6 GLP5        0.0000 
     34 CA         60.6275   99.5105   43.7340 C.3       3 GLC5        0.0000 
     35 CA         61.3650   99.9000   41.9400 C.3       6 GLP5        0.0000 
     36 CA         59.1640   99.5460   50.3340 C.3       3 GLC5        0.0000 
     37 CA         60.1520   99.4120   48.8550 C.3       9 GLL5        0.0000 
     38 CA         58.1760   99.6800   51.8130 C.3       6 GLP5        0.0000 
     39 CA         59.9520   97.4040   48.5845 C.3       3 GLC5        0.0000 
     40 CA         59.7520   95.3960   48.3140 C.3       6 GLP5        0.0000 
     41 CA         58.5335   99.0280   48.7085 C.3       3 GLC5        0.0000 
     42 CA         59.6485  101.4830   46.3875 C.3       3 GLC5        0.0000 
     43 CA         61.2950  100.8240   47.6670 C.3       9 GLL5        0.0000 
     44 CA         61.4495  102.6470   47.0870 C.3       3 GLC5        0.0000 
     45 CA         61.6040  104.4700   46.5070 C.3       6 GLP5        0.0000 
     46 CA         63.1325   98.2205   50.4795 C.3       3 GLC5        0.0000 
     47 CA         62.2040   99.9190   49.4030 C.3       9 GLL5        0.0000 
     48 CA         64.0610   96.5220   51.5560 C.3       6 GLP5        0.0000 
     49 CA         64.9373   91.0078   42.0802 C.3       3 GLC5        0.0000 
     50 CA         67.0220   90.6190   42.4480 C.3       9 GLL5        0.0000 
     51 CA         62.9510   91.6740   42.3490 C.3       6 GLP5        0.0000 
     52 CA         70.6287   89.3840   41.8713 C.3       3 GLC5        0.0000 
     53 CA         72.0280   88.1450   42.5190 C.3       6 GLP5        0.0000 
     54 CA         70.1965   91.1628   43.9705 C.3       3 GLC5        0.0000 
     55 CA         68.3340   91.0500   42.7830 C.3       9 GLL5        0.0000 
     56 CA         71.5430   91.3490   45.6270 C.3       6 GLP5        0.0000 
     57 CA         66.7089   91.8999   41.1886 C.3       3 GLC5        0.0000 
     58 CA         65.7890   93.1040   40.0800 C.3       6 GLP5        0.0000 
     59 CA         69.7223   91.5585   45.6063 C.3       3 GLC5        0.0000 
     60 CA         67.9410   92.1250   44.9770 C.3       9 GLL5        0.0000 
     61 CA         68.0187   89.8725   44.8687 C.3       3 GLC5        0.0000 
     62 CA         67.8620   91.4110   46.1940 C.3       9 GLL5        0.0000 
     63 CA         68.1360   87.9770   44.1520 C.3       6 GLP5        0.0000 
     64 CA         65.9228   94.7090   43.9135 C.3       3 GLC5        0.0000 
     65 CA         67.2230   93.3370   44.8210 C.3       9 GLL5        0.0000 
     66 CA         65.0070   95.8420   42.4820 C.3       6 GLP5        0.0000 
     67 CA         67.6955   94.1917   47.8603 C.3       3 GLC5        0.0000 
     68 CA         66.4540   93.8150   45.8690 C.3       9 GLL5        0.0000 
     69 CA         68.9720   94.9340   49.2330 C.3       6 GLP5        0.0000 
     70 CA         65.2205   91.8858   46.7263 C.3       3 GLC5        0.0000 
     71 CA         66.3840   93.0840   47.1060 C.3       9 GLL5        0.0000 
     72 CA         64.0220   90.3220   46.9650 C.3       6 GLP5        0.0000 
     73 CA         68.5012   91.8443   48.3997 C.3       3 GLC5        0.0000 
     74 CA         67.0790   91.9000   47.2570 C.3       9 GLL5        0.0000 
     75 CA         69.5320   92.0330   50.0740 C.3       6 GLP5        0.0000 
     76 CA         65.7463   90.9888   46.8453 C.3       3 GLC5        0.0000 
     77 CA         63.5543   96.8413   49.5938 C.3       3 GLC5        0.0000 
     78 CA         63.2770   96.6090   47.2720 C.3       9 GLL5        0.0000 
     79 CA         61.3997   96.2782   47.9728 C.3       3 GLC5        0.0000 
     80 CA         62.8180   97.7120   47.9910 C.3       9 GLL5        0.0000 
     81 CA         64.6677   98.1483   47.0367 C.3       3 GLC5        0.0000 
     82 CA         66.2880   99.1360   46.4420 C.3       6 GLP5        0.0000 
     83 CA         60.6170   96.8868   47.6022 C.3       3 GLC5        0.0000 
     84 CA         61.7760   98.5450   47.5260 C.3       9 GLL5        0.0000 
     85 CA         59.7505   96.8787   44.9955 C.3       3 GLC5        0.0000 
     86 CA         61.1880   98.2100   46.2550 C.3       9 GLL5        0.0000 
     87 CA         60.9592   96.0455   47.0393 C.3       3 GLC5        0.0000 
     88 CA         61.6440   97.0950   45.5090 C.3       9 GLL5        0.0000 
     89 CA         62.2203   95.0255   44.9207 C.3       3 GLC5        0.0000 
     90 CA         62.2740   93.3560   44.0770 C.3       6 GLP5        0.0000 
     91 CA         63.2682   96.9267   44.5048 C.3       3 GLC5        0.0000 
     92 CA         64.2230   97.0800   42.9320 C.3       6 GLP5        0.0000 
     93 CA         68.2826   89.3182   42.9562 C.3       3 GLC5        0.0000 
@<TRIPOS>BOND
@<TRIPOS>SUBSTRUCTURE
     1 ALC1       12 GROUP        1 X    ALC  0     ROOT ALC X 1
     2 SEC2        6 GROUP        1 X    SEC  0     **** SEC X 2
     3 GLC5        1 GROUP        1 X    GLC  0     **** GLC X 6
     4 ALP1       14 GROUP        1 Y    ALP  0     ROOT ALP Y 8
     5 SEP2        8 GROUP        1 Y    SEP  0     **** SEP Y 9
     6 GLP5        3 GROUP        1 Y    GLP  0     **** GLP Y 13
     7 ALL1       13 GROUP        1 Z    ALL  0     ROOT ALL Z 15
     8 SEL2        7 GROUP        1 Z    SEL  0     **** SEL Z 16
     9 GLL5        2 GROUP        1 Z    GLL  0     **** GLL Z 20
@<TRIPOS>SET

