#    Name: 2qu5_276_1_ligand
#    Modification time : Mon Mar 24 22:51:42 2014

@<TRIPOS>MOLECULE
2qu5_276_1_ligand
   47    50     1     0     0
SMALL
NO_CHARGES


@<TRIPOS>ATOM
      1 C1         67.0220   90.6190   42.4480 C.ar      1 276501      0.0000 
      2 C2         66.8250   90.0640   41.1750 C.ar      1 276501      0.0000 
      3 N3         67.8350   89.9260   40.2650 N.ar      1 276501      0.0000 
      4 C4         69.0930   90.3430   40.6020 C.ar      1 276501      0.0000 
      5 C5         69.3660   90.9030   41.8450 C.ar      1 276501      0.0000 
      6 C6         68.3340   91.0500   42.7830 C.ar      1 276501      0.0000 
      7 C10        70.2120   90.2100   39.6450 C.2       1 276501      0.0000 
      8 O11        71.3040   90.7980   39.7750 O.2       1 276501      0.0000 
      9 N12        69.9370   89.3780   38.6010 N.am      1 276501      0.0000 
     10 C13        70.9310   89.1270   37.5570 C.3       1 276501      0.0000 
     11 O17        68.7650   91.6190   43.9810 O.3       1 276501      0.0000 
     12 C18        67.9410   92.1250   44.9770 C.ar      1 276501      0.0000 
     13 C19        67.2230   93.3370   44.8210 C.ar      1 276501      0.0000 
     14 C20        66.4540   93.8150   45.8690 C.ar      1 276501      0.0000 
     15 C21        66.3840   93.0840   47.1060 C.ar      1 276501      0.0000 
     16 C22        67.0790   91.9000   47.2570 C.ar      1 276501      0.0000 
     17 C23        67.8620   91.4110   46.1940 C.ar      1 276501      0.0000 
     18 N27        65.6710   94.9350   46.0210 N.pl3     1 276501      0.0000 
     19 C28        65.1660   94.8930   47.2630 C.2       1 276501      0.0000 
     20 N29        65.5680   93.8040   47.9380 N.2       1 276501      0.0000 
     21 N32        64.2820   95.9030   47.8620 N.pl3     1 276501      0.0000 
     22 C33        63.2770   96.6090   47.2720 C.ar      1 276501      0.0000 
     23 C34        62.8180   97.7120   47.9910 C.ar      1 276501      0.0000 
     24 C35        61.7760   98.5450   47.5260 C.ar      1 276501      0.0000 
     25 C36        61.1880   98.2100   46.2550 C.ar      1 276501      0.0000 
     26 C37        61.6440   97.0950   45.5090 C.ar      1 276501      0.0000 
     27 C38        62.6890   96.2950   46.0200 C.ar      1 276501      0.0000 
     28 C43        61.3450   99.7240   48.3940 C.3       1 276501      0.0000 
     29 CL44       59.8900   99.1210   45.5280 Cl        1 276501      0.0000 
     30 F45        60.1520   99.4120   48.8550 F         1 276501      0.0000 
     31 F46        61.2950  100.8240   47.6670 F         1 276501      0.0000 
     32 F47        62.2040   99.9190   49.4030 F         1 276501      0.0000 
     33 H          66.2684   90.7122   43.1054 H         1 276501      0.0000 
     34 H          65.8564   89.7461   40.9255 H         1 276501      0.0000 
     35 H          70.3151   91.2086   42.0797 H         1 276501      0.0000 
     36 H          69.0316   88.8995   38.5064 H         1 276501      0.0000 
     37 H          67.2818   93.8438   43.9359 H         1 276501      0.0000 
     38 H          67.0328   91.3712   48.1335 H         1 276501      0.0000 
     39 H          68.3783   90.5328   46.3011 H         1 276501      0.0000 
     40 H          65.5271   95.6032   45.3570 H         1 276501      0.0000 
     41 H          64.4867   96.0821   48.9102 H         1 276501      0.0000 
     42 H          63.2566   97.9376   48.9099 H         1 276501      0.0000 
     43 H          61.2196   96.8742   44.6112 H         1 276501      0.0000 
     44 H          63.0237   95.4895   45.4903 H         1 276501      0.0000 
     45 H          71.1969   89.9688   37.0873 H         1 276501      0.0000 
     46 H          71.7664   88.7226   37.9291 H         1 276501      0.0000 
     47 H          70.5865   88.4985   36.8596 H         1 276501      0.0000 
@<TRIPOS>BOND
     1    2    1 ar   
     2    6    1 ar   
     3   33    1 1    
     4    3    2 ar   
     5   34    2 1    
     6    4    3 ar   
     7    5    4 ar   
     8    7    4 1    
     9    6    5 ar   
    10   35    5 1    
    11   11    6 1    
    12    8    7 2    
    13    9    7 am   
    14   10    9 1    
    15   36    9 1    
    16   45   10 1    
    17   46   10 1    
    18   47   10 1    
    19   12   11 1    
    20   13   12 ar   
    21   17   12 ar   
    22   14   13 ar   
    23   37   13 1    
    24   15   14 ar   
    25   18   14 1    
    26   16   15 ar   
    27   20   15 1    
    28   17   16 ar   
    29   38   16 1    
    30   39   17 1    
    31   19   18 1    
    32   40   18 1    
    33   20   19 2    
    34   21   19 1    
    35   22   21 1    
    36   41   21 1    
    37   23   22 ar   
    38   27   22 ar   
    39   24   23 ar   
    40   42   23 1    
    41   25   24 ar   
    42   28   24 1    
    43   26   25 ar   
    44   29   25 1    
    45   27   26 ar   
    46   43   26 1    
    47   44   27 1    
    48   30   28 1    
    49   31   28 1    
    50   32   28 1    
@<TRIPOS>SUBSTRUCTURE
     1 276501      1 GROUP   
@<TRIPOS>SET

