#    Name: 3ix8_TX3_2_INTS_M
#    Modification time : Tue Mar 25 17:39:21 2014

@<TRIPOS>MOLECULE
3ix8_TX3_2_INTS_M
   79     0     9     0     0
SMALL
NO_CHARGES


@<TRIPOS>ATOM
      1 CA        -33.1895   16.1645   42.8410 C.3       3 GLC5        0.0000 
      2 CA        -31.5820   15.0480   41.7640 C.3       9 GLL5        0.0000 
      3 CA        -34.7970   17.2810   43.9180 C.3       6 GLP5        0.0000 
      4 O         -28.1820   14.6075   45.0125 O.2       1 ALC1        0.0000 
      5 O         -28.2400   13.5970   44.0720 O.2       7 ALL1        0.0000 
      6 O         -28.1240   15.6180   45.9530 O.2       4 ALP1        0.0000 
      7 N         -29.3455   10.1930   43.2160 N.am      2 SEC2        0.0000 
      8 N         -28.6350   11.5040   43.4400 N.am      8 SEL2        0.0000 
      9 N         -30.0560    8.8820   42.9920 N.am      5 SEP2        0.0000 
     10 CA        -31.6860   11.5380   43.9115 C.3       3 GLC5        0.0000 
     11 CA        -31.4760   12.8060   45.4350 C.3       9 GLL5        0.0000 
     12 CA        -31.8960   10.2700   42.3880 C.3       6 GLP5        0.0000 
     13 CA        -33.0165   13.2850   46.3030 C.3       3 GLC5        0.0000 
     14 CA        -34.5570   13.7640   47.1710 C.3       6 GLP5        0.0000 
     15 CA        -31.3425   14.7340   45.2125 C.3       3 GLC5        0.0000 
     16 CA        -31.2090   16.6620   44.9900 C.3       6 GLP5        0.0000 
     17 CA        -31.0170   13.9140   46.9575 C.3       3 GLC5        0.0000 
     18 CA        -30.5580   15.0220   48.4800 C.3       6 GLP5        0.0000 
     19 CA        -32.4080   11.1270   45.4840 C.3       3 GLC5        0.0000 
     20 CA        -33.3400    9.4480   45.5330 C.3       6 GLP5        0.0000 
     21 CA        -29.1585   20.3015   39.8670 C.3       3 GLC5        0.0000 
     22 CA        -29.8040   18.2660   39.6550 C.3       9 GLL5        0.0000 
     23 CA        -28.5130   22.3370   40.0790 C.3       6 GLP5        0.0000 
     24 CA        -29.3580   18.7930   37.5940 C.3       3 GLC5        0.0000 
     25 CA        -28.9120   19.3200   35.5330 C.3       6 GLP5        0.0000 
     26 CA        -30.5060   18.3755   41.5490 C.3       3 GLC5        0.0000 
     27 CA        -31.2080   18.4850   43.4430 C.3       6 GLP5        0.0000 
     28 CA        -32.3735   13.3805   40.7095 C.3       3 GLC5        0.0000 
     29 CA        -33.2980   14.3540   42.1440 C.3       9 GLL5        0.0000 
     30 CA        -31.4490   12.4070   39.2750 C.3       6 GLP5        0.0000 
     31 CA        -33.2135   12.3930   41.9475 C.3       3 GLC5        0.0000 
     32 CA        -33.1290   10.4320   41.7510 C.3       6 GLP5        0.0000 
     33 CA        -34.4680   13.1740   43.1730 C.3       3 GLC5        0.0000 
     34 CA        -35.6380   11.9940   44.2020 C.3       6 GLP5        0.0000 
     35 CA        -34.6610   13.8190   40.8150 C.3       3 GLC5        0.0000 
     36 CA        -36.0240   13.2840   39.4860 C.3       6 GLP5        0.0000 
     37 CA        -32.9375   15.4600   43.5115 C.3       3 GLC5        0.0000 
     38 CA        -32.5770   16.5660   44.8790 C.3       6 GLP5        0.0000 
     39 CA        -26.5815   16.1400   36.5770 C.3       3 GLC5        0.0000 
     40 CA        -26.0970   18.0120   37.4140 C.3       9 GLL5        0.0000 
     41 CA        -27.0660   14.2680   35.7400 C.3       6 GLP5        0.0000 
     42 CA        -25.4875   17.2965   35.5490 C.3       3 GLC5        0.0000 
     43 CA        -24.8780   16.5810   33.6840 C.3       6 GLP5        0.0000 
     44 CA        -26.2350   19.5085   38.8095 C.3       3 GLC5        0.0000 
     45 CA        -26.3730   21.0050   40.2050 C.3       6 GLP5        0.0000 
     46 CA        -27.5045   18.6660   36.4735 C.3       3 GLC5        0.0000 
     47 CA        -30.1232   16.6552   38.3360 C.3       3 GLC5        0.0000 
     48 CA        -30.1430   16.7070   40.6950 C.3       9 GLL5        0.0000 
     49 CA        -30.2730   15.8240   36.4970 C.3       6 GLP5        0.0000 
     50 CA        -31.2246   13.6981   40.5595 C.3       3 GLC5        0.0000 
     51 CA        -30.5000   14.3580   42.3260 C.3       9 GLL5        0.0000 
     52 CA        -28.7677   13.5735   40.4711 C.3       3 GLC5        0.0000 
     53 CA        -28.9860   15.9830   41.2820 C.3       9 GLL5        0.0000 
     54 CA        -28.9940   12.4250   38.7350 C.3       6 GLP5        0.0000 
     55 CA        -26.1555   11.6960   47.3600 C.3       3 GLC5        0.0000 
     56 CA        -27.7750   11.2580   46.5020 C.3       9 GLL5        0.0000 
     57 CA        -24.4090   12.3530   47.5640 C.3       6 GLP5        0.0000 
     58 CA        -31.5645   11.3502   48.9217 C.3       3 GLC5        0.0000 
     59 CA        -29.2890   10.9740   48.3850 C.3       9 GLL5        0.0000 
     60 CA        -33.3170   11.4270   49.8150 C.3       6 GLP5        0.0000 
     61 CA        -31.7873   10.6230   46.2747 C.3       3 GLC5        0.0000 
     62 CA        -30.3350   11.5730   47.6720 C.3       9 GLL5        0.0000 
     63 CA        -24.9878   17.3690   42.5080 C.3       3 GLC5        0.0000 
     64 CA        -24.8260   16.4930   40.7650 C.3       9 GLL5        0.0000 
     65 CA        -25.8030   18.0110   44.2620 C.3       6 GLP5        0.0000 
     66 CA        -21.6475   16.6970   41.2920 C.3       3 GLC5        0.0000 
     67 CA        -23.5190   16.9610   40.7430 C.3       9 GLL5        0.0000 
     68 CA        -20.0080   16.0430   42.3740 C.3       6 GLP5        0.0000 
     69 CA        -22.7425   16.4960   38.4645 C.3       3 GLC5        0.0000 
     70 CA        -22.1980   15.6410   36.7190 C.3       6 GLP5        0.0000 
     71 CA        -24.1109   14.9474   40.2916 C.3       3 GLC5        0.0000 
     72 CA        -23.8350   13.0920   40.0940 C.3       6 GLP5        0.0000 
     73 CA        -21.8412   18.7315   38.5695 C.3       3 GLC5        0.0000 
     74 CA        -23.0550   17.7410   39.6770 C.3       9 GLL5        0.0000 
     75 CA        -20.2150   19.5510   38.0010 C.3       6 GLP5        0.0000 
     76 CA        -23.3697   16.7520   37.6535 C.3       3 GLC5        0.0000 
     77 CA        -23.8800   18.0830   38.5990 C.3       9 GLL5        0.0000 
     78 CA        -25.2096   19.8488   37.4280 C.3       3 GLC5        0.0000 
     79 CA        -25.1000   21.7600   36.8550 C.3       6 GLP5        0.0000 
@<TRIPOS>BOND
@<TRIPOS>SUBSTRUCTURE
     1 ALC1        4 GROUP        1 X    ALC  0     ROOT ALC X 1
     2 SEC2        7 GROUP        1 X    SEC  0     **** SEC X 2
     3 GLC5        1 GROUP        1 X    GLC  0     **** GLC X 6
     4 ALP1        6 GROUP        1 Y    ALP  0     ROOT ALP Y 8
     5 SEP2        9 GROUP        1 Y    SEP  0     **** SEP Y 9
     6 GLP5        3 GROUP        1 Y    GLP  0     **** GLP Y 13
     7 ALL1        5 GROUP        1 Z    ALL  0     ROOT ALL Z 15
     8 SEL2        8 GROUP        1 Z    SEL  0     **** SEL Z 16
     9 GLL5        2 GROUP        1 Z    GLL  0     **** GLL Z 20
@<TRIPOS>SET

