#    Name: 3ix8_TX3_2_ligand
#    Modification time : Tue Mar 25 17:39:21 2014

@<TRIPOS>MOLECULE
3ix8_TX3_2_ligand
   45    47     1     0     0
SMALL
NO_CHARGES


@<TRIPOS>ATOM
      1 C1        -28.9860   15.9830   41.2820 C.ar      1 TX3174      0.0000 
      2 C2        -30.1430   16.7070   40.6950 C.ar      1 TX3174      0.0000 
      3 C3        -31.4190   16.1930   40.9600 C.ar      1 TX3174      0.0000 
      4 C4        -31.5820   15.0480   41.7640 C.ar      1 TX3174      0.0000 
      5 C5        -30.5000   14.3580   42.3260 C.ar      1 TX3174      0.0000 
      6 C6        -29.1940   14.7830   42.1230 C.ar      1 TX3174      0.0000 
      7 C7        -27.9930   14.0610   42.7120 C.3       1 TX3174      0.0000 
      8 N8        -28.2400   13.5970   44.0720 N.am      1 TX3174      0.0000 
      9 C9        -28.5340   12.3250   44.3420 C.2       1 TX3174      0.0000 
     10 O10       -28.6350   11.5040   43.4400 O.2       1 TX3174      0.0000 
     11 C11       -28.7840   11.8630   45.7490 C.ar      1 TX3174      0.0000 
     12 C12       -27.7750   11.2580   46.5020 C.ar      1 TX3174      0.0000 
     13 C13       -28.0290   10.8200   47.8100 C.ar      1 TX3174      0.0000 
     14 C14       -29.2890   10.9740   48.3850 C.ar      1 TX3174      0.0000 
     15 C15       -30.3350   11.5730   47.6720 C.ar      1 TX3174      0.0000 
     16 C16       -30.1340   12.0230   46.3610 C.ar      1 TX3174      0.0000 
     17 CL17      -31.4760   12.8060   45.4350 Cl        1 TX3174      0.0000 
     18 BR18      -29.8040   18.2660   39.6550 Br        1 TX3174      0.0000 
     19 BR19      -33.2980   14.3540   42.1440 Br        1 TX3174      0.0000 
     20 O20       -27.7270   16.4280   41.0670 O.3       1 TX3174      0.0000 
     21 C21       -27.0840   16.2970   39.7850 C.2       1 TX3174      0.0000 
     22 O22       -27.7000   15.8300   38.8450 O.2       1 TX3174      0.0000 
     23 C23       -25.6830   16.7960   39.7060 C.ar      1 TX3174      0.0000 
     24 C24       -24.8260   16.4930   40.7650 C.ar      1 TX3174      0.0000 
     25 C25       -23.5190   16.9610   40.7430 C.ar      1 TX3174      0.0000 
     26 C26       -23.0550   17.7410   39.6770 C.ar      1 TX3174      0.0000 
     27 C27       -23.8800   18.0830   38.5990 C.ar      1 TX3174      0.0000 
     28 C28       -25.2030   17.6430   38.5770 C.ar      1 TX3174      0.0000 
     29 C29       -26.0970   18.0120   37.4140 C.3       1 TX3174      0.0000 
     30 H         -32.2490   16.6549   40.5642 H         1 TX3174      0.0000 
     31 H         -30.6831   13.5176   42.9016 H         1 TX3174      0.0000 
     32 H         -27.1310   14.7498   42.6866 H         1 TX3174      0.0000 
     33 H         -27.7431   13.2131   42.0511 H         1 TX3174      0.0000 
     34 H         -28.1722   14.3217   44.8179 H         1 TX3174      0.0000 
     35 H         -26.8381   11.1316   46.0966 H         1 TX3174      0.0000 
     36 H         -27.2692   10.3778   48.3512 H         1 TX3174      0.0000 
     37 H         -29.4565   10.6435   49.3482 H         1 TX3174      0.0000 
     38 H         -31.2568   11.6832   48.1139 H         1 TX3174      0.0000 
     39 H         -25.1620   15.9290   41.5515 H         1 TX3174      0.0000 
     40 H         -22.8776   16.7338   41.5197 H         1 TX3174      0.0000 
     41 H         -22.0722   18.0749   39.6863 H         1 TX3174      0.0000 
     42 H         -23.5120   18.6528   37.8327 H         1 TX3174      0.0000 
     43 H         -25.6212   18.5856   36.7472 H         1 TX3174      0.0000 
     44 H         -26.4231   17.2030   36.9250 H         1 TX3174      0.0000 
     45 H         -26.9052   18.5192   37.7132 H         1 TX3174      0.0000 
@<TRIPOS>BOND
     1    2    1 ar   
     2    6    1 ar   
     3   20    1 1    
     4    3    2 ar   
     5   18    2 1    
     6    4    3 ar   
     7   30    3 1    
     8    5    4 ar   
     9   19    4 1    
    10    6    5 ar   
    11   31    5 1    
    12    7    6 1    
    13    8    7 1    
    14   32    7 1    
    15   33    7 1    
    16    9    8 am   
    17   34    8 1    
    18   10    9 2    
    19   11    9 1    
    20   12   11 ar   
    21   16   11 ar   
    22   13   12 ar   
    23   35   12 1    
    24   14   13 ar   
    25   36   13 1    
    26   15   14 ar   
    27   37   14 1    
    28   16   15 ar   
    29   38   15 1    
    30   17   16 1    
    31   21   20 1    
    32   22   21 2    
    33   23   21 1    
    34   24   23 ar   
    35   28   23 ar   
    36   25   24 ar   
    37   39   24 1    
    38   26   25 ar   
    39   40   25 1    
    40   27   26 ar   
    41   41   26 1    
    42   28   27 ar   
    43   42   27 1    
    44   29   28 1    
    45   43   29 1    
    46   44   29 1    
    47   45   29 1    
@<TRIPOS>SUBSTRUCTURE
     1 TX3174      1 GROUP   
@<TRIPOS>SET

