#    Name: 1XKB_1_CAVITY_N1_6.mol2
#    Modification time : Mon Mar 10 18:31:43 2014

@<TRIPOS>MOLECULE
1XKB_1_CAVITY_N1_6.mol2
   75     0     4     0     0
SMALL
NO_CHARGES


@<TRIPOS>ATOM
      1 CA         -8.2169    7.3281   22.0693 C.3       3 GLY6        0.0000 
      2 N          -7.0481    3.7390   16.9456 N.2       2 ALA2        0.0000 
      3 CA         -8.3734    3.7901   15.2900 C.3       3 GLY6        0.0000 
      4 CA         -7.8195    2.7109   16.1724 C.3       3 GLY6        0.0000 
      5 CA         -3.5726    6.6550   18.3305 C.3       3 GLY6        0.0000 
      6 O          -7.6675   12.1022   12.2633 O.2       2 ALA2        0.0000 
      7 O          -7.1136   11.0230   13.1457 O.2       2 ALA2        0.0000 
      8 CA         -4.8980    6.7061   16.6750 C.3       3 GLY6        0.0000 
      9 N          -4.3441    5.6269   17.5573 N.2       2 ALA2        0.0000 
     10 O          -3.7902    4.5477   18.4397 O.2       2 ALA2        0.0000 
     11 DU         -8.4389   11.0741   11.4901 H         4 CUB7        0.0000 
     12 O          -7.8850    9.9949   12.3725 O.2       2 ALA2        0.0000 
     13 O          -7.3311    8.9157   13.2548 O.2       2 ALA2        0.0000 
     14 CA         -6.7773    7.8365   14.1371 C.3       3 GLY6        0.0000 
     15 CA         -6.2234    6.7573   15.0195 C.3       3 GLY6        0.0000 
     16 CA         -5.6695    5.6780   15.9018 C.3       3 GLY6        0.0000 
     17 O          -5.1156    4.5988   16.7841 O.2       2 ALA2        0.0000 
     18 O          -9.2104   10.0460   10.7169 O.2       2 ALA2        0.0000 
     19 O          -8.1026    7.8876   12.4816 O.2       2 ALA2        0.0000 
     20 CA         -7.5487    6.8084   13.3639 C.3       3 GLY6        0.0000 
     21 DU         -6.9948    5.7292   14.2462 H         4 CUB7        0.0000 
     22 CA         -6.4409    4.6499   15.1286 C.3       3 GLY6        0.0000 
     23 CA         -5.8870    3.5707   16.0109 C.3       3 GLY6        0.0000 
     24 O          -8.3202    5.7803   12.5907 O.2       2 ALA2        0.0000 
     25 OG         -7.7663    4.7010   13.4730 O.2       1 SER1        0.0000 
     26 CA         -7.2124    3.6218   14.3554 C.3       3 GLY6        0.0000 
     27 N          -1.8577    5.4076   18.2782 N.2       2 ALA2        0.0000 
     28 CA         -5.9525   10.8547   12.2110 C.3       3 GLY6        0.0000 
     29 O          -3.7369    6.5379   15.7403 O.2       2 ALA2        0.0000 
     30 CA         -3.1830    5.4587   16.6226 C.3       3 GLY6        0.0000 
     31 O          -2.6291    4.3795   17.5050 O.2       2 ALA2        0.0000 
     32 N          -7.2779   10.9058   10.5554 N.2       2 ALA2        0.0000 
     33 CA         -6.7240    9.8266   11.4378 C.3       3 GLY6        0.0000 
     34 CA         -6.1701    8.7474   12.3201 C.3       3 GLY6        0.0000 
     35 CA         -5.6162    7.6682   13.2024 C.3       3 GLY6        0.0000 
     36 OG         -5.0623    6.5890   14.0848 O.2       1 SER1        0.0000 
     37 OG         -4.5084    5.5098   14.9671 O.2       1 SER1        0.0000 
     38 CA         -3.9545    4.4306   15.8494 C.3       3 GLY6        0.0000 
     39 N          -8.0493    9.8777    9.7822 N.2       2 ALA2        0.0000 
     40 N          -7.4954    8.7985   10.6646 N.2       2 ALA2        0.0000 
     41 N          -6.9416    7.7193   11.5469 N.2       2 ALA2        0.0000 
     42 OG         -6.3877    6.6401   12.4292 O.2       1 SER1        0.0000 
     43 OG         -5.8338    5.5609   13.3116 O.2       1 SER1        0.0000 
     44 OG         -5.2799    4.4817   14.1939 O.2       1 SER1        0.0000 
     45 N          -7.1591    5.6120   11.6560 N.2       2 ALA2        0.0000 
     46 N          -6.6052    4.5328   12.5383 N.2       2 ALA2        0.0000 
     47 N          -2.0220    5.2904   15.6880 N.2       2 ALA2        0.0000 
     48 CA         -1.4681    4.2112   16.5703 C.3       3 GLY6        0.0000 
     49 O          -5.0090    8.5791   11.3854 O.2       2 ALA2        0.0000 
     50 OG         -4.4551    7.4999   12.2678 O.2       1 SER1        0.0000 
     51 OG         -2.7934    4.2623   14.9147 O.2       1 SER1        0.0000 
     52 N          -6.3344    8.6302    9.7299 N.2       2 ALA2        0.0000 
     53 N          -5.7805    7.5510   10.6122 N.2       2 ALA2        0.0000 
     54 CA         -6.8382    9.2672   21.0255 C.3       3 GLY6        0.0000 
     55 N          -7.6097    8.2390   20.2523 N.2       2 ALA2        0.0000 
     56 N          -8.3812    7.2109   19.4791 N.2       2 ALA2        0.0000 
     57 O          -7.8273    6.1317   20.3614 O.2       2 ALA2        0.0000 
     58 N          -8.5987    5.1036   19.5882 N.2       2 ALA2        0.0000 
     59 N          -6.4486    8.0708   19.3176 N.2       2 ALA2        0.0000 
     60 CA         -5.8948    6.9916   20.1999 C.3       3 GLY6        0.0000 
     61 N          -7.2201    7.0427   18.5444 N.2       2 ALA2        0.0000 
     62 N          -6.6662    5.9635   19.4267 N.2       2 ALA2        0.0000 
     63 N          -7.9916    6.0146   17.7712 N.2       2 ALA2        0.0000 
     64 DU         -8.7630    4.9865   16.9979 H         4 CUB7        0.0000 
     65 N          -8.2091    3.9073   17.8803 N.2       2 ALA2        0.0000 
     66 N          -8.9806    2.8792   17.1071 N.2       2 ALA2        0.0000 
     67 OG        -10.3059    2.9303   15.4515 O.2       1 SER1        0.0000 
     68 CA         -5.2876    7.9025   18.3829 C.3       3 GLY6        0.0000 
     69 CA         -6.0591    6.8744   17.6097 C.3       3 GLY6        0.0000 
     70 N          -5.5052    5.7952   18.4920 N.2       2 ALA2        0.0000 
     71 CA         -7.3844    6.9255   15.9541 C.3       3 GLY6        0.0000 
     72 CA         -6.8305    5.8463   16.8365 C.3       3 GLY6        0.0000 
     73 N          -6.2766    4.7671   17.7188 N.2       2 ALA2        0.0000 
     74 DU         -8.1559    5.8974   15.1809 H         4 CUB7        0.0000 
     75 DU         -7.6020    4.8182   16.0633 H         4 CUB7        0.0000 
@<TRIPOS>BOND
@<TRIPOS>SUBSTRUCTURE
     1 SER1       25 GROUP   
     2 ALA2        2 GROUP   
     3 GLY6        1 GROUP   
     4 CUB7       11 GROUP   
@<TRIPOS>SET

