#    Name: 1xkb_4PP_1_INTS_M
#    Modification time : Tue Mar 25 09:59:00 2014

@<TRIPOS>MOLECULE
1xkb_4PP_1_INTS_M
   55     0     6     0     0
SMALL
NO_CHARGES


@<TRIPOS>ATOM
      1 CA         -9.8080   -3.1695   19.7025 C.3       2 GLC5        0.0000 
      2 CA         -9.8720   -2.0620   18.2980 C.3       6 GLL5        0.0000 
      3 CA         -9.7440   -4.2770   21.1070 C.3       4 GLP5        0.0000 
      4 CA        -10.9875   -3.8660   15.3190 C.3       2 GLC5        0.0000 
      5 CA        -10.3600   -2.1260   15.8870 C.3       6 GLL5        0.0000 
      6 CA        -11.6150   -5.6060   14.7510 C.3       4 GLP5        0.0000 
      7 CA        -10.3060    1.5685   13.9830 C.3       2 GLC5        0.0000 
      8 CA        -10.9610    2.0750   15.8140 C.3       6 GLL5        0.0000 
      9 CA         -9.6510    1.0620   12.1520 C.3       4 GLP5        0.0000 
     10 O           1.0020    3.4060   19.3750 O.2       1 ALC1        0.0000 
     11 O          -0.2950    3.0770   18.5040 O.2       5 ALL1        0.0000 
     12 O           2.2990    3.7350   20.2460 O.2       3 ALP1        0.0000 
     13 O          -0.2835    4.3210   20.8510 O.2       1 ALC1        0.0000 
     14 O          -1.2470    4.4960   20.0110 O.2       5 ALL1        0.0000 
     15 O           0.6800    4.1460   21.6910 O.2       3 ALP1        0.0000 
     16 O          -2.4300    5.1660   20.6335 O.2       1 ALC1        0.0000 
     17 O          -3.6130    5.8360   21.2560 O.2       3 ALP1        0.0000 
     18 CA         -4.2355    7.5320   19.3515 C.3       2 GLC5        0.0000 
     19 CA         -5.9470    6.6880   18.6100 C.3       6 GLL5        0.0000 
     20 CA         -2.5240    8.3760   20.0930 C.3       4 GLP5        0.0000 
     21 CA         -2.8700    5.0865   13.2235 C.3       2 GLC5        0.0000 
     22 CA         -2.6130    5.0380   15.3470 C.3       6 GLL5        0.0000 
     23 CA         -3.1270    5.1350   11.1000 C.3       4 GLP5        0.0000 
     24 CA         -2.9925    6.6595   19.0765 C.3       2 GLC5        0.0000 
     25 CA         -3.4610    4.9430   18.0600 C.3       6 GLL5        0.0000 
     26 CA          0.2505    4.9060   16.4565 C.3       2 GLC5        0.0000 
     27 CA         -1.7320    4.5570   16.3530 C.3       6 GLL5        0.0000 
     28 CA          2.2330    5.2550   16.5600 C.3       4 GLP5        0.0000 
     29 CA         -9.4792   -2.2138   14.4675 C.3       2 GLC5        0.0000 
     30 CA        -10.5550   -0.7290   15.8870 C.3       6 GLL5        0.0000 
     31 CA         -8.5010   -3.0000   13.0480 C.3       4 GLP5        0.0000 
     32 CA         -6.1902    8.0625   17.3925 C.3       2 GLC5        0.0000 
     33 CA         -5.7820    9.2180   15.9920 C.3       4 GLP5        0.0000 
     34 CA         -6.0057    6.6440   20.7550 C.3       2 GLC5        0.0000 
     35 CA         -5.4130    6.3810   22.7170 C.3       4 GLP5        0.0000 
     36 CA         -7.0345    7.7975   16.7940 C.3       2 GLC5        0.0000 
     37 CA         -8.3730    6.7730   18.1790 C.3       6 GLL5        0.0000 
     38 CA         -2.1063    6.7265   16.3203 C.3       2 GLC5        0.0000 
     39 CA         -3.9220    5.4740   15.6960 C.3       6 GLL5        0.0000 
     40 CA         -0.9450    8.1970   17.1190 C.3       4 GLP5        0.0000 
     41 CA         -3.4577    7.2455   15.0843 C.3       2 GLC5        0.0000 
     42 CA         -3.6480    9.2350   14.6470 C.3       4 GLP5        0.0000 
     43 CA         -0.8847    4.0508   14.7850 C.3       2 GLC5        0.0000 
     44 CA          0.4030    3.3040   13.7200 C.3       4 GLP5        0.0000 
     45 CA         -3.8462    3.3045   15.6803 C.3       2 GLC5        0.0000 
     46 CA         -4.4250    1.3530   15.8390 C.3       4 GLP5        0.0000 
     47 CA         -2.4247    6.6907   17.3388 C.3       2 GLC5        0.0000 
     48 CA         -4.3480    5.4260   17.0570 C.3       6 GLL5        0.0000 
     49 CA         -5.5591    7.3949   16.5213 C.3       2 GLC5        0.0000 
     50 CA         -4.1647    3.2687   16.6988 C.3       2 GLC5        0.0000 
     51 CA         -1.4438    6.3647   17.0750 C.3       2 GLC5        0.0000 
     52 CA         -2.1530    4.5080   17.7090 C.3       6 GLL5        0.0000 
     53 CA         -3.1837    2.9428   16.4350 C.3       2 GLC5        0.0000 
     54 CA         -3.6549    3.3086   18.6114 C.3       2 GLC5        0.0000 
     55 CA         -4.2810    1.7710   19.5890 C.3       4 GLP5        0.0000 
@<TRIPOS>BOND
@<TRIPOS>SUBSTRUCTURE
     1 ALC1       10 GROUP        1 X    ALC  0     ROOT ALC X 1
     2 GLC5        1 GROUP        1 X    GLC  0     **** GLC X 6
     3 ALP1       12 GROUP        1 Y    ALP  0     ROOT ALP Y 8
     4 GLP5        3 GROUP        1 Y    GLP  0     **** GLP Y 13
     5 ALL1       11 GROUP        1 Z    ALL  0     ROOT ALL Z 15
     6 GLL5        2 GROUP        1 Z    GLL  0     **** GLL Z 20
@<TRIPOS>SET

