#    Name: 1xkb_4PP_1_ligand
#    Modification time : Tue Mar 25 09:59:00 2014

@<TRIPOS>MOLECULE
1xkb_4PP_1_ligand
   53    55     1     0     0
SMALL
NO_CHARGES


@<TRIPOS>ATOM
      1 C1C        -9.4390    6.4980   14.8820 C.2       1 4PP998      0.0000 
      2 O2         -9.1550    6.0210   13.7920 O.co2     1 4PP998      0.0000 
      3 O3         -9.7470    7.8180   14.9620 O.co2     1 4PP998      0.0000 
      4 N1P       -10.0200   -2.7870   17.0900 N.ar      1 4PP998      0.0000 
      5 C2P        -9.8720   -2.0620   18.2980 C.ar      1 4PP998      0.0000 
      6 C3P       -10.0660   -0.6570   18.3040 C.ar      1 4PP998      0.0000 
      7 C4P       -10.4080    0.0170   17.1050 C.ar      1 4PP998      0.0000 
      8 C5P       -10.5550   -0.7290   15.8870 C.ar      1 4PP998      0.0000 
      9 C6P       -10.3600   -2.1260   15.8870 C.ar      1 4PP998      0.0000 
     10 N1        -10.6070    1.5050   17.1480 N.pl3     1 4PP998      0.0000 
     11 C1         -9.4390    5.6200   16.1650 C.3       1 4PP998      0.0000 
     12 C2         -9.4630    4.1060   15.8220 C.3       1 4PP998      0.0000 
     13 C3        -10.9220    3.6130   15.8670 C.3       1 4PP998      0.0000 
     14 C4        -10.9610    2.0750   15.8140 C.3       1 4PP998      0.0000 
     15 N1A        -0.2950    3.0770   18.5040 N.pl3     1 4PP998      0.0000 
     16 N2A        -1.2470    4.4960   20.0110 N.pl3     1 4PP998      0.0000 
     17 C1A        -1.1890    3.9970   18.7960 C.ar      1 4PP998      0.0000 
     18 C1D        -5.9470    6.6880   18.6100 C.ar      1 4PP998      0.0000 
     19 C2D        -7.2500    7.1260   18.9760 C.ar      1 4PP998      0.0000 
     20 C3D        -8.3730    6.7730   18.1790 C.ar      1 4PP998      0.0000 
     21 C4D        -8.2010    5.9810   17.0130 C.ar      1 4PP998      0.0000 
     22 C5D        -6.8880    5.5390   16.6410 C.ar      1 4PP998      0.0000 
     23 C6D        -5.7610    5.8960   17.4470 C.ar      1 4PP998      0.0000 
     24 C1B        -2.6130    5.0380   15.3470 C.ar      1 4PP998      0.0000 
     25 C2B        -3.9220    5.4740   15.6960 C.ar      1 4PP998      0.0000 
     26 C3B        -4.3480    5.4260   17.0570 C.ar      1 4PP998      0.0000 
     27 C4B        -3.4610    4.9430   18.0600 C.ar      1 4PP998      0.0000 
     28 C5B        -2.1530    4.5080   17.7090 C.ar      1 4PP998      0.0000 
     29 C6B        -1.7320    4.5570   16.3530 C.ar      1 4PP998      0.0000 
     30 H          -9.6274   -2.5467   19.1586 H         1 4PP998      0.0000 
     31 H          -9.9593   -0.1321   19.1713 H         1 4PP998      0.0000 
     32 H         -10.8002   -0.2393   15.0293 H         1 4PP998      0.0000 
     33 H         -10.4634   -2.6584   15.0240 H         1 4PP998      0.0000 
     34 H         -10.5178    2.0161   17.9291 H         1 4PP998      0.0000 
     35 H         -10.3228    5.8619   16.7359 H         1 4PP998      0.0000 
     36 H          -8.8800    3.5714   16.5508 H         1 4PP998      0.0000 
     37 H          -9.0655    3.9636   14.8328 H         1 4PP998      0.0000 
     38 H         -11.4598    4.0135   15.0169 H         1 4PP998      0.0000 
     39 H         -11.3840    3.9506   16.7862 H         1 4PP998      0.0000 
     40 H         -11.9633    1.7648   15.5237 H         1 4PP998      0.0000 
     41 H         -10.2537    1.7375   15.0584 H         1 4PP998      0.0000 
     42 H          -0.3309    2.7076   17.5754 H         1 4PP998      0.0000 
     43 H           0.3389    2.8310   19.2373 H         1 4PP998      0.0000 
     44 H          -1.9454    5.1946   20.1669 H         1 4PP998      0.0000 
     45 H          -0.5875    4.1314   20.6684 H         1 4PP998      0.0000 
     46 H          -5.1456    6.9444   19.1855 H         1 4PP998      0.0000 
     47 H          -7.3784    7.6945   19.8121 H         1 4PP998      0.0000 
     48 H          -9.3047    7.0899   18.4460 H         1 4PP998      0.0000 
     49 H          -6.7606    4.9751   15.8088 H         1 4PP998      0.0000 
     50 H          -2.3085    5.0710   14.3763 H         1 4PP998      0.0000 
     51 H          -4.5533    5.8191   14.9787 H         1 4PP998      0.0000 
     52 H          -3.7643    4.9089   19.0321 H         1 4PP998      0.0000 
     53 H          -0.7941    4.2459   16.1005 H         1 4PP998      0.0000 
@<TRIPOS>BOND
     1    2    1 ar   
     2    3    1 ar   
     3   11    1 1    
     4    5    4 ar   
     5    9    4 ar   
     6    6    5 ar   
     7   30    5 1    
     8    7    6 ar   
     9   31    6 1    
    10    8    7 ar   
    11   10    7 1    
    12    9    8 ar   
    13   32    8 1    
    14   33    9 1    
    15   14   10 1    
    16   34   10 1    
    17   12   11 1    
    18   21   11 1    
    19   35   11 1    
    20   13   12 1    
    21   36   12 1    
    22   37   12 1    
    23   14   13 1    
    24   38   13 1    
    25   39   13 1    
    26   40   14 1    
    27   41   14 1    
    28   17   15 ar   
    29   42   15 1    
    30   43   15 1    
    31   17   16 ar   
    32   44   16 1    
    33   45   16 1    
    34   28   17 1    
    35   19   18 ar   
    36   23   18 ar   
    37   46   18 1    
    38   20   19 ar   
    39   47   19 1    
    40   21   20 ar   
    41   48   20 1    
    42   22   21 ar   
    43   23   22 ar   
    44   49   22 1    
    45   26   23 1    
    46   25   24 ar   
    47   29   24 ar   
    48   50   24 1    
    49   26   25 ar   
    50   51   25 1    
    51   27   26 ar   
    52   28   27 ar   
    53   52   27 1    
    54   29   28 ar   
    55   53   29 1    
@<TRIPOS>SUBSTRUCTURE
     1 4PP998      1 GROUP   
@<TRIPOS>SET

