#    Name: 3ox4_NAD_4_INTS_M
#    Modification time : Tue Mar 25 05:35:25 2014

@<TRIPOS>MOLECULE
3ox4_NAD_4_INTS_M
   75     0     9     0     0
SMALL
NO_CHARGES


@<TRIPOS>ATOM
      1 N          -3.6885   -7.3260  -32.1930 N.am      2 SEC2        0.0000 
      2 N          -2.9190   -8.0590  -33.2890 N.am      8 SEL2        0.0000 
      3 N          -4.4580   -6.5930  -31.0970 N.am      5 SEP2        0.0000 
      4 N          -3.3260   -9.4255  -33.6765 N.am      2 SEC2        0.0000 
      5 N          -3.7330  -10.7920  -34.0640 N.am      5 SEP2        0.0000 
      6 CA         -3.4205   -6.8240  -37.6675 C.3       3 GLC5        0.0000 
      7 CA         -1.9550   -8.0970  -37.0190 C.3       9 GLL5        0.0000 
      8 CA         -4.8860   -5.5510  -38.3160 C.3       6 GLP5        0.0000 
      9 CA         -5.1995  -12.0245  -36.7345 C.3       3 GLC5        0.0000 
     10 CA         -3.1790  -11.3380  -37.2740 C.3       9 GLL5        0.0000 
     11 CA         -7.2200  -12.7110  -36.1950 C.3       6 GLP5        0.0000 
     12 O          -4.7165  -12.4250  -36.1270 O.2       1 ALC1        0.0000 
     13 O          -4.0480  -12.4630  -37.5130 O.2       7 ALL1        0.0000 
     14 O          -5.3850  -12.3870  -34.7410 O.2       4 ALP1        0.0000 
     15 CA          0.1505  -11.3085  -37.3015 C.3       3 GLC5        0.0000 
     16 CA         -1.7450  -11.5770  -37.5390 C.3       9 GLL5        0.0000 
     17 CA          2.0460  -11.0400  -37.0640 C.3       6 GLP5        0.0000 
     18 N          -0.5705  -13.7570  -33.4540 N.am      2 SEC2        0.0000 
     19 N          -0.3230  -13.3710  -34.6190 N.am      8 SEL2        0.0000 
     20 N          -0.8180  -14.1430  -32.2890 N.am      5 SEP2        0.0000 
     21 CA         -1.6650  -15.3605  -35.1320 C.3       3 GLC5        0.0000 
     22 CA          0.0930  -14.1460  -35.6620 C.3       9 GLL5        0.0000 
     23 CA         -3.4230  -16.5750  -34.6020 C.3       6 GLP5        0.0000 
     24 CA          0.7220  -12.5315  -34.5050 C.3       3 GLC5        0.0000 
     25 CA          1.3510  -10.9170  -33.3480 C.3       6 GLP5        0.0000 
     26 O           1.8795  -15.2265  -33.5905 O.2       1 ALC1        0.0000 
     27 O           1.3650  -15.9690  -34.7120 O.2       7 ALL1        0.0000 
     28 O           2.3940  -14.4840  -32.4690 O.2       4 ALP1        0.0000 
     29 O           1.6400  -17.1045  -33.7375 O.2       1 ALC1        0.0000 
     30 O           1.9150  -18.2400  -32.7630 O.2       4 ALP1        0.0000 
     31 CA          2.6000  -15.3060  -37.9340 C.3       3 GLC5        0.0000 
     32 CA          0.6090  -15.2650  -38.1660 C.3       9 GLL5        0.0000 
     33 CA          4.5910  -15.3470  -37.7020 C.3       6 GLP5        0.0000 
     34 CA          2.0365  -14.6805  -39.1290 C.3       3 GLC5        0.0000 
     35 CA          3.4640  -14.0960  -40.0920 C.3       6 GLP5        0.0000 
     36 N          -0.8960   -7.9330  -31.2855 N.am      2 SEC2        0.0000 
     37 N           0.1970   -7.9220  -32.2040 N.am      8 SEL2        0.0000 
     38 N          -1.9890   -7.9440  -30.3670 N.am      5 SEP2        0.0000 
     39 N           1.0860   -8.8435  -31.7730 N.am      2 SEC2        0.0000 
     40 N           1.9750   -9.7650  -31.3420 N.am      5 SEP2        0.0000 
     41 CA         -4.0250   -4.8835  -31.6085 C.3       3 GLC5        0.0000 
     42 CA         -2.2230   -3.5670  -31.7840 C.3       9 GLL5        0.0000 
     43 CA         -5.8270   -6.2000  -31.4330 C.3       6 GLP5        0.0000 
     44 N          -5.1240   -2.3680  -33.7530 N.am      2 SEC2        0.0000 
     45 N          -3.9850   -2.0580  -32.5600 N.am      8 SEL2        0.0000 
     46 N          -6.2630   -2.6780  -34.9460 N.am      5 SEP2        0.0000 
     47 N          -3.6910    0.9025  -32.1185 N.am      2 SEC2        0.0000 
     48 N          -2.6110    0.0760  -31.4480 N.am      8 SEL2        0.0000 
     49 N          -4.7710    1.7290  -32.7890 N.am      5 SEP2        0.0000 
     50 CA         -2.7490    0.4315  -27.5860 C.3       3 GLC5        0.0000 
     51 CA         -1.1260   -0.4410  -28.2560 C.3       9 GLL5        0.0000 
     52 CA         -4.3720    1.3040  -26.9160 C.3       6 GLP5        0.0000 
     53 CA          2.3730    0.8385  -28.1540 C.3       3 GLC5        0.0000 
     54 CA          1.1490   -0.8450  -27.3440 C.3       9 GLL5        0.0000 
     55 CA          3.5970    2.5220  -28.9640 C.3       6 GLP5        0.0000 
     56 CA          0.1187  -15.0162  -33.6827 C.3       3 GLC5        0.0000 
     57 CA         -0.2450  -15.2820  -31.6370 C.3       6 GLP5        0.0000 
     58 CA          2.3708  -14.2578  -35.7172 C.3       3 GLC5        0.0000 
     59 CA          4.2590  -13.7650  -35.7060 C.3       6 GLP5        0.0000 
     60 CA          0.9575  -12.4593  -36.6602 C.3       3 GLC5        0.0000 
     61 CA         -2.1008   -5.4053  -30.8535 C.3       3 GLC5        0.0000 
     62 CA         -1.0300   -4.2680  -32.5260 C.3       9 GLL5        0.0000 
     63 CA         -2.5750   -6.8930  -29.5520 C.3       6 GLP5        0.0000 
     64 CA         -0.1257   -4.6753  -31.1100 C.3       3 GLC5        0.0000 
     65 CA          1.3750   -5.4330  -30.0650 C.3       6 GLP5        0.0000 
     66 CA         -0.7444   -2.0929  -33.1643 C.3       3 GLC5        0.0000 
     67 CA          0.6060   -1.1340  -34.0660 C.3       6 GLP5        0.0000 
     68 CA         -0.4203   -1.0710  -31.7542 C.3       3 GLC5        0.0000 
     69 CA         -1.9540   -1.1900  -31.4020 C.3       9 GLL5        0.0000 
     70 CA          1.1520   -0.5600  -32.7970 C.3       6 GLP5        0.0000 
     71 CA          1.1193   -3.8230  -28.5620 C.3       3 GLC5        0.0000 
     72 CA          0.3290   -2.3370  -29.0220 C.3       9 GLL5        0.0000 
     73 CA          1.4030   -5.4980  -28.5360 C.3       6 GLP5        0.0000 
     74 CA          1.3958   -1.6235  -30.2195 C.3       3 GLC5        0.0000 
     75 CA          1.9560   -1.0990  -31.8510 C.3       6 GLP5        0.0000 
@<TRIPOS>BOND
@<TRIPOS>SUBSTRUCTURE
     1 ALC1       12 GROUP        1 X    ALC  0     ROOT ALC X 1
     2 SEC2        1 GROUP        1 X    SEC  0     **** SEC X 2
     3 GLC5        6 GROUP        1 X    GLC  0     **** GLC X 6
     4 ALP1       14 GROUP        1 Y    ALP  0     ROOT ALP Y 8
     5 SEP2        3 GROUP        1 Y    SEP  0     **** SEP Y 9
     6 GLP5        8 GROUP        1 Y    GLP  0     **** GLP Y 13
     7 ALL1       13 GROUP        1 Z    ALL  0     ROOT ALL Z 15
     8 SEL2        2 GROUP        1 Z    SEL  0     **** SEL Z 16
     9 GLL5        7 GROUP        1 Z    GLL  0     **** GLL Z 20
@<TRIPOS>SET

