#    Name: 3ox4_NAD_4_ligand
#    Modification time : Tue Mar 25 05:35:25 2014

@<TRIPOS>MOLECULE
3ox4_NAD_4_ligand
   70    74     1     0     0
SMALL
NO_CHARGES


@<TRIPOS>ATOM
      1 PA         -2.7300   -7.3150  -34.5190 P.3       1 NAD1385     0.0000 
      2 O1A        -2.9190   -8.0590  -33.2890 O.co2     1 NAD1385     0.0000 
      3 O2A        -2.1880   -5.9830  -34.9380 O.co2     1 NAD1385     0.0000 
      4 O5B        -2.5780   -8.4420  -35.7640 O.3       1 NAD1385     0.0000 
      5 C5B        -1.9550   -8.0970  -37.0190 C.3       1 NAD1385     0.0000 
      6 C4B        -2.0450   -9.3250  -37.9660 C.3       1 NAD1385     0.0000 
      7 O4B        -1.0570  -10.3330  -37.6010 O.3       1 NAD1385     0.0000 
      8 C3B        -3.3720  -10.0730  -38.0520 C.3       1 NAD1385     0.0000 
      9 O3B        -3.7100  -10.3510  -39.4390 O.3       1 NAD1385     0.0000 
     10 C2B        -3.1790  -11.3380  -37.2740 C.3       1 NAD1385     0.0000 
     11 O2B        -4.0480  -12.4630  -37.5130 O.3       1 NAD1385     0.0000 
     12 C1B        -1.7450  -11.5770  -37.5390 C.3       1 NAD1385     0.0000 
     13 N9A        -1.0770  -12.4700  -36.5420 N.pl3     1 NAD1385     0.0000 
     14 C8A        -1.0230  -12.3690  -35.1400 C.2       1 NAD1385     0.0000 
     15 N7A        -0.3230  -13.3710  -34.6190 N.2       1 NAD1385     0.0000 
     16 C5A         0.0930  -14.1460  -35.6620 C.ar      1 NAD1385     0.0000 
     17 C6A         0.8720  -15.3550  -35.7950 C.ar      1 NAD1385     0.0000 
     18 N6A         1.3650  -15.9690  -34.7120 N.pl3     1 NAD1385     0.0000 
     19 N1A         1.1070  -15.8820  -37.0490 N.ar      1 NAD1385     0.0000 
     20 C2A         0.6090  -15.2650  -38.1660 C.ar      1 NAD1385     0.0000 
     21 N3A        -0.1310  -14.1310  -38.1480 N.ar      1 NAD1385     0.0000 
     22 C4A        -0.3550  -13.6110  -36.8510 C.ar      1 NAD1385     0.0000 
     23 O3         -1.1530   -7.4420  -34.1910 O.3       1 NAD1385     0.0000 
     24 PN         -0.1160   -6.7820  -33.1100 P.3       1 NAD1385     0.0000 
     25 O1N         0.9860   -6.1700  -33.8760 O.co2     1 NAD1385     0.0000 
     26 O2N         0.1970   -7.9220  -32.2040 O.co2     1 NAD1385     0.0000 
     27 O5D        -1.1790   -5.7480  -32.4050 O.3       1 NAD1385     0.0000 
     28 C5D        -1.0300   -4.2680  -32.5260 C.3       1 NAD1385     0.0000 
     29 C4D        -2.2230   -3.5670  -31.7840 C.3       1 NAD1385     0.0000 
     30 O4D        -1.9030   -3.3660  -30.4080 O.3       1 NAD1385     0.0000 
     31 C3D        -2.5630   -2.1860  -32.3700 C.3       1 NAD1385     0.0000 
     32 O3D        -3.9850   -2.0580  -32.5600 O.3       1 NAD1385     0.0000 
     33 C2D        -1.9540   -1.1900  -31.4020 C.3       1 NAD1385     0.0000 
     34 O2D        -2.6110    0.0760  -31.4480 O.3       1 NAD1385     0.0000 
     35 C1D        -2.0310   -1.9740  -30.0210 C.3       1 NAD1385     0.0000 
     36 N1N        -0.8970   -1.6050  -29.0890 N.pl3     1 NAD1385     0.0000 
     37 C2N        -1.1260   -0.4410  -28.2560 C.ar      1 NAD1385     0.0000 
     38 C3N        -0.0340   -0.0550  -27.3430 C.ar      1 NAD1385     0.0000 
     39 C7N        -0.1640    1.1230  -26.4550 C.2       1 NAD1385     0.0000 
     40 O7N        -0.8940    1.1540  -25.4370 O.2       1 NAD1385     0.0000 
     41 N7N         0.5350    2.2480  -26.7140 N.am      1 NAD1385     0.0000 
     42 C4N         1.1490   -0.8450  -27.3440 C.ar      1 NAD1385     0.0000 
     43 C5N         1.3420   -1.9590  -28.1540 C.ar      1 NAD1385     0.0000 
     44 C6N         0.3290   -2.3370  -29.0220 C.ar      1 NAD1385     0.0000 
     45 H          -0.9030   -7.8547  -36.8973 H         1 NAD1385     0.0000 
     46 H          -2.4595   -7.2690  -37.5090 H         1 NAD1385     0.0000 
     47 H          -1.7974   -8.9808  -38.9896 H         1 NAD1385     0.0000 
     48 H          -4.1189   -9.4770  -37.5713 H         1 NAD1385     0.0000 
     49 H          -3.2180  -11.0239  -36.1946 H         1 NAD1385     0.0000 
     50 H          -1.6608  -12.0706  -38.5314 H         1 NAD1385     0.0000 
     51 H          -1.4565  -11.6426  -34.6542 H         1 NAD1385     0.0000 
     52 H           1.0926  -16.9227  -34.5847 H         1 NAD1385     0.0000 
     53 H           1.9614  -15.4188  -34.1276 H         1 NAD1385     0.0000 
     54 H           0.8222  -15.7134  -39.1120 H         1 NAD1385     0.0000 
     55 H          -1.0579   -3.9600  -33.5624 H         1 NAD1385     0.0000 
     56 H          -0.1107   -3.9329  -32.0651 H         1 NAD1385     0.0000 
     57 H          -3.0944   -4.1968  -31.8868 H         1 NAD1385     0.0000 
     58 H          -2.0196   -2.1147  -33.3080 H         1 NAD1385     0.0000 
     59 H          -0.8940   -1.1363  -31.6431 H         1 NAD1385     0.0000 
     60 H          -2.9697   -1.7784  -29.5934 H         1 NAD1385     0.0000 
     61 H          -1.9607    0.0719  -28.2890 H         1 NAD1385     0.0000 
     62 H           0.3725    3.0187  -26.0979 H         1 NAD1385     0.0000 
     63 H           1.1533    2.2109  -27.4990 H         1 NAD1385     0.0000 
     64 H           1.9188   -0.5582  -26.6863 H         1 NAD1385     0.0000 
     65 H           2.2139   -2.4872  -28.1089 H         1 NAD1385     0.0000 
     66 H           0.4438   -3.1562  -29.6364 H         1 NAD1385     0.0000 
     67 H          -4.0051  -11.3065  -39.4469 H         1 NAD1385     0.0000 
     68 H          -4.8449  -12.3026  -36.9305 H         1 NAD1385     0.0000 
     69 H          -4.1823   -1.0919  -32.3934 H         1 NAD1385     0.0000 
     70 H          -2.7860    0.3116  -30.4920 H         1 NAD1385     0.0000 
@<TRIPOS>BOND
     1    2    1 ar   
     2    3    1 ar   
     3    4    1 1    
     4   23    1 1    
     5    5    4 1    
     6    6    5 1    
     7   45    5 1    
     8   46    5 1    
     9    7    6 1    
    10    8    6 1    
    11   47    6 1    
    12   12    7 1    
    13    9    8 1    
    14   10    8 1    
    15   48    8 1    
    16   67    9 1    
    17   11   10 1    
    18   12   10 1    
    19   49   10 1    
    20   68   11 1    
    21   13   12 1    
    22   50   12 1    
    23   14   13 1    
    24   22   13 1    
    25   15   14 2    
    26   51   14 1    
    27   16   15 1    
    28   17   16 ar   
    29   22   16 ar   
    30   18   17 1    
    31   19   17 ar   
    32   52   18 1    
    33   53   18 1    
    34   20   19 ar   
    35   21   20 ar   
    36   54   20 1    
    37   22   21 ar   
    38   24   23 1    
    39   25   24 ar   
    40   26   24 ar   
    41   27   24 1    
    42   28   27 1    
    43   29   28 1    
    44   55   28 1    
    45   56   28 1    
    46   30   29 1    
    47   31   29 1    
    48   57   29 1    
    49   35   30 1    
    50   32   31 1    
    51   33   31 1    
    52   58   31 1    
    53   69   32 1    
    54   34   33 1    
    55   35   33 1    
    56   59   33 1    
    57   70   34 1    
    58   36   35 1    
    59   60   35 1    
    60   37   36 ar   
    61   44   36 ar   
    62   38   37 ar   
    63   61   37 1    
    64   39   38 1    
    65   42   38 ar   
    66   40   39 2    
    67   41   39 am   
    68   62   41 1    
    69   63   41 1    
    70   43   42 ar   
    71   64   42 1    
    72   44   43 ar   
    73   65   43 1    
    74   66   44 1    
@<TRIPOS>SUBSTRUCTURE
     1 NAD1385     1 GROUP   
@<TRIPOS>SET

