#    Name: 1b5e_DCM_1_INTS_M
#    Modification time : Mon Mar 24 19:22:49 2014

@<TRIPOS>MOLECULE
1b5e_DCM_1_INTS_M
   64     0    12     0     0
SMALL
NO_CHARGES


@<TRIPOS>ATOM
      1 N          17.3985    8.3790   22.3965 N.am      2 SEC2        0.0000 
      2 N          17.7350    7.5250   23.4160 N.am     10 SEL2        0.0000 
      3 N          17.0620    9.2330   21.3770 N.am      6 SEP2        0.0000 
      4 N          15.4715    6.6490   22.0340 N.am      2 SEC2        0.0000 
      5 N          15.9010    6.2070   23.3400 N.am     10 SEL2        0.0000 
      6 N          15.0420    7.0910   20.7280 N.am      6 SEP2        0.0000 
      7 N          14.6215    5.4950   23.0010 N.am      2 SEC2        0.0000 
      8 N          13.3420    4.7830   22.6620 N.am      6 SEP2        0.0000 
      9 O          18.9210    9.9275   22.8410 O.2       1 ALC1        0.0000 
     10 O          19.5180    8.9520   23.6720 O.2       9 ALL1        0.0000 
     11 O          18.3240   10.9030   22.0100 O.2       5 ALP1        0.0000 
     12 O          18.2900    9.0925   22.5245 O.2       1 ALC1        0.0000 
     13 O          17.0620    9.2330   21.3770 O.2       5 ALP1        0.0000 
     14 O          20.7275    9.6710   24.3510 O.2       1 ALC1        0.0000 
     15 O          21.9370   10.3900   25.0300 O.2       5 ALP1        0.0000 
     16 CA         15.5475    3.8715   22.5305 C.3       4 GLC5        0.0000 
     17 CA         16.3620    3.4390   24.2980 C.3      12 GLL5        0.0000 
     18 CA         14.7330    4.3040   20.7630 C.3       8 GLP5        0.0000 
     19 O          14.3040    1.6145   26.7710 O.2       1 ALC1        0.0000 
     20 O          14.7400    2.3940   25.7910 O.2       9 ALL1        0.0000 
     21 O          13.8680    0.8350   27.7510 O.2       5 ALP1        0.0000 
     22 N          16.7650   -0.7680   26.3260 N.am      2 SEC2        0.0000 
     23 N          18.1480    0.2530   26.3900 N.am     10 SEL2        0.0000 
     24 N          15.3820   -1.7890   26.2620 N.am      6 SEP2        0.0000 
     25 NZ         19.2010   -1.0445   23.1950 N.4       3 LYC4        0.0000 
     26 NZ         18.1530   -0.7270   24.2000 N.4      11 LYL4        0.0000 
     27 NZ         21.2280   -0.4530   22.1830 N.4       7 LYP4        0.0000 
     28 NZ         16.8285   -1.3895   24.0925 N.4       3 LYC4        0.0000 
     29 NZ         14.8170   -2.1510   25.1180 N.4       7 LYP4        0.0000 
     30 N          19.2010   -1.0445   23.1950 N.am      2 SEC2        0.0000 
     31 N          18.1530   -0.7270   24.2000 N.am     10 SEL2        0.0000 
     32 N          20.2490   -1.3620   22.1900 N.am      6 SEP2        0.0000 
     33 N          17.4335   -0.0530   23.2865 N.am      2 SEC2        0.0000 
     34 N          16.7140    0.6210   22.3730 N.am      6 SEP2        0.0000 
     35 N          16.8285   -1.3895   24.0925 N.am      2 SEC2        0.0000 
     36 N          15.5040   -2.0520   23.9850 N.am      6 SEP2        0.0000 
     37 NZ         20.8140   -0.0940   24.4060 N.4       3 LYC4        0.0000 
     38 NZ         20.2700   -0.5590   25.5970 N.4      11 LYL4        0.0000 
     39 NZ         21.0945   -1.6865   26.1515 N.4       3 LYC4        0.0000 
     40 NZ         22.2720   -2.7100   27.9810 N.4       7 LYP4        0.0000 
     41 N          20.8140   -0.0940   24.4060 N.am      2 SEC2        0.0000 
     42 N          20.2700   -0.5590   25.5970 N.am     10 SEL2        0.0000 
     43 N          21.3580    0.3710   23.2150 N.am      6 SEP2        0.0000 
     44 N          21.0945   -1.6865   26.1515 N.am      2 SEC2        0.0000 
     45 N          21.9190   -2.8140   26.7060 N.am      6 SEP2        0.0000 
     46 NZ         18.1690   -1.7000   27.6925 N.4       3 LYC4        0.0000 
     47 NZ         18.3660   -2.0590   26.3670 N.4      11 LYL4        0.0000 
     48 NZ         17.9720   -1.3410   29.0180 N.4       7 LYP4        0.0000 
     49 NZ         16.8740   -1.9240   26.3145 N.4       3 LYC4        0.0000 
     50 N          18.1690   -1.7000   27.6925 N.am      2 SEC2        0.0000 
     51 N          18.3660   -2.0590   26.3670 N.am     10 SEL2        0.0000 
     52 N          17.9720   -1.3410   29.0180 N.am      6 SEP2        0.0000 
     53 N          16.8740   -1.9240   26.3145 N.am      2 SEC2        0.0000 
     54 CA         19.5875    4.9340   24.3440 C.3       4 GLC5        0.0000 
     55 CA         18.7360    5.9100   25.4090 C.3      12 GLL5        0.0000 
     56 CA         20.0780    3.4250   23.4680 C.3       8 GLP5        0.0000 
     57 CA         18.3010    3.7030   24.1390 C.3       4 GLC5        0.0000 
     58 CA         16.6860    4.5230   25.3220 C.3      12 GLL5        0.0000 
     59 CA         14.4715    4.6180   24.8290 C.3       4 GLC5        0.0000 
     60 CA         12.4190    5.2550   24.8480 C.3       8 GLP5        0.0000 
     61 CA         16.9247    1.7885   23.0440 C.3       4 GLC5        0.0000 
     62 CA         17.6470    0.7230   21.3270 C.3       8 GLP5        0.0000 
     63 CA         18.9032    2.7325   24.8347 C.3       4 GLC5        0.0000 
     64 CA         17.0900    2.4280   26.3160 C.3      12 GLL5        0.0000 
@<TRIPOS>BOND
@<TRIPOS>SUBSTRUCTURE
     1 ALC1        9 GROUP        1 X    ALC  0     ROOT ALC X 1
     2 SEC2        1 GROUP        1 X    SEC  0     **** SEC X 2
     3 LYC4       25 GROUP        1 X    LYC  0     **** LYC X 4
     4 GLC5       16 GROUP        1 X    GLC  0     **** GLC X 6
     5 ALP1       11 GROUP        1 Y    ALP  0     ROOT ALP Y 8
     6 SEP2        3 GROUP        1 Y    SEP  0     **** SEP Y 9
     7 LYP4       27 GROUP        1 Y    LYP  0     **** LYP Y 11
     8 GLP5       18 GROUP        1 Y    GLP  0     **** GLP Y 13
     9 ALL1       10 GROUP        1 Z    ALL  0     ROOT ALL Z 15
    10 SEL2        2 GROUP        1 Z    SEL  0     **** SEL Z 16
    11 LYL4       26 GROUP        1 Z    LYL  0     **** LYL Z 18
    12 GLL5       17 GROUP        1 Z    GLL  0     **** GLL Z 20
@<TRIPOS>SET

