#    Name: 1b5e_DCM_1_ligand
#    Modification time : Mon Mar 24 19:22:49 2014

@<TRIPOS>MOLECULE
1b5e_DCM_1_ligand
   32    33     1     0     0
SMALL
NO_CHARGES


@<TRIPOS>ATOM
      1 N1         17.5340    5.6150   24.8170 N.am      1 DCM300      0.0000 
      2 C2         17.0210    6.4590   23.8090 C.2       1 DCM300      0.0000 
      3 N3         17.7350    7.5250   23.4160 N.2       1 DCM300      0.0000 
      4 C4         18.8940    7.8250   24.0230 C.2       1 DCM300      0.0000 
      5 C5         19.4580    6.9760   25.0310 C.2       1 DCM300      0.0000 
      6 C6         18.7360    5.9100   25.4090 C.2       1 DCM300      0.0000 
      7 O2         15.9010    6.2070   23.3400 O.2       1 DCM300      0.0000 
      8 N4         19.5180    8.9520   23.6720 N.pl3     1 DCM300      0.0000 
      9 C1'        16.6860    4.5230   25.3220 C.3       1 DCM300      0.0000 
     10 C2'        16.3620    3.4390   24.2980 C.3       1 DCM300      0.0000 
     11 C3'        16.0430    2.2690   25.2240 C.3       1 DCM300      0.0000 
     12 C4'        17.0900    2.4280   26.3160 C.3       1 DCM300      0.0000 
     13 O4'        17.3780    3.8580   26.3710 O.3       1 DCM300      0.0000 
     14 O3'        14.7400    2.3940   25.7910 O.3       1 DCM300      0.0000 
     15 C5'        18.3670    1.6520   26.0870 C.3       1 DCM300      0.0000 
     16 O5'        18.1480    0.2530   26.3900 O.3       1 DCM300      0.0000 
     17 P          18.8240   -0.9120   25.5270 P.3       1 DCM300      0.0000 
     18 O1P        18.1530   -0.7270   24.2000 O.co2     1 DCM300      0.0000 
     19 O2P        20.2700   -0.5590   25.5970 O.co2     1 DCM300      0.0000 
     20 O3P        18.3660   -2.0590   26.3670 O.co2     1 DCM300      0.0000 
     21 H          20.3641    7.2080   25.4136 H         1 DCM300      0.0000 
     22 H          19.0866    5.2810   26.1718 H         1 DCM300      0.0000 
     23 H          20.3917    9.1305   24.1246 H         1 DCM300      0.0000 
     24 H          19.0556    9.5163   22.9881 H         1 DCM300      0.0000 
     25 H          15.7500    4.9141   25.6981 H         1 DCM300      0.0000 
     26 H          17.2127    3.2213   23.7254 H         1 DCM300      0.0000 
     27 H          15.5085    3.7063   23.7511 H         1 DCM300      0.0000 
     28 H          16.2186    1.3718   24.7164 H         1 DCM300      0.0000 
     29 H          16.6439    2.1268   27.2566 H         1 DCM300      0.0000 
     30 H          19.1493    2.0748   26.7256 H         1 DCM300      0.0000 
     31 H          18.6718    1.7854   25.0439 H         1 DCM300      0.0000 
     32 H          14.6922    1.6799   26.4894 H         1 DCM300      0.0000 
@<TRIPOS>BOND
     1    2    1 am   
     2    6    1 1    
     3    9    1 1    
     4    3    2 1    
     5    7    2 2    
     6    4    3 2    
     7    5    4 1    
     8    8    4 1    
     9    6    5 2    
    10   21    5 1    
    11   22    6 1    
    12   23    8 1    
    13   24    8 1    
    14   10    9 1    
    15   13    9 1    
    16   25    9 1    
    17   11   10 1    
    18   26   10 1    
    19   27   10 1    
    20   12   11 1    
    21   14   11 1    
    22   28   11 1    
    23   13   12 1    
    24   15   12 1    
    25   29   12 1    
    26   32   14 1    
    27   16   15 1    
    28   30   15 1    
    29   31   15 1    
    30   17   16 1    
    31   18   17 ar   
    32   19   17 ar   
    33   20   17 ar   
@<TRIPOS>SUBSTRUCTURE
     1 DCM300      1 GROUP   
@<TRIPOS>SET

