#    Name: 1s64_778_2_INTS_M
#    Modification time : Tue Mar 25 02:03:49 2014

@<TRIPOS>MOLECULE
1s64_778_2_INTS_M
   46     0     9     0     0
SMALL
NO_CHARGES


@<TRIPOS>ATOM
      1 CA        -23.5610   36.1660   67.3725 C.3       3 GLC5        0.0000 
      2 CA        -23.8070   34.5790   68.3050 C.3       9 GLL5        0.0000 
      3 CA        -23.3150   37.7530   66.4400 C.3       6 GLP5        0.0000 
      4 CA        -18.9750   34.3475   65.9270 C.3       3 GLC5        0.0000 
      5 CA        -19.5850   32.4490   66.9080 C.3       9 GLL5        0.0000 
      6 CA        -18.3650   36.2460   64.9460 C.3       6 GLP5        0.0000 
      7 CA        -20.6580   32.9655   65.0685 C.3       3 GLC5        0.0000 
      8 CA        -21.7310   33.4820   63.2290 C.3       6 GLP5        0.0000 
      9 N         -25.9705   32.8440   72.4095 N.am      1 SEC2        0.0000 
     10 N         -25.1220   32.9440   71.2440 N.am      7 SEL2        0.0000 
     11 N         -26.8190   32.7440   73.5750 N.am      4 SEP2        0.0000 
     12 Zn        -17.9590   33.6650   65.8265 Zn        2 ZIC7        0.0000 
     13 Zn        -18.3730   33.2150   66.6790 Zn        8 ZIL7        0.0000 
     14 Zn        -17.5450   34.1150   64.9740 Zn        5 ZIP7        0.0000 
     15 CA        -26.6580   39.2755   70.3865 C.3       3 GLC5        0.0000 
     16 CA        -26.8970   37.4850   69.5830 C.3       9 GLL5        0.0000 
     17 CA        -26.4190   41.0660   71.1900 C.3       6 GLP5        0.0000 
     18 CA        -30.3700   37.0585   69.9975 C.3       3 GLC5        0.0000 
     19 CA        -28.1620   36.8870   69.8500 C.3       9 GLL5        0.0000 
     20 CA        -32.5780   37.2300   70.1450 C.3       6 GLP5        0.0000 
     21 CA        -31.3500   33.9695   69.8435 C.3       3 GLC5        0.0000 
     22 CA        -29.7800   34.7210   70.2920 C.3       9 GLL5        0.0000 
     23 CA        -32.9200   33.2180   69.3950 C.3       6 GLP5        0.0000 
     24 CA        -28.7595   35.8975   71.8685 C.3       3 GLC5        0.0000 
     25 CA        -27.7390   37.0740   73.4450 C.3       6 GLP5        0.0000 
     26 CA        -30.3595   34.3700   72.0395 C.3       3 GLC5        0.0000 
     27 CA        -30.9390   34.0190   73.7870 C.3       6 GLP5        0.0000 
     28 CA        -31.1790   35.9755   70.2185 C.3       3 GLC5        0.0000 
     29 CA        -23.8125   35.7090   72.6990 C.3       3 GLC5        0.0000 
     30 CA        -21.7270   36.0130   72.0630 C.3       9 GLL5        0.0000 
     31 CA        -25.8980   35.4050   73.3350 C.3       6 GLP5        0.0000 
     32 CA        -24.6035   37.4020   72.3560 C.3       3 GLC5        0.0000 
     33 CA        -22.9640   37.9150   71.4090 C.3       9 GLL5        0.0000 
     34 CA        -26.2430   36.8890   73.3030 C.3       6 GLP5        0.0000 
     35 N         -23.4835   38.5590   73.2635 N.am      1 SEC2        0.0000 
     36 N         -23.7740   38.7090   71.6620 N.am      7 SEL2        0.0000 
     37 N         -23.1930   38.4090   74.8650 N.am      4 SEP2        0.0000 
     38 CA        -23.5265   33.2897   66.2710 C.3       3 GLC5        0.0000 
     39 CA        -23.6990   32.5710   64.4960 C.3       6 GLP5        0.0000 
     40 CA        -26.1902   35.1683   71.5110 C.3       3 GLC5        0.0000 
     41 CA        -25.8390   35.2200   69.5520 C.3       9 GLL5        0.0000 
     42 CA        -26.2800   36.9820   71.4057 C.3       3 GLC5        0.0000 
     43 CA        -25.7370   36.6650   69.4340 C.3       9 GLL5        0.0000 
     44 CA        -27.9800   36.6240   71.6778 C.3       3 GLC5        0.0000 
     45 CA        -21.7163   39.1239   70.8026 C.3       3 GLC5        0.0000 
     46 CA        -21.1030   40.7680   70.6530 C.3       6 GLP5        0.0000 
@<TRIPOS>BOND
@<TRIPOS>SUBSTRUCTURE
     1 SEC2        9 GROUP        1 X    SEC  0     ROOT SEC X 2
     2 ZIC7       12 GROUP        1 X    ZIC  0     **** ZIC X 5
     3 GLC5        1 GROUP        1 X    GLC  0     **** GLC X 6
     4 SEP2       11 GROUP        1 Y    SEP  0     ROOT SEP Y 9
     5 ZIP7       14 GROUP        1 Y    ZIP  0     **** ZIP Y 12
     6 GLP5        3 GROUP        1 Y    GLP  0     **** GLP Y 13
     7 SEL2       10 GROUP        1 Z    SEL  0     ROOT SEL Z 16
     8 ZIL7       13 GROUP        1 Z    ZIL  0     **** ZIL Z 19
     9 GLL5        2 GROUP        1 Z    GLL  0     **** GLL Z 20
@<TRIPOS>SET

