#    Name: 1s64_778_2_ligand
#    Modification time : Tue Mar 25 02:03:49 2014

@<TRIPOS>MOLECULE
1s64_778_2_ligand
   50    53     1     0     0
SMALL
NO_CHARGES


@<TRIPOS>ATOM
      1 N1        -22.2140   33.0220   69.0300 N.4       1 778381      0.0000 
      2 C2        -22.9010   33.4380   67.7870 C.3       1 778381      0.0000 
      3 C3        -21.0790   32.0980   68.9680 C.3       1 778381      0.0000 
      4 C4        -23.1050   32.4150   70.0470 C.3       1 778381      0.0000 
      5 C5        -23.8070   34.5790   68.3050 C.3       1 778381      0.0000 
      6 C7        -19.8910   32.6690   68.1990 C.2       1 778381      0.0000 
      7 C8        -24.3980   33.2660   70.3110 C.2       1 778381      0.0000 
      8 N9        -24.7380   34.3350   69.4140 N.am      1 778381      0.0000 
      9 N11       -18.9690   33.5060   68.7840 N.pl3     1 778381      0.0000 
     10 C12       -19.5850   32.4490   66.9080 C.2       1 778381      0.0000 
     11 O13       -25.1220   32.9440   71.2440 O.2       1 778381      0.0000 
     12 C14       -25.8390   35.2200   69.5520 C.ar      1 778381      0.0000 
     13 C16       -18.9390   33.9990   70.1900 C.3       1 778381      0.0000 
     14 C17       -18.0510   33.8390   67.8780 C.2       1 778381      0.0000 
     15 N18       -18.3730   33.2150   66.6790 N.2       1 778381      0.0000 
     16 C20       -27.1260   34.6430   69.8220 C.ar      1 778381      0.0000 
     17 C21       -25.7370   36.6650   69.4340 C.ar      1 778381      0.0000 
     18 C25       -20.0210   35.0640   70.5020 C.ar      1 778381      0.0000 
     19 C26       -28.2800   35.4610   69.9710 C.ar      1 778381      0.0000 
     20 C27       -26.8970   37.4850   69.5830 C.ar      1 778381      0.0000 
     21 C28       -20.7230   35.0390   71.7580 C.ar      1 778381      0.0000 
     22 C29       -20.3560   36.1000   69.5630 C.ar      1 778381      0.0000 
     23 C30       -28.1620   36.8870   69.8500 C.ar      1 778381      0.0000 
     24 CL31      -29.7800   34.7210   70.2920 Cl        1 778381      0.0000 
     25 C32       -21.7270   36.0130   72.0630 C.ar      1 778381      0.0000 
     26 C33       -21.3510   37.0670   69.8640 C.ar      1 778381      0.0000 
     27 C34       -22.0390   37.0220   71.1270 C.ar      1 778381      0.0000 
     28 C35       -22.9640   37.9150   71.4090 C.1       1 778381      0.0000 
     29 N36       -23.7740   38.7090   71.6620 N.1       1 778381      0.0000 
     30 H         -21.8155   33.9639   69.5435 H         1 778381      0.0000 
     31 H         -23.5121   32.6664   67.4070 H         1 778381      0.0000 
     32 H         -22.2214   33.8372   67.0855 H         1 778381      0.0000 
     33 H         -21.3773   31.1508   68.4837 H         1 778381      0.0000 
     34 H         -20.7356   31.8383   69.9855 H         1 778381      0.0000 
     35 H         -22.5835   32.3064   71.0076 H         1 778381      0.0000 
     36 H         -23.4310   31.4142   69.7326 H         1 778381      0.0000 
     37 H         -24.3779   34.9751   67.4070 H         1 778381      0.0000 
     38 H         -23.1222   35.4466   68.5649 H         1 778381      0.0000 
     39 H         -20.0057   31.9397   66.2615 H         1 778381      0.0000 
     40 H         -17.9541   34.4418   70.4171 H         1 778381      0.0000 
     41 H         -19.0805   33.1586   70.8910 H         1 778381      0.0000 
     42 H         -17.2866   34.4091   67.9993 H         1 778381      0.0000 
     43 H         -27.2080   33.6269   69.9075 H         1 778381      0.0000 
     44 H         -24.8325   37.0828   69.2447 H         1 778381      0.0000 
     45 H         -26.8181   38.4946   69.4982 H         1 778381      0.0000 
     46 H         -20.4991   34.3134   72.4408 H         1 778381      0.0000 
     47 H         -19.8653   36.1343   68.6660 H         1 778381      0.0000 
     48 H         -28.9899   37.4694   69.9564 H         1 778381      0.0000 
     49 H         -22.2108   35.9700   72.9578 H         1 778381      0.0000 
     50 H         -21.5832   37.7936   69.1939 H         1 778381      0.0000 
@<TRIPOS>BOND
     1    2    1 1    
     2    3    1 1    
     3    4    1 1    
     4   30    1 1    
     5    5    2 1    
     6   31    2 1    
     7   32    2 1    
     8    6    3 1    
     9   33    3 1    
    10   34    3 1    
    11    7    4 1    
    12   35    4 1    
    13   36    4 1    
    14    8    5 1    
    15   37    5 1    
    16   38    5 1    
    17    9    6 1    
    18   10    6 2    
    19    8    7 am   
    20   11    7 2    
    21   12    8 1    
    22   13    9 1    
    23   14    9 1    
    24   15   10 1    
    25   39   10 1    
    26   16   12 ar   
    27   17   12 ar   
    28   18   13 1    
    29   40   13 1    
    30   41   13 1    
    31   15   14 2    
    32   42   14 1    
    33   19   16 ar   
    34   43   16 1    
    35   20   17 ar   
    36   44   17 1    
    37   21   18 ar   
    38   22   18 ar   
    39   23   19 ar   
    40   24   19 1    
    41   23   20 ar   
    42   45   20 1    
    43   25   21 ar   
    44   46   21 1    
    45   26   22 ar   
    46   47   22 1    
    47   48   23 1    
    48   27   25 ar   
    49   49   25 1    
    50   27   26 ar   
    51   50   26 1    
    52   28   27 1    
    53   29   28 3    
@<TRIPOS>SUBSTRUCTURE
     1 778381      1 GROUP   
@<TRIPOS>SET

