#    Name: 2xok_ANP_5_INTS_M
#    Modification time : Tue Mar 25 06:28:15 2014

@<TRIPOS>MOLECULE
2xok_ANP_5_INTS_M
   89     0    12     0     0
SMALL
NO_CHARGES


@<TRIPOS>ATOM
      1 NZ         36.1140   24.7300  -26.1945 N.4       2 LYC4        0.0000 
      2 NZ         37.3710   23.7970  -26.1310 N.4      10 LYL4        0.0000 
      3 NZ         34.0370   24.6350  -26.1180 N.4       6 LYP4        0.0000 
      4 NZ         36.8695   23.9580  -27.2350 N.4       2 LYC4        0.0000 
      5 NZ         36.7260   25.2890  -28.8640 N.4       6 LYP4        0.0000 
      6 N          36.1140   24.7300  -26.1945 N.am      1 SEC2        0.0000 
      7 N          37.3710   23.7970  -26.1310 N.am      9 SEL2        0.0000 
      8 N          34.8570   25.6630  -26.2580 N.am      5 SEP2        0.0000 
      9 N          35.9475   23.6000  -26.0565 N.am      1 SEC2        0.0000 
     10 N          34.5240   23.4030  -25.9820 N.am      5 SEP2        0.0000 
     11 N          37.4865   24.9370  -27.1855 N.am      1 SEC2        0.0000 
     12 N          37.6020   26.0770  -28.2400 N.am      5 SEP2        0.0000 
     13 N          36.8695   23.9580  -27.2350 N.am      1 SEC2        0.0000 
     14 N          36.3680   24.1190  -28.3390 N.am      5 SEP2        0.0000 
     15 NZ         39.3710   24.8890  -23.4575 N.4       2 LYC4        0.0000 
     16 NZ         38.6590   25.7930  -24.9970 N.4      10 LYL4        0.0000 
     17 NZ         40.0830   23.9850  -21.9180 N.4       6 LYP4        0.0000 
     18 Zn         38.6465   26.6030  -24.8575 Zn        3 ZIC7        0.0000 
     19 Zn         38.6590   25.7930  -24.9970 Zn       11 ZIL7        0.0000 
     20 Zn         38.6340   27.4130  -24.7180 Zn        7 ZIP7        0.0000 
     21 N          39.3985   26.5580  -26.0375 N.am      1 SEC2        0.0000 
     22 N          38.6590   25.7930  -24.9970 N.am      9 SEL2        0.0000 
     23 N          40.1380   27.3230  -27.0780 N.am      5 SEP2        0.0000 
     24 N          38.1305   25.9350  -26.6185 N.am      1 SEC2        0.0000 
     25 NZ         39.4965   23.5960  -23.0505 N.4       2 LYC4        0.0000 
     26 NZ         38.9100   23.2070  -24.1830 N.4      10 LYL4        0.0000 
     27 N          39.4965   23.5960  -23.0505 N.am      1 SEC2        0.0000 
     28 N          38.9100   23.2070  -24.1830 N.am      9 SEL2        0.0000 
     29 N          40.0830   23.9850  -21.9180 N.am      5 SEP2        0.0000 
     30 NZ         38.6355   24.4735  -21.5350 N.4       2 LYC4        0.0000 
     31 NZ         37.1880   24.9620  -21.1520 N.4      10 LYL4        0.0000 
     32 N          36.1285   24.0855  -20.5490 N.am      1 SEC2        0.0000 
     33 N          37.1880   24.9620  -21.1520 N.am      9 SEL2        0.0000 
     34 N          35.0690   23.2090  -19.9460 N.am      5 SEP2        0.0000 
     35 N          36.2640   25.3350  -20.2045 N.am      1 SEC2        0.0000 
     36 N          35.3400   25.7080  -19.2570 N.am      5 SEP2        0.0000 
     37 N          37.3690   26.2950  -20.4630 N.am      1 SEC2        0.0000 
     38 N          37.5500   27.6280  -19.7740 N.am      5 SEP2        0.0000 
     39 N          38.6355   24.4735  -21.5350 N.am      1 SEC2        0.0000 
     40 NZ         38.9915   25.5610  -22.2355 N.4       2 LYC4        0.0000 
     41 NZ         37.9000   27.1370  -22.5530 N.4      10 LYL4        0.0000 
     42 Zn         38.2670   27.2750  -23.6355 Zn        3 ZIC7        0.0000 
     43 Zn         37.9000   27.1370  -22.5530 Zn       11 ZIL7        0.0000 
     44 N          37.7250   27.3825  -21.1635 N.am      1 SEC2        0.0000 
     45 N          37.9000   27.1370  -22.5530 N.am      9 SEL2        0.0000 
     46 N          38.1080   28.2955  -22.0050 N.am      1 SEC2        0.0000 
     47 N          38.3160   29.4540  -21.4570 N.am      5 SEP2        0.0000 
     48 N          38.3770   28.1190  -23.3885 N.am      1 SEC2        0.0000 
     49 N          38.8540   29.1010  -24.2240 N.am      5 SEP2        0.0000 
     50 N          35.4380   30.0745  -21.8515 N.am      1 SEC2        0.0000 
     51 N          35.0000   28.9910  -22.1260 N.am      9 SEL2        0.0000 
     52 N          35.8760   31.1580  -21.5770 N.am      5 SEP2        0.0000 
     53 NZ         34.3635   25.9585  -25.1875 N.4       2 LYC4        0.0000 
     54 NZ         34.6900   27.2820  -24.2570 N.4      10 LYL4        0.0000 
     55 N          36.5475   27.0540  -20.8415 N.am      1 SEC2        0.0000 
     56 N          35.5450   26.4800  -21.9090 N.am      9 SEL2        0.0000 
     57 CA         33.6495   24.2520  -22.4225 C.3       4 GLC5        0.0000 
     58 CA         32.7800   25.8020  -22.5800 C.3      12 GLL5        0.0000 
     59 CA         34.5190   22.7020  -22.2650 C.3       8 GLP5        0.0000 
     60 CA         33.9950   26.4620  -20.9900 C.3       4 GLC5        0.0000 
     61 CA         35.2100   27.1220  -19.4000 C.3       8 GLP5        0.0000 
     62 CA         31.3305   26.6770  -24.6015 C.3       4 GLC5        0.0000 
     63 CA         30.5660   27.2030  -22.9450 C.3      12 GLL5        0.0000 
     64 CA         32.0950   26.1510  -26.2580 C.3       8 GLP5        0.0000 
     65 CA         28.8305   28.1415  -23.7340 C.3       4 GLC5        0.0000 
     66 CA         27.0950   29.0800  -24.5230 C.3       8 GLP5        0.0000 
     67 CA         28.0290   28.4495  -22.5835 C.3       4 GLC5        0.0000 
     68 CA         29.7210   27.7420  -21.8140 C.3      12 GLL5        0.0000 
     69 CA         26.3370   29.1570  -23.3530 C.3       8 GLP5        0.0000 
     70 CA         29.8930   26.4825  -18.7920 C.3       4 GLC5        0.0000 
     71 CA         30.0450   26.8330  -20.6340 C.3      12 GLL5        0.0000 
     72 CA         29.7410   26.1320  -16.9500 C.3       8 GLP5        0.0000 
     73 CA         29.6440   31.8455  -18.2890 C.3       4 GLC5        0.0000 
     74 CA         30.3540   30.3550  -17.2490 C.3      12 GLL5        0.0000 
     75 CA         28.9340   33.3360  -19.3290 C.3       8 GLP5        0.0000 
     76 CA         28.6570   29.4190  -16.2845 C.3       4 GLC5        0.0000 
     77 CA         28.1820   29.9860  -18.1920 C.3      12 GLL5        0.0000 
     78 CA         29.1320   28.8520  -14.3770 C.3       8 GLP5        0.0000 
     79 CA         28.5580   31.6610  -18.7605 C.3       4 GLC5        0.0000 
     80 CA         26.8960   30.1680  -19.7275 C.3       4 GLC5        0.0000 
     81 CA         25.6100   30.3500  -21.2630 C.3       8 GLP5        0.0000 
     82 CA         32.0610   26.0050  -24.3697 C.3       4 GLC5        0.0000 
     83 CA         31.2740   25.9160  -22.3830 C.3      12 GLL5        0.0000 
     84 CA         28.8957   25.9739  -23.1420 C.3       4 GLC5        0.0000 
     85 CA         27.4710   24.7970  -24.0450 C.3       8 GLP5        0.0000 
     86 CA         29.8930   29.3392  -16.0195 C.3       4 GLC5        0.0000 
     87 CA         30.9540   29.2980  -18.0750 C.3      12 GLL5        0.0000 
     88 CA         31.4563   30.7239  -19.1163 C.3       4 GLC5        0.0000 
     89 CA         32.5820   32.2090  -19.9220 C.3       8 GLP5        0.0000 
@<TRIPOS>BOND
@<TRIPOS>SUBSTRUCTURE
     1 SEC2        6 GROUP        1 X    SEC  0     ROOT SEC X 2
     2 LYC4        1 GROUP        1 X    LYC  0     **** LYC X 4
     3 ZIC7       18 GROUP        1 X    ZIC  0     **** ZIC X 5
     4 GLC5       57 GROUP        1 X    GLC  0     **** GLC X 6
     5 SEP2        8 GROUP        1 Y    SEP  0     ROOT SEP Y 9
     6 LYP4        3 GROUP        1 Y    LYP  0     **** LYP Y 11
     7 ZIP7       20 GROUP        1 Y    ZIP  0     **** ZIP Y 12
     8 GLP5       59 GROUP        1 Y    GLP  0     **** GLP Y 13
     9 SEL2        7 GROUP        1 Z    SEL  0     ROOT SEL Z 16
    10 LYL4        2 GROUP        1 Z    LYL  0     **** LYL Z 18
    11 ZIL7       19 GROUP        1 Z    ZIL  0     **** ZIL Z 19
    12 GLL5       58 GROUP        1 Z    GLL  0     **** GLL Z 20
@<TRIPOS>SET

