#    Name: 2xok_ANP_5_ligand
#    Modification time : Tue Mar 25 06:28:15 2014

@<TRIPOS>MOLECULE
2xok_ANP_5_ligand
   43    45     1     0     0
SMALL
NO_CHARGES


@<TRIPOS>ATOM
      1 PG         37.9480   24.3810  -24.7640 P.3       1 ANP600      0.0000 
      2 O1G        37.3710   23.7970  -26.1310 O.co2     1 ANP600      0.0000 
      3 O2G        38.6590   25.7930  -24.9970 O.co2     1 ANP600      0.0000 
      4 O3G        38.9100   23.2070  -24.1830 O.co2     1 ANP600      0.0000 
      5 PB         36.9190   25.9010  -22.3860 P.3       1 ANP600      0.0000 
      6 O1B        37.1880   24.9620  -21.1520 O.co2     1 ANP600      0.0000 
      7 O2B        37.9000   27.1370  -22.5530 O.co2     1 ANP600      0.0000 
      8 N3B        36.6430   24.7920  -23.6970 N.4       1 ANP600      0.0000 
      9 PA         34.6360   27.5380  -22.6870 P.3       1 ANP600      0.0000 
     10 O1A        35.0000   28.9910  -22.1260 O.co2     1 ANP600      0.0000 
     11 O2A        34.6900   27.2820  -24.2570 O.co2     1 ANP600      0.0000 
     12 O3A        35.5450   26.4800  -21.9090 O.3       1 ANP600      0.0000 
     13 O5'        33.2680   27.0210  -22.0520 O.3       1 ANP600      0.0000 
     14 C5'        32.7800   25.8020  -22.5800 C.3       1 ANP600      0.0000 
     15 C4'        31.2740   25.9160  -22.3830 C.3       1 ANP600      0.0000 
     16 O4'        30.9600   25.7910  -20.9910 O.3       1 ANP600      0.0000 
     17 C3'        30.5660   27.2030  -22.9450 C.3       1 ANP600      0.0000 
     18 O3'        29.7980   27.0310  -24.1290 O.3       1 ANP600      0.0000 
     19 C2'        29.7210   27.7420  -21.8140 C.3       1 ANP600      0.0000 
     20 O2'        28.3540   27.5010  -22.0680 O.3       1 ANP600      0.0000 
     21 C1'        30.0450   26.8330  -20.6340 C.3       1 ANP600      0.0000 
     22 N9         30.6550   27.7080  -19.6300 N.pl3     1 ANP600      0.0000 
     23 C8         31.9570   27.7670  -19.2440 C.2       1 ANP600      0.0000 
     24 N7         32.1590   28.7280  -18.2850 N.2       1 ANP600      0.0000 
     25 C5         30.9540   29.2980  -18.0750 C.ar      1 ANP600      0.0000 
     26 C6         30.3540   30.3550  -17.2490 C.ar      1 ANP600      0.0000 
     27 N6         31.2030   30.9910  -16.4070 N.pl3     1 ANP600      0.0000 
     28 N1         29.0150   30.6450  -17.3530 N.ar      1 ANP600      0.0000 
     29 C2         28.1820   29.9860  -18.1920 C.ar      1 ANP600      0.0000 
     30 N3         28.6020   29.0070  -19.0080 N.ar      1 ANP600      0.0000 
     31 C4         30.0070   28.6510  -18.9590 C.ar      1 ANP600      0.0000 
     32 H          33.1258   24.9469  -22.0328 H         1 ANP600      0.0000 
     33 H          32.9738   25.6994  -23.6298 H         1 ANP600      0.0000 
     34 H          30.8016   25.0545  -22.9158 H         1 ANP600      0.0000 
     35 H          31.3782   27.9412  -23.0938 H         1 ANP600      0.0000 
     36 H          29.9645   28.7077  -21.5829 H         1 ANP600      0.0000 
     37 H          29.1205   26.4481  -20.2509 H         1 ANP600      0.0000 
     38 H          32.6696   27.1965  -19.6022 H         1 ANP600      0.0000 
     39 H          30.7949   31.6803  -15.8084 H         1 ANP600      0.0000 
     40 H          32.1628   30.7149  -16.4584 H         1 ANP600      0.0000 
     41 H          27.1568   30.2580  -18.2012 H         1 ANP600      0.0000 
     42 H          29.8757   26.0586  -24.3487 H         1 ANP600      0.0000 
     43 H          28.3344   27.0237  -22.9465 H         1 ANP600      0.0000 
@<TRIPOS>BOND
     1    2    1 ar   
     2    3    1 ar   
     3    4    1 ar   
     4    8    1 1    
     5    6    5 ar   
     6    7    5 ar   
     7    8    5 1    
     8   12    5 1    
     9   10    9 ar   
    10   11    9 ar   
    11   12    9 1    
    12   13    9 1    
    13   14   13 1    
    14   15   14 1    
    15   32   14 1    
    16   33   14 1    
    17   16   15 1    
    18   17   15 1    
    19   34   15 1    
    20   21   16 1    
    21   18   17 1    
    22   19   17 1    
    23   35   17 1    
    24   42   18 1    
    25   20   19 1    
    26   21   19 1    
    27   36   19 1    
    28   43   20 1    
    29   22   21 1    
    30   37   21 1    
    31   23   22 1    
    32   31   22 1    
    33   24   23 2    
    34   38   23 1    
    35   25   24 1    
    36   26   25 ar   
    37   31   25 ar   
    38   27   26 1    
    39   28   26 ar   
    40   39   27 1    
    41   40   27 1    
    42   29   28 ar   
    43   30   29 ar   
    44   41   29 1    
    45   31   30 ar   
@<TRIPOS>SUBSTRUCTURE
     1 ANP600      1 GROUP   
@<TRIPOS>SET

