#    Name: 2b4y_APR_4_INTS_M
#    Modification time : Mon Mar 24 19:53:33 2014

@<TRIPOS>MOLECULE
2b4y_APR_4_INTS_M
   82     0     9     0     0
SMALL
NO_CHARGES


@<TRIPOS>ATOM
      1 N          30.8395   37.6475   40.5280 N.am      2 SEC2        0.0000 
      2 N          31.3890   37.6160   41.9440 N.am      8 SEL2        0.0000 
      3 N          30.2900   37.6790   39.1120 N.am      5 SEP2        0.0000 
      4 CA         30.3385   35.0410   43.6055 C.3       3 GLC5        0.0000 
      5 CA         31.3630   36.2880   42.1990 C.3       9 GLL5        0.0000 
      6 CA         29.3140   33.7940   45.0120 C.3       6 GLP5        0.0000 
      7 CA         32.0865   34.3880   41.8550 C.3       3 GLC5        0.0000 
      8 CA         32.8100   32.4880   41.5110 C.3       6 GLP5        0.0000 
      9 CA         33.3835   36.3210   42.1640 C.3       3 GLC5        0.0000 
     10 CA         35.4040   36.3540   42.1290 C.3       6 GLP5        0.0000 
     11 CA         31.9640   37.3960   40.5060 C.3       3 GLC5        0.0000 
     12 CA         32.5650   38.5040   38.8130 C.3       6 GLP5        0.0000 
     13 CA         29.6560   36.6715   41.6675 C.3       3 GLC5        0.0000 
     14 CA         27.9490   37.0550   41.1360 C.3       6 GLP5        0.0000 
     15 N          33.1245   35.0520   42.4330 N.am      2 SEC2        0.0000 
     16 N          31.9230   35.7800   43.3040 N.am      8 SEL2        0.0000 
     17 N          34.3260   34.3240   41.5620 N.am      5 SEP2        0.0000 
     18 CA         30.9385   35.1885   44.6090 C.3       3 GLC5        0.0000 
     19 CA         32.5630   36.5830   44.2060 C.3       9 GLL5        0.0000 
     20 CA         32.2810   38.5160   40.7795 C.3       3 GLC5        0.0000 
     21 CA         31.9970   38.5280   42.7460 C.3       9 GLL5        0.0000 
     22 O          31.0965   40.3075   41.3875 O.2       1 ALC1        0.0000 
     23 O          31.9920   39.8450   42.3930 O.2       7 ALL1        0.0000 
     24 O          30.2010   40.7700   40.3820 O.2       4 ALP1        0.0000 
     25 CA         31.4915   36.0715   46.1490 C.3       3 GLC5        0.0000 
     26 CA         33.2910   35.0210   45.9660 C.3       9 GLL5        0.0000 
     27 CA         29.6920   37.1220   46.3320 C.3       6 GLP5        0.0000 
     28 CA         31.3025   34.4075   45.4890 C.3       3 GLC5        0.0000 
     29 O          35.0580   33.4360   45.0860 O.2       1 ALC1        0.0000 
     30 O          35.5070   34.2190   46.1550 O.2       7 ALL1        0.0000 
     31 O          34.6090   32.6530   44.0170 O.2       4 ALP1        0.0000 
     32 CA         33.3980   31.8575   48.6750 C.3       3 GLC5        0.0000 
     33 CA         33.8880   33.8290   47.9140 C.3       9 GLL5        0.0000 
     34 CA         32.9080   29.8860   49.4360 C.3       6 GLP5        0.0000 
     35 N          33.4655   32.0015   46.1950 N.am      2 SEC2        0.0000 
     36 N          34.0210   32.4750   47.4510 N.am      8 SEL2        0.0000 
     37 N          32.9100   31.5280   44.9390 N.am      5 SEP2        0.0000 
     38 O          34.3150   32.5640   45.7340 O.2       1 ALC1        0.0000 
     39 O          34.0210   32.4750   47.4510 O.2       7 ALL1        0.0000 
     40 CA         30.8530   33.9575   46.4925 C.3       3 GLC5        0.0000 
     41 CA         32.3920   34.1210   47.9730 C.3       9 GLL5        0.0000 
     42 CA         32.0990   36.7625   50.0315 C.3       3 GLC5        0.0000 
     43 CA         31.9620   34.7660   49.2880 C.3       9 GLL5        0.0000 
     44 CA         32.2360   38.7590   50.7750 C.3       6 GLP5        0.0000 
     45 N          32.0785   36.7675   52.9045 N.am      2 SEC2        0.0000 
     46 N          32.1560   35.5870   52.2040 N.am      8 SEL2        0.0000 
     47 N          32.0010   37.9480   53.6050 N.am      5 SEP2        0.0000 
     48 N          32.4420   31.7770   52.2780 N.am      2 SEC2        0.0000 
     49 N          32.2620   33.0460   52.7690 N.am      8 SEL2        0.0000 
     50 N          32.6220   30.5080   51.7870 N.am      5 SEP2        0.0000 
     51 N          29.0930   30.8925   50.3065 N.am      2 SEC2        0.0000 
     52 N          29.7090   31.7810   51.0990 N.am      8 SEL2        0.0000 
     53 N          28.4770   30.0040   49.5140 N.am      5 SEP2        0.0000 
     54 N          30.6765   31.1655   50.1340 N.am      2 SEC2        0.0000 
     55 N          31.6440   30.5500   49.1690 N.am      5 SEP2        0.0000 
     56 N          27.6440   34.5265   50.4810 N.am      2 SEC2        0.0000 
     57 N          27.7990   33.4800   51.4050 N.am      8 SEL2        0.0000 
     58 N          27.4890   35.5730   49.5570 N.am      5 SEP2        0.0000 
     59 CA         29.6215   31.0580   56.8805 C.3       3 GLC5        0.0000 
     60 CA         28.5510   32.7750   57.3130 C.3       9 GLL5        0.0000 
     61 CA         30.6920   29.3410   56.4480 C.3       6 GLP5        0.0000 
     62 N          24.6055   32.8560   55.4440 N.am      2 SEC2        0.0000 
     63 N          25.9410   33.5530   54.8930 N.am      8 SEL2        0.0000 
     64 N          23.2700   32.1590   55.9950 N.am      5 SEP2        0.0000 
     65 CA         31.5980   39.7203   44.7563 C.3       3 GLC5        0.0000 
     66 CA         32.6410   38.0430   43.9770 C.3       9 GLL5        0.0000 
     67 CA         30.8770   41.1550   46.1510 C.3       6 GLP5        0.0000 
     68 CA         30.9958   37.5213   44.8754 C.3       3 GLC5        0.0000 
     69 CA         33.8518   37.1373   42.7739 C.3       3 GLC5        0.0000 
     70 CA         34.9757   35.5125   44.9415 C.3       3 GLC5        0.0000 
     71 CA         36.0820   36.1150   43.4540 C.3       6 GLP5        0.0000 
     72 CA         30.9345   35.7828   47.4813 C.3       3 GLC5        0.0000 
     73 CA         30.9655   32.8863   48.2422 C.3       3 GLC5        0.0000 
     74 CA         29.7540   31.3290   47.8540 C.3       6 GLP5        0.0000 
     75 CA         28.7865   30.1182   55.3903 C.3       3 GLC5        0.0000 
     76 CA         28.2710   31.6140   53.8850 C.3       9 GLL5        0.0000 
     77 CA         29.4670   28.4340   56.1820 C.3       6 GLP5        0.0000 
     78 CA         27.6638   35.2075   55.3852 C.3       3 GLC5        0.0000 
     79 CA         27.3060   33.3810   55.3700 C.3       9 GLL5        0.0000 
     80 CA         27.9350   36.8530   54.6680 C.3       6 GLP5        0.0000 
     81 CA         25.7677   31.8445   55.6390 C.3       3 GLC5        0.0000 
     82 CA         23.9120   31.0030   55.9370 C.3       6 GLP5        0.0000 
@<TRIPOS>BOND
@<TRIPOS>SUBSTRUCTURE
     1 ALC1       22 GROUP        1 X    ALC  0     ROOT ALC X 1
     2 SEC2        1 GROUP        1 X    SEC  0     **** SEC X 2
     3 GLC5        4 GROUP        1 X    GLC  0     **** GLC X 6
     4 ALP1       24 GROUP        1 Y    ALP  0     ROOT ALP Y 8
     5 SEP2        3 GROUP        1 Y    SEP  0     **** SEP Y 9
     6 GLP5        6 GROUP        1 Y    GLP  0     **** GLP Y 13
     7 ALL1       23 GROUP        1 Z    ALL  0     ROOT ALL Z 15
     8 SEL2        2 GROUP        1 Z    SEL  0     **** SEL Z 16
     9 GLL5        5 GROUP        1 Z    GLL  0     **** GLL Z 20
@<TRIPOS>SET

