#    Name: 2b4y_APR_4_ligand
#    Modification time : Mon Mar 24 19:53:33 2014

@<TRIPOS>MOLECULE
2b4y_APR_4_ligand
   57    60     1     0     0
SMALL
NO_CHARGES


@<TRIPOS>ATOM
      1 N1         31.3890   37.6160   41.9440 N.ar      1 APR4002     0.0000 
      2 C2         31.3630   36.2880   42.1990 C.ar      1 APR4002     0.0000 
      3 N3         31.9230   35.7800   43.3040 N.ar      1 APR4002     0.0000 
      4 C4         32.5630   36.5830   44.2060 C.ar      1 APR4002     0.0000 
      5 C5         32.6410   38.0430   43.9770 C.ar      1 APR4002     0.0000 
      6 C6         31.9970   38.5280   42.7460 C.ar      1 APR4002     0.0000 
      7 N6         31.9920   39.8450   42.3930 N.pl3     1 APR4002     0.0000 
      8 N7         33.3180   38.5560   45.0390 N.2       1 APR4002     0.0000 
      9 C8         33.6780   37.5330   45.8610 C.2       1 APR4002     0.0000 
     10 N9         33.2240   36.3610   45.3490 N.pl3     1 APR4002     0.0000 
     11 C1'        33.2910   35.0210   45.9660 C.3       1 APR4002     0.0000 
     12 C2'        34.4480   34.7990   46.8920 C.3       1 APR4002     0.0000 
     13 O2'        35.5070   34.2190   46.1550 O.3       1 APR4002     0.0000 
     14 C3'        33.8880   33.8290   47.9140 C.3       1 APR4002     0.0000 
     15 O3'        34.0210   32.4750   47.4510 O.3       1 APR4002     0.0000 
     16 O4'        32.1060   34.9310   46.8280 O.3       1 APR4002     0.0000 
     17 C4'        32.3920   34.1210   47.9730 C.3       1 APR4002     0.0000 
     18 C5'        31.9620   34.7660   49.2880 C.3       1 APR4002     0.0000 
     19 O5'        32.2140   33.8300   50.3670 O.3       1 APR4002     0.0000 
     20 PA         31.8120   34.1480   51.8750 P.3       1 APR4002     0.0000 
     21 O1A        32.1560   35.5870   52.2040 O.co2     1 APR4002     0.0000 
     22 O2A        32.2620   33.0460   52.7690 O.co2     1 APR4002     0.0000 
     23 O3A        30.1910   34.1860   51.7490 O.3       1 APR4002     0.0000 
     24 PB         29.1570   32.9730   51.8260 P.3       1 APR4002     0.0000 
     25 O1B        29.7090   31.7810   51.0990 O.co2     1 APR4002     0.0000 
     26 O2B        27.7990   33.4800   51.4050 O.co2     1 APR4002     0.0000 
     27 O5D        29.2030   32.5760   53.3930 O.3       1 APR4002     0.0000 
     28 C5D        28.2710   31.6140   53.8850 C.3       1 APR4002     0.0000 
     29 O4D        29.1240   32.1970   56.1360 O.3       1 APR4002     0.0000 
     30 O1D        29.3540   33.1360   58.4390 O.3       1 APR4002     0.0000 
     31 C1D        28.5510   32.7750   57.3130 C.3       1 APR4002     0.0000 
     32 O2D        26.3280   33.2860   57.5730 O.3       1 APR4002     0.0000 
     33 C2D        27.4790   33.7430   56.8350 C.3       1 APR4002     0.0000 
     34 O3D        25.9410   33.5530   54.8930 O.3       1 APR4002     0.0000 
     35 C3D        27.3060   33.3810   55.3700 C.3       1 APR4002     0.0000 
     36 C4D        27.9410   31.9910   55.3120 C.3       1 APR4002     0.0000 
     37 H          30.8916   35.6459   41.5113 H         1 APR4002     0.0000 
     38 H          32.7573   40.3937   42.7297 H         1 APR4002     0.0000 
     39 H          31.2236   40.1464   41.8285 H         1 APR4002     0.0000 
     40 H          34.1804   37.6286   46.6835 H         1 APR4002     0.0000 
     41 H          33.2441   34.2539   45.2376 H         1 APR4002     0.0000 
     42 H          34.6887   35.7025   47.3653 H         1 APR4002     0.0000 
     43 H          34.3080   33.9974   48.8498 H         1 APR4002     0.0000 
     44 H          31.8801   33.1561   47.8755 H         1 APR4002     0.0000 
     45 H          30.9040   35.0131   49.2169 H         1 APR4002     0.0000 
     46 H          32.5312   35.6848   49.4195 H         1 APR4002     0.0000 
     47 H          28.6888   30.6089   53.8843 H         1 APR4002     0.0000 
     48 H          27.3476   31.6139   53.3087 H         1 APR4002     0.0000 
     49 H          27.8386   31.8732   57.7130 H         1 APR4002     0.0000 
     50 H          27.7505   34.6874   56.9845 H         1 APR4002     0.0000 
     51 H          28.0073   34.0548   54.8296 H         1 APR4002     0.0000 
     52 H          27.2793   31.3090   55.7604 H         1 APR4002     0.0000 
     53 H          35.1421   34.0942   45.2323 H         1 APR4002     0.0000 
     54 H          34.7693   32.5006   46.7881 H         1 APR4002     0.0000 
     55 H          30.2693   32.7956   58.2237 H         1 APR4002     0.0000 
     56 H          25.5939   33.2263   56.8965 H         1 APR4002     0.0000 
     57 H          25.9570   34.4011   54.3633 H         1 APR4002     0.0000 
@<TRIPOS>BOND
     1    2    1 ar   
     2    6    1 ar   
     3    3    2 ar   
     4   37    2 1    
     5    4    3 ar   
     6    5    4 ar   
     7   10    4 1    
     8    6    5 ar   
     9    8    5 1    
    10    7    6 1    
    11   38    7 1    
    12   39    7 1    
    13    9    8 2    
    14   10    9 1    
    15   40    9 1    
    16   11   10 1    
    17   12   11 1    
    18   16   11 1    
    19   41   11 1    
    20   13   12 1    
    21   14   12 1    
    22   42   12 1    
    23   53   13 1    
    24   15   14 1    
    25   17   14 1    
    26   43   14 1    
    27   54   15 1    
    28   17   16 1    
    29   18   17 1    
    30   44   17 1    
    31   19   18 1    
    32   45   18 1    
    33   46   18 1    
    34   20   19 1    
    35   21   20 ar   
    36   22   20 ar   
    37   23   20 1    
    38   24   23 1    
    39   25   24 ar   
    40   26   24 ar   
    41   27   24 1    
    42   28   27 1    
    43   36   28 1    
    44   47   28 1    
    45   48   28 1    
    46   31   29 1    
    47   36   29 1    
    48   31   30 1    
    49   55   30 1    
    50   33   31 1    
    51   49   31 1    
    52   33   32 1    
    53   56   32 1    
    54   35   33 1    
    55   50   33 1    
    56   35   34 1    
    57   57   34 1    
    58   36   35 1    
    59   51   35 1    
    60   52   36 1    
@<TRIPOS>SUBSTRUCTURE
     1 APR4002     1 GROUP   
@<TRIPOS>SET

