#    Name: 1odc_A8B_1_INTS_M
#    Modification time : Mon Mar 24 19:55:29 2014

@<TRIPOS>MOLECULE
1odc_A8B_1_INTS_M
   90     0     6     0     0
SMALL
NO_CHARGES


@<TRIPOS>ATOM
      1 O           7.5375   69.3835   64.2235 O.2       1 ALC1        0.0000 
      2 O           6.1350   69.1900   64.5910 O.2       5 ALL1        0.0000 
      3 O           8.9400   69.5770   63.8560 O.2       3 ALP1        0.0000 
      4 CA          6.6065   67.7555   66.0335 C.3       2 GLC5        0.0000 
      5 CA          5.8610   69.4540   65.9360 C.3       6 GLL5        0.0000 
      6 CA          7.3520   66.0570   66.1310 C.3       4 GLP5        0.0000 
      7 CA          7.5330   68.3905   66.8785 C.3       2 GLC5        0.0000 
      8 CA          6.8890   70.0410   66.7410 C.3       6 GLL5        0.0000 
      9 CA          8.1770   66.7400   67.0160 C.3       4 GLP5        0.0000 
     10 CA          7.6595   68.9515   68.6730 C.3       2 GLC5        0.0000 
     11 CA          6.6450   70.3250   68.0800 C.3       6 GLL5        0.0000 
     12 CA          8.6740   67.5780   69.2660 C.3       4 GLP5        0.0000 
     13 CA          7.2380   69.4310   61.7375 C.3       2 GLC5        0.0000 
     14 CA          5.7470   68.4020   62.2640 C.3       6 GLL5        0.0000 
     15 CA          8.7290   70.4600   61.2110 C.3       4 GLP5        0.0000 
     16 CA          2.6055   66.5840   70.3695 C.3       2 GLC5        0.0000 
     17 CA          2.8900   65.7680   68.2940 C.3       6 GLL5        0.0000 
     18 CA          2.3210   67.4000   72.4450 C.3       4 GLP5        0.0000 
     19 CA          2.6135   65.4120   71.0600 C.3       2 GLC5        0.0000 
     20 CA          2.4280   64.7000   69.2800 C.3       6 GLL5        0.0000 
     21 CA          2.7990   66.1240   72.8400 C.3       4 GLP5        0.0000 
     22 CA          1.0010   63.0220   67.4330 C.3       2 GLC5        0.0000 
     23 CA          2.7540   63.2800   68.7240 C.3       6 GLL5        0.0000 
     24 CA         -0.7520   62.7640   66.1420 C.3       4 GLP5        0.0000 
     25 CA         -0.0925   62.1925   68.2150 C.3       2 GLC5        0.0000 
     26 CA          0.5670   61.6210   70.2880 C.3       6 GLL5        0.0000 
     27 CA          0.0750   59.9455   69.2300 C.3       2 GLC5        0.0000 
     28 CA         -0.4170   58.2700   68.1720 C.3       4 GLP5        0.0000 
     29 CA         -2.6645   62.4855   71.0075 C.3       2 GLC5        0.0000 
     30 CA         -1.6100   60.7890   71.1460 C.3       6 GLL5        0.0000 
     31 CA         -3.7190   64.1820   70.8690 C.3       4 GLP5        0.0000 
     32 CA         -3.4080   61.9730   72.0910 C.3       2 GLC5        0.0000 
     33 CA         -2.4410   60.2570   72.2180 C.3       6 GLL5        0.0000 
     34 CA         -4.3750   63.6890   71.9640 C.3       4 GLP5        0.0000 
     35 CA         -3.2280   58.4640   71.3520 C.3       2 GLC5        0.0000 
     36 CA         -3.8510   59.9360   71.8980 C.3       6 GLL5        0.0000 
     37 CA         -2.6050   56.9920   70.8060 C.3       4 GLP5        0.0000 
     38 CA         -4.4860   61.9840   69.4830 C.3       2 GLC5        0.0000 
     39 CA         -3.5320   60.6640   69.5780 C.3       6 GLL5        0.0000 
     40 CA         -5.4400   63.3040   69.3880 C.3       4 GLP5        0.0000 
     41 CA         -3.3610   59.1380   68.9580 C.3       2 GLC5        0.0000 
     42 CA         -3.1900   57.6120   68.3380 C.3       4 GLP5        0.0000 
     43 CA         -3.2180   62.4860   69.7055 C.3       2 GLC5        0.0000 
     44 CA         -2.1930   60.9810   69.8200 C.3       6 GLL5        0.0000 
     45 CA         -4.2430   63.9910   69.5910 C.3       4 GLP5        0.0000 
     46 CA          5.3050   70.9682   65.1792 C.3       2 GLC5        0.0000 
     47 CA          4.2350   72.1890   64.0200 C.3       4 GLP5        0.0000 
     48 CA          8.6720   70.3795   67.0452 C.3       2 GLC5        0.0000 
     49 CA         10.5770   70.5760   66.6800 C.3       4 GLP5        0.0000 
     50 CA          7.5405   71.7045   66.4147 C.3       2 GLC5        0.0000 
     51 CA          8.3140   73.2260   65.4190 C.3       4 GLP5        0.0000 
     52 CA          5.8807   71.5180   69.4610 C.3       2 GLC5        0.0000 
     53 CA          5.7620   72.8620   70.5620 C.3       4 GLP5        0.0000 
     54 CA          5.7475   68.0072   68.4928 C.3       2 GLC5        0.0000 
     55 CA          4.3460   69.4460   67.8610 C.3       6 GLL5        0.0000 
     56 CA          6.6450   66.2800   68.7350 C.3       4 GLP5        0.0000 
     57 CA          4.7265   68.8918   70.1028 C.3       2 GLC5        0.0000 
     58 CA          5.3540   70.0230   68.6400 C.3       6 GLL5        0.0000 
     59 CA          4.6030   68.0490   71.9550 C.3       4 GLP5        0.0000 
     60 CA          3.8178   70.6771   66.5919 C.3       2 GLC5        0.0000 
     61 CA          2.9380   71.9220   65.8270 C.3       4 GLP5        0.0000 
     62 CA          5.1060   67.1530   66.2820 C.3       2 GLC5        0.0000 
     63 CA          4.5450   69.1300   66.4630 C.3       6 GLL5        0.0000 
     64 CA          6.1680   65.4720   66.5680 C.3       4 GLP5        0.0000 
     65 CA          2.5817   69.8970   64.8057 C.3       2 GLC5        0.0000 
     66 CA          3.5430   68.5380   65.5290 C.3       6 GLL5        0.0000 
     67 CA          2.1490   71.5960   64.7630 C.3       4 GLP5        0.0000 
     68 CA          2.1455   66.0222   61.7465 C.3       2 GLC5        0.0000 
     69 CA          2.9820   67.6030   63.1060 C.3       6 GLL5        0.0000 
     70 CA          0.9730   64.7050   61.0470 C.3       4 GLP5        0.0000 
     71 CA          6.9165   67.0618   62.9808 C.3       2 GLC5        0.0000 
     72 CA          8.3320   65.6110   62.9850 C.3       4 GLP5        0.0000 
     73 CA          4.0860   65.9262   67.9772 C.3       2 GLC5        0.0000 
     74 CA          5.8270   65.5860   67.8480 C.3       4 GLP5        0.0000 
     75 CA          4.2090   64.7880   68.4250 C.3       2 GLC5        0.0000 
     76 CA          3.5628   63.2920   71.7905 C.3       2 GLC5        0.0000 
     77 CA          3.0270   62.2120   69.8040 C.3       6 GLL5        0.0000 
     78 CA          4.6680   64.4220   73.2520 C.3       4 GLP5        0.0000 
     79 CA         -1.4487   59.3345   69.9270 C.3       2 GLC5        0.0000 
     80 CA         -0.9960   57.7840   69.3710 C.3       4 GLP5        0.0000 
     81 CA         -1.9708   58.4386   72.5799 C.3       2 GLC5        0.0000 
     82 CA         -1.4020   57.0750   71.4560 C.3       4 GLP5        0.0000 
     83 CA         -4.1798   57.8670   72.4382 C.3       2 GLC5        0.0000 
     84 CA         -4.2460   59.1660   74.1780 C.3       6 GLL5        0.0000 
     85 CA         -3.8710   56.4520   71.3440 C.3       4 GLP5        0.0000 
     86 CA         -4.9355   61.3250   72.1097 C.3       2 GLC5        0.0000 
     87 CA         -4.7310   59.3980   72.8870 C.3       6 GLL5        0.0000 
     88 CA         -5.5800   62.9830   71.8270 C.3       4 GLP5        0.0000 
     89 CA         -2.4987   61.8088   67.9635 C.3       2 GLC5        0.0000 
     90 CA         -2.1350   62.7950   66.2280 C.3       4 GLP5        0.0000 
@<TRIPOS>BOND
@<TRIPOS>SUBSTRUCTURE
     1 ALC1        1 GROUP        1 X    ALC  0     ROOT ALC X 1
     2 GLC5        4 GROUP        1 X    GLC  0     **** GLC X 6
     3 ALP1        3 GROUP        1 Y    ALP  0     ROOT ALP Y 8
     4 GLP5        6 GROUP        1 Y    GLP  0     **** GLP Y 13
     5 ALL1        2 GROUP        1 Z    ALL  0     ROOT ALL Z 15
     6 GLL5        5 GROUP        1 Z    GLL  0     **** GLL Z 20
@<TRIPOS>SET

