#    Name: 1odc_A8B_1_ligand
#    Modification time : Mon Mar 24 19:55:30 2014

@<TRIPOS>MOLECULE
1odc_A8B_1_ligand
   79    83     1     0     0
SMALL
NO_CHARGES


@<TRIPOS>ATOM
      1 N7          6.1350   69.1900   64.5910 N.pl3     1 A8B1538     0.0000 
      2 C1          5.8610   69.4540   65.9360 C.3       1 A8B1538     0.0000 
      3 C6          6.8890   70.0410   66.7410 C.3       1 A8B1538     0.0000 
      4 C5          6.6450   70.3250   68.0800 C.3       1 A8B1538     0.0000 
      5 C4          5.3540   70.0230   68.6400 C.3       1 A8B1538     0.0000 
      6 C3          4.3460   69.4460   67.8610 C.3       1 A8B1538     0.0000 
      7 C2          4.5450   69.1300   66.4630 C.2       1 A8B1538     0.0000 
      8 C10         3.5430   68.5380   65.5290 C.2       1 A8B1538     0.0000 
      9 C9          3.9180   68.2560   64.1370 C.ar      1 A8B1538     0.0000 
     10 C14         2.9820   67.6030   63.1060 C.ar      1 A8B1538     0.0000 
     11 C15         3.6540   67.0760   61.7860 C.ar      1 A8B1538     0.0000 
     12 C16         4.5880   68.1550   61.2350 C.ar      1 A8B1538     0.0000 
     13 C17         5.7470   68.4020   62.2640 C.ar      1 A8B1538     0.0000 
     14 C8          5.2550   68.6230   63.6890 C.ar      1 A8B1538     0.0000 
     15 N11         2.2730   68.2480   65.9690 N.4       1 A8B1538     0.0000 
     16 C25         1.7740   66.9400   66.3990 C.3       1 A8B1538     0.0000 
     17 C24         1.8000   66.7650   67.9190 C.3       1 A8B1538     0.0000 
     18 C21         2.8900   65.7680   68.2940 C.3       1 A8B1538     0.0000 
     19 C20         2.4280   64.7000   69.2800 C.3       1 A8B1538     0.0000 
     20 C19         2.7540   63.2800   68.7240 C.3       1 A8B1538     0.0000 
     21 C22         3.0270   62.2120   69.8040 C.3       1 A8B1538     0.0000 
     22 C29         1.8880   62.1120   70.8540 C.3       1 A8B1538     0.0000 
     23 C30         0.5670   61.6210   70.2880 C.3       1 A8B1538     0.0000 
     24 N24        -0.2940   61.1060   71.3790 N.4       1 A8B1538     0.0000 
     25 C35        -1.6100   60.7890   71.1460 C.3       1 A8B1538     0.0000 
     26 C34        -2.4410   60.2570   72.2180 C.3       1 A8B1538     0.0000 
     27 C39        -1.9870   60.0040   73.5690 C.3       1 A8B1538     0.0000 
     28 C40        -2.8650   59.4740   74.5140 C.3       1 A8B1538     0.0000 
     29 C41        -4.2460   59.1660   74.1780 C.3       1 A8B1538     0.0000 
     30 C42        -4.7310   59.3980   72.8870 C.3       1 A8B1538     0.0000 
     31 C33        -3.8510   59.9360   71.8980 C.3       1 A8B1538     0.0000 
     32 N32        -4.3240   60.1620   70.5740 N.4       1 A8B1538     0.0000 
     33 C26        -3.5320   60.6640   69.5780 C.3       1 A8B1538     0.0000 
     34 C27        -2.1930   60.9810   69.8200 C.3       1 A8B1538     0.0000 
     35 H           7.1078   69.4506   64.2367 H         1 A8B1538     0.0000 
     36 H           6.3288   68.1340   66.2908 H         1 A8B1538     0.0000 
     37 H           7.2582   70.9951   66.2056 H         1 A8B1538     0.0000 
     38 H           7.8309   69.3789   66.6528 H         1 A8B1538     0.0000 
     39 H           6.8702   71.4340   68.2898 H         1 A8B1538     0.0000 
     40 H           7.4422   69.8176   68.7369 H         1 A8B1538     0.0000 
     41 H           4.9493   70.9899   69.1326 H         1 A8B1538     0.0000 
     42 H           5.5233   69.3758   69.5854 H         1 A8B1538     0.0000 
     43 H           3.3861   70.0955   67.9362 H         1 A8B1538     0.0000 
     44 H           3.9645   68.4814   68.3834 H         1 A8B1538     0.0000 
     45 H           2.0504   67.5157   63.2438 H         1 A8B1538     0.0000 
     46 H           3.5000   66.2713   61.4328 H         1 A8B1538     0.0000 
     47 H           4.5059   68.5862   60.4583 H         1 A8B1538     0.0000 
     48 H           6.6369   68.4085   62.0074 H         1 A8B1538     0.0000 
     49 H           2.3760   66.1289   65.9525 H         1 A8B1538     0.0000 
     50 H           0.7349   66.7892   66.0565 H         1 A8B1538     0.0000 
     51 H           0.8393   66.3936   68.2527 H         1 A8B1538     0.0000 
     52 H           2.0069   67.7199   68.3854 H         1 A8B1538     0.0000 
     53 H           3.7409   66.3142   68.7308 H         1 A8B1538     0.0000 
     54 H           3.2563   65.2760   67.3791 H         1 A8B1538     0.0000 
     55 H           1.3582   64.7739   69.4288 H         1 A8B1538     0.0000 
     56 H           2.9402   64.8252   70.2255 H         1 A8B1538     0.0000 
     57 H           3.6339   63.3585   68.0676 H         1 A8B1538     0.0000 
     58 H           1.9099   62.9502   68.0996 H         1 A8B1538     0.0000 
     59 H           3.9594   62.4557   70.3199 H         1 A8B1538     0.0000 
     60 H           3.1460   61.2383   69.3217 H         1 A8B1538     0.0000 
     61 H           1.7480   63.1065   71.3051 H         1 A8B1538     0.0000 
     62 H           2.2188   61.4348   71.6566 H         1 A8B1538     0.0000 
     63 H           0.7671   60.8328   69.5595 H         1 A8B1538     0.0000 
     64 H           0.0738   62.4492   69.7754 H         1 A8B1538     0.0000 
     65 H          -2.0179   62.1288   71.5076 H         1 A8B1538     0.0000 
     66 H          -2.8506   61.5907   72.5848 H         1 A8B1538     0.0000 
     67 H          -1.5279   60.9822   73.9719 H         1 A8B1538     0.0000 
     68 H          -1.0440   59.3435   73.5024 H         1 A8B1538     0.0000 
     69 H          -2.8836   60.1565   75.4504 H         1 A8B1538     0.0000 
     70 H          -2.4031   58.5177   74.9777 H         1 A8B1538     0.0000 
     71 H          -4.9178   59.7044   74.9465 H         1 A8B1538     0.0000 
     72 H          -4.4369   58.0664   74.4715 H         1 A8B1538     0.0000 
     73 H          -5.6633   60.0700   72.9435 H         1 A8B1538     0.0000 
     74 H          -5.1908   58.4288   72.4711 H         1 A8B1538     0.0000 
     75 H          -4.2333   61.2779   72.2685 H         1 A8B1538     0.0000 
     76 H          -4.0472   61.5986   69.1119 H         1 A8B1538     0.0000 
     77 H          -3.5753   59.9522   68.6574 H         1 A8B1538     0.0000 
     78 H          -1.5189   60.4254   69.0657 H         1 A8B1538     0.0000 
     79 H          -1.9899   62.0745   69.5115 H         1 A8B1538     0.0000 
@<TRIPOS>BOND
     1    2    1 1    
     2   14    1 1    
     3   35    1 1    
     4    3    2 1    
     5    7    2 1    
     6   36    2 1    
     7    4    3 1    
     8   37    3 1    
     9   38    3 1    
    10    5    4 1    
    11   39    4 1    
    12   40    4 1    
    13    6    5 1    
    14   41    5 1    
    15   42    5 1    
    16    7    6 1    
    17   43    6 1    
    18   44    6 1    
    19    8    7 2    
    20    9    8 1    
    21   15    8 1    
    22   10    9 ar   
    23   14    9 ar   
    24   11   10 ar   
    25   45   10 1    
    26   12   11 ar   
    27   46   11 1    
    28   13   12 ar   
    29   47   12 1    
    30   14   13 ar   
    31   48   13 1    
    32   16   15 1    
    33   17   16 1    
    34   49   16 1    
    35   50   16 1    
    36   18   17 1    
    37   51   17 1    
    38   52   17 1    
    39   19   18 1    
    40   53   18 1    
    41   54   18 1    
    42   20   19 1    
    43   55   19 1    
    44   56   19 1    
    45   21   20 1    
    46   57   20 1    
    47   58   20 1    
    48   22   21 1    
    49   59   21 1    
    50   60   21 1    
    51   23   22 1    
    52   61   22 1    
    53   62   22 1    
    54   24   23 1    
    55   63   23 1    
    56   64   23 1    
    57   25   24 1    
    58   26   25 1    
    59   34   25 1    
    60   65   25 1    
    61   27   26 1    
    62   31   26 1    
    63   66   26 1    
    64   28   27 1    
    65   67   27 1    
    66   68   27 1    
    67   29   28 1    
    68   69   28 1    
    69   70   28 1    
    70   30   29 1    
    71   71   29 1    
    72   72   29 1    
    73   31   30 1    
    74   73   30 1    
    75   74   30 1    
    76   32   31 1    
    77   75   31 1    
    78   33   32 1    
    79   34   33 1    
    80   76   33 1    
    81   77   33 1    
    82   78   34 1    
    83   79   34 1    
@<TRIPOS>SUBSTRUCTURE
     1 A8B1538     1 GROUP   
@<TRIPOS>SET

