#    Name: 4at2_ASD_1_INTS_M
#    Modification time : Tue Mar 25 06:13:14 2014

@<TRIPOS>MOLECULE
4at2_ASD_1_INTS_M
   59     0     6     0     0
SMALL
NO_CHARGES


@<TRIPOS>ATOM
      1 CA         34.3870   20.6725   41.2030 C.3       2 GLC5        0.0000 
      2 CA         35.3640   19.3750   40.4280 C.3       6 GLL5        0.0000 
      3 CA         33.4100   21.9700   41.9780 C.3       4 GLP5        0.0000 
      4 CA         31.8150   13.9150   42.2795 C.3       2 GLC5        0.0000 
      5 CA         30.6330   15.0760   41.2360 C.3       6 GLL5        0.0000 
      6 CA         32.9970   12.7540   43.3230 C.3       4 GLP5        0.0000 
      7 CA         27.7870   13.8750   39.8785 C.3       2 GLC5        0.0000 
      8 CA         29.5890   14.8150   40.1370 C.3       6 GLL5        0.0000 
      9 CA         25.9850   12.9350   39.6200 C.3       4 GLP5        0.0000 
     10 CA         29.7205   12.9020   39.4885 C.3       2 GLC5        0.0000 
     11 CA         29.8520   10.9890   38.8400 C.3       4 GLP5        0.0000 
     12 CA         33.5520   13.0875   39.4430 C.3       2 GLC5        0.0000 
     13 CA         32.5710   14.4100   38.9190 C.3       6 GLL5        0.0000 
     14 CA         34.5330   11.7650   39.9670 C.3       4 GLP5        0.0000 
     15 CA         33.9340   15.0915   37.5610 C.3       2 GLC5        0.0000 
     16 CA         35.2970   15.7730   36.2030 C.3       4 GLP5        0.0000 
     17 CA         31.2115   12.6995   38.8795 C.3       2 GLC5        0.0000 
     18 CA         36.3060   15.2895   40.5450 C.3       2 GLC5        0.0000 
     19 CA         36.0280   16.9770   40.7660 C.3       6 GLL5        0.0000 
     20 CA         36.5840   13.6020   40.3240 C.3       4 GLP5        0.0000 
     21 CA         37.9850   19.9350   39.3475 C.3       2 GLC5        0.0000 
     22 CA         36.6460   19.9990   41.0210 C.3       6 GLL5        0.0000 
     23 CA         39.3240   19.8710   37.6740 C.3       4 GLP5        0.0000 
     24 CA         38.4870   20.0035   41.0935 C.3       2 GLC5        0.0000 
     25 CA         40.3280   20.0080   41.1660 C.3       4 GLP5        0.0000 
     26 CA         35.3960   21.4255   41.1005 C.3       2 GLC5        0.0000 
     27 CA         34.1460   22.8520   41.1800 C.3       4 GLP5        0.0000 
     28 CA         35.6540   18.6075   45.2850 C.3       2 GLC5        0.0000 
     29 CA         35.6580   19.0880   43.2310 C.3       6 GLL5        0.0000 
     30 CA         35.6500   18.1270   47.3390 C.3       4 GLP5        0.0000 
     31 CA         37.2275   18.4245   44.1075 C.3       2 GLC5        0.0000 
     32 CA         38.7970   17.7610   44.9840 C.3       4 GLP5        0.0000 
     33 CA         34.6355   17.0290   45.3930 C.3       2 GLC5        0.0000 
     34 CA         34.0110   17.2660   43.4100 C.3       6 GLL5        0.0000 
     35 CA         35.2600   16.7920   47.3760 C.3       4 GLP5        0.0000 
     36 CA         32.8380   14.8570   43.0250 C.3       2 GLC5        0.0000 
     37 CA         32.6790   16.9600   42.7270 C.3       6 GLL5        0.0000 
     38 CA         32.5235   19.0950   42.0685 C.3       2 GLC5        0.0000 
     39 CA         32.3680   21.2300   41.4100 C.3       4 GLP5        0.0000 
     40 CA         34.2595   14.9850   41.3190 C.3       2 GLC5        0.0000 
     41 CA         32.8960   16.4750   41.2940 C.3       6 GLL5        0.0000 
     42 CA         35.6230   13.4950   41.3440 C.3       4 GLP5        0.0000 
     43 N          38.4480   21.3045   42.5715 N.am      1 SEC2        0.0000 
     44 N          37.5200   20.5340   43.1770 N.am      5 SEL2        0.0000 
     45 N          39.3760   22.0750   41.9660 N.am      3 SEP2        0.0000 
     46 N          38.5510   20.7140   44.5090 N.am      1 SEC2        0.0000 
     47 N          39.5820   20.8940   45.8410 N.am      3 SEP2        0.0000 
     48 CA         36.3640   21.0205   39.3588 C.3       2 GLC5        0.0000 
     49 CA         36.7230   22.3540   37.9930 C.3       4 GLP5        0.0000 
     50 CA         33.3182   19.5265   41.0940 C.3       2 GLC5        0.0000 
     51 CA         34.9590   18.0320   41.0620 C.3       6 GLL5        0.0000 
     52 CA         34.1167   16.4443   37.4278 C.3       2 GLC5        0.0000 
     53 CA         33.5940   17.3790   38.9650 C.3       6 GLL5        0.0000 
     54 CA         31.9597   18.8598   39.0968 C.3       2 GLC5        0.0000 
     55 CA         30.9830   20.6040   39.5410 C.3       4 GLP5        0.0000 
     56 CA         29.5010   13.5017   41.6963 C.3       2 GLC5        0.0000 
     57 CA         28.8910   12.0580   42.7060 C.3       4 GLP5        0.0000 
     58 CA         34.3438   20.3023   42.4402 C.3       2 GLC5        0.0000 
     59 CA         34.8970   18.1810   42.5740 C.3       6 GLL5        0.0000 
@<TRIPOS>BOND
@<TRIPOS>SUBSTRUCTURE
     1 SEC2       43 GROUP        1 X    SEC  0     ROOT SEC X 2
     2 GLC5        1 GROUP        1 X    GLC  0     **** GLC X 6
     3 SEP2       45 GROUP        1 Y    SEP  0     ROOT SEP Y 9
     4 GLP5        3 GROUP        1 Y    GLP  0     **** GLP Y 13
     5 SEL2       44 GROUP        1 Z    SEL  0     ROOT SEL Z 16
     6 GLL5        2 GROUP        1 Z    GLL  0     **** GLL Z 20
@<TRIPOS>SET

