#    Name: 4at2_ASD_1_ligand
#    Modification time : Tue Mar 25 06:13:14 2014

@<TRIPOS>MOLECULE
4at2_ASD_1_ligand
   47    50     1     0     0
SMALL
NO_CHARGES


@<TRIPOS>ATOM
      1 C1         35.3640   19.3750   40.4280 C.3       1 ASD1490     0.0000 
      2 C10        34.9590   18.0320   41.0620 C.3       1 ASD1490     0.0000 
      3 C11        33.5940   17.3790   38.9650 C.3       1 ASD1490     0.0000 
      4 C12        32.2790   16.8520   38.3400 C.3       1 ASD1490     0.0000 
      5 C13        31.7360   15.6750   39.1450 C.3       1 ASD1490     0.0000 
      6 C14        31.5730   16.1110   40.6000 C.3       1 ASD1490     0.0000 
      7 C15        30.6330   15.0760   41.2360 C.3       1 ASD1490     0.0000 
      8 C16        29.5890   14.8150   40.1370 C.3       1 ASD1490     0.0000 
      9 C17        30.3200   15.2590   38.8800 C.2       1 ASD1490     0.0000 
     10 C18        32.5710   14.4100   38.9190 C.3       1 ASD1490     0.0000 
     11 C19        36.0280   16.9770   40.7660 C.3       1 ASD1490     0.0000 
     12 C2         36.6460   19.9990   41.0210 C.3       1 ASD1490     0.0000 
     13 C3         36.6780   19.9100   42.5320 C.2       1 ASD1490     0.0000 
     14 C4         35.6580   19.0880   43.2310 C.2       1 ASD1490     0.0000 
     15 C5         34.8970   18.1810   42.5740 C.2       1 ASD1490     0.0000 
     16 C6         34.0110   17.2660   43.4100 C.3       1 ASD1490     0.0000 
     17 C7         32.6790   16.9600   42.7270 C.3       1 ASD1490     0.0000 
     18 C8         32.8960   16.4750   41.2940 C.3       1 ASD1490     0.0000 
     19 C9         33.5780   17.6140   40.4940 C.3       1 ASD1490     0.0000 
     20 O1         37.5200   20.5340   43.1770 O.2       1 ASD1490     0.0000 
     21 O2         29.8220   15.2580   37.7610 O.2       1 ASD1490     0.0000 
     22 H          34.5353   20.0901   40.5488 H         1 ASD1490     0.0000 
     23 H          35.5109   19.2283   39.3465 H         1 ASD1490     0.0000 
     24 H          33.8638   18.3307   38.4652 H         1 ASD1490     0.0000 
     25 H          34.4071   16.6645   38.7270 H         1 ASD1490     0.0000 
     26 H          32.4789   16.5361   37.3206 H         1 ASD1490     0.0000 
     27 H          31.5496   17.6562   38.3314 H         1 ASD1490     0.0000 
     28 H          30.9547   17.0674   40.5290 H         1 ASD1490     0.0000 
     29 H          30.1605   15.4952   42.0837 H         1 ASD1490     0.0000 
     30 H          31.1661   14.1860   41.4394 H         1 ASD1490     0.0000 
     31 H          28.7441   15.4243   40.3020 H         1 ASD1490     0.0000 
     32 H          29.3772   13.7828   40.0904 H         1 ASD1490     0.0000 
     33 H          36.6973   21.0474   40.7118 H         1 ASD1490     0.0000 
     34 H          37.5121   19.4777   40.6021 H         1 ASD1490     0.0000 
     35 H          35.5685   19.2540   44.2476 H         1 ASD1490     0.0000 
     36 H          33.8151   17.7405   44.3786 H         1 ASD1490     0.0000 
     37 H          34.5406   16.3248   43.5980 H         1 ASD1490     0.0000 
     38 H          32.0675   17.8617   42.7119 H         1 ASD1490     0.0000 
     39 H          32.1547   16.1893   43.2912 H         1 ASD1490     0.0000 
     40 H          33.5466   15.6309   41.2918 H         1 ASD1490     0.0000 
     41 H          32.9068   18.5292   40.6473 H         1 ASD1490     0.0000 
     42 H          33.5239   14.5401   39.1931 H         1 ASD1490     0.0000 
     43 H          32.2188   13.6341   39.4423 H         1 ASD1490     0.0000 
     44 H          32.5774   14.1361   37.9573 H         1 ASD1490     0.0000 
     45 H          36.9204   17.2394   41.1331 H         1 ASD1490     0.0000 
     46 H          35.7957   16.0905   41.1661 H         1 ASD1490     0.0000 
     47 H          36.1460   16.8333   39.7834 H         1 ASD1490     0.0000 
@<TRIPOS>BOND
     1    2    1 1    
     2   12    1 1    
     3   22    1 1    
     4   23    1 1    
     5   11    2 1    
     6   15    2 1    
     7   19    2 1    
     8    4    3 1    
     9   19    3 1    
    10   24    3 1    
    11   25    3 1    
    12    5    4 1    
    13   26    4 1    
    14   27    4 1    
    15    6    5 1    
    16    9    5 1    
    17   10    5 1    
    18    7    6 1    
    19   18    6 1    
    20   28    6 1    
    21    8    7 1    
    22   29    7 1    
    23   30    7 1    
    24    9    8 1    
    25   31    8 1    
    26   32    8 1    
    27   21    9 2    
    28   42   10 1    
    29   43   10 1    
    30   44   10 1    
    31   45   11 1    
    32   46   11 1    
    33   47   11 1    
    34   13   12 1    
    35   33   12 1    
    36   34   12 1    
    37   14   13 1    
    38   20   13 2    
    39   15   14 2    
    40   35   14 1    
    41   16   15 1    
    42   17   16 1    
    43   36   16 1    
    44   37   16 1    
    45   18   17 1    
    46   38   17 1    
    47   39   17 1    
    48   19   18 1    
    49   40   18 1    
    50   41   19 1    
@<TRIPOS>SUBSTRUCTURE
     1 ASD1490     1 GROUP   
@<TRIPOS>SET

