#    Name: 2ckm_AA7_1_INTS_M
#    Modification time : Tue Mar 25 00:57:45 2014

@<TRIPOS>MOLECULE
2ckm_AA7_1_INTS_M
   67     0     6     0     0
SMALL
NO_CHARGES


@<TRIPOS>ATOM
      1 CA         -5.4750   61.0930   73.4390 C.3       2 GLC5        0.0000 
      2 CA         -4.8510   59.2810   74.6030 C.3       6 GLL5        0.0000 
      3 CA         -6.0990   62.9050   72.2750 C.3       4 GLP5        0.0000 
      4 CA         -3.1935   60.4770   66.2695 C.3       2 GLC5        0.0000 
      5 CA         -3.4010   60.6870   68.3810 C.3       6 GLL5        0.0000 
      6 CA         -2.9860   60.2670   64.1580 C.3       4 GLP5        0.0000 
      7 CA         -4.5095   58.2575   70.8490 C.3       2 GLC5        0.0000 
      8 CA         -5.2120   59.8800   69.8290 C.3       6 GLL5        0.0000 
      9 CA         -3.8070   56.6350   71.8690 C.3       4 GLP5        0.0000 
     10 CA          0.1655   63.5470   68.2895 C.3       2 GLC5        0.0000 
     11 CA          0.6590   64.1730   70.2500 C.3       6 GLL5        0.0000 
     12 CA         -0.3280   62.9210   66.3290 C.3       4 GLP5        0.0000 
     13 CA          1.7795   65.0780   71.6715 C.3       2 GLC5        0.0000 
     14 CA          2.9000   65.9830   73.0930 C.3       4 GLP5        0.0000 
     15 CA         -2.2225   63.7985   71.4485 C.3       2 GLC5        0.0000 
     16 CA         -0.3570   63.4150   71.0780 C.3       6 GLL5        0.0000 
     17 CA         -4.0880   64.1820   71.8190 C.3       4 GLP5        0.0000 
     18 CA         -0.4235   59.9315   70.5600 C.3       2 GLC5        0.0000 
     19 CA          0.0100   61.9360   71.1170 C.3       6 GLL5        0.0000 
     20 CA         -0.8570   57.9270   70.0030 C.3       4 GLP5        0.0000 
     21 CA          2.8090   69.8395   63.0720 C.3       2 GLC5        0.0000 
     22 CA          2.7670   67.8580   63.4940 C.3       6 GLL5        0.0000 
     23 CA          2.8510   71.8210   62.6500 C.3       4 GLP5        0.0000 
     24 CA          7.0935   69.6055   62.1255 C.3       2 GLC5        0.0000 
     25 CA          5.5110   68.5970   62.5720 C.3       6 GLL5        0.0000 
     26 CA          8.6760   70.6140   61.6790 C.3       4 GLP5        0.0000 
     27 O           7.4430   69.5480   64.6120 O.2       1 ALC1        0.0000 
     28 O           5.9820   69.3210   64.9250 O.2       5 ALL1        0.0000 
     29 O           8.9040   69.7750   64.2990 O.2       3 ALP1        0.0000 
     30 CA         -1.8932   58.6188   73.6755 C.3       2 GLC5        0.0000 
     31 CA         -2.0160   60.1710   74.6800 C.3       6 GLL5        0.0000 
     32 CA         -1.4440   57.4850   72.1200 C.3       4 GLP5        0.0000 
     33 CA         -3.9757   58.1304   72.9290 C.3       2 GLC5        0.0000 
     34 CA         -2.7560   60.1980   73.3810 C.3       6 GLL5        0.0000 
     35 CA         -3.3412   58.5565   71.6956 C.3       2 GLC5        0.0000 
     36 CA         -4.3260   60.0380   70.9490 C.3       6 GLL5        0.0000 
     37 CA         -6.1653   58.5147   68.7102 C.3       2 GLC5        0.0000 
     38 CA         -4.7570   60.2030   68.5380 C.3       6 GLL5        0.0000 
     39 CA         -7.3460   56.9880   68.2370 C.3       4 GLP5        0.0000 
     40 CA          3.0826   66.3219   68.2569 C.3       2 GLC5        0.0000 
     41 CA          0.7870   67.3480   68.1480 C.3       6 GLL5        0.0000 
     42 CA          4.9270   65.8010   68.1870 C.3       4 GLP5        0.0000 
     43 CA          1.5657   66.6098   71.1672 C.3       2 GLC5        0.0000 
     44 CA          1.3070   66.3420   69.1670 C.3       6 GLL5        0.0000 
     45 CA          2.3790   67.2540   72.7920 C.3       4 GLP5        0.0000 
     46 CA         -0.6168   67.5155   69.9764 C.3       2 GLC5        0.0000 
     47 CA         -1.8560   68.8140   70.6650 C.3       4 GLP5        0.0000 
     48 CA          6.7490   67.2145   63.3190 C.3       2 GLC5        0.0000 
     49 CA          5.0670   68.8090   64.0340 C.3       6 GLL5        0.0000 
     50 CA          8.2090   65.7260   63.3350 C.3       4 GLP5        0.0000 
     51 CA          2.1400   70.0440   65.1850 C.3       2 GLC5        0.0000 
     52 CA          3.7450   68.4860   64.5130 C.3       6 GLL5        0.0000 
     53 CA          0.6980   71.4750   65.1550 C.3       4 GLP5        0.0000 
     54 CA          2.0607   66.2625   62.1692 C.3       2 GLC5        0.0000 
     55 CA          1.0330   64.9600   61.4890 C.3       4 GLP5        0.0000 
     56 CA          4.4392   70.2545   61.9390 C.3       2 GLC5        0.0000 
     57 CA          4.3340   68.3110   61.5880 C.3       6 GLL5        0.0000 
     58 CA          3.9560   72.0550   61.7980 C.3       4 GLP5        0.0000 
     59 CA          8.5978   70.4167   67.3978 C.3       2 GLC5        0.0000 
     60 CA          6.5820   70.3360   68.4020 C.3       6 GLL5        0.0000 
     61 CA         10.5090   70.6260   67.0700 C.3       4 GLP5        0.0000 
     62 CA          7.6209   68.7431   68.4291 C.3       2 GLC5        0.0000 
     63 CA          6.7910   70.0790   67.0490 C.3       6 GLL5        0.0000 
     64 CA          8.8720   67.3490   68.9850 C.3       4 GLP5        0.0000 
     65 CA         -4.8549   61.9114   68.8315 C.3       2 GLC5        0.0000 
     66 CA         -2.5320   60.8500   69.4760 C.3       6 GLL5        0.0000 
     67 CA         -5.8450   63.3980   68.4670 C.3       4 GLP5        0.0000 
@<TRIPOS>BOND
@<TRIPOS>SUBSTRUCTURE
     1 ALC1       27 GROUP        1 X    ALC  0     ROOT ALC X 1
     2 GLC5        1 GROUP        1 X    GLC  0     **** GLC X 6
     3 ALP1       29 GROUP        1 Y    ALP  0     ROOT ALP Y 8
     4 GLP5        3 GROUP        1 Y    GLP  0     **** GLP Y 13
     5 ALL1       28 GROUP        1 Z    ALL  0     ROOT ALL Z 15
     6 GLL5        2 GROUP        1 Z    GLL  0     **** GLL Z 20
@<TRIPOS>SET

