#    Name: 2ckm_AA7_1_ligand
#    Modification time : Tue Mar 25 00:57:45 2014

@<TRIPOS>MOLECULE
2ckm_AA7_1_ligand
   77    82     1     0     0
SMALL
NO_CHARGES


@<TRIPOS>ATOM
      1 C1         -4.1200   59.7430   73.3690 C.ar      1 AA71536     0.0000 
      2 C2         -2.7560   60.1980   73.3810 C.ar      1 AA71536     0.0000 
      3 C3         -2.0160   60.1710   74.6800 C.3       1 AA71536     0.0000 
      4 C4         -2.6690   59.3340   75.7820 C.3       1 AA71536     0.0000 
      5 C5         -4.1650   59.6980   75.8760 C.3       1 AA71536     0.0000 
      6 C6         -4.8510   59.2810   74.6030 C.3       1 AA71536     0.0000 
      7 N7         -4.8150   59.6920   72.1800 N.pl3     1 AA71536     0.0000 
      8 C8         -4.3260   60.0380   70.9490 C.ar      1 AA71536     0.0000 
      9 C9         -2.9400   60.5460   70.8440 C.ar      1 AA71536     0.0000 
     10 C10        -2.1180   60.6640   72.1480 C.ar      1 AA71536     0.0000 
     11 N11        -0.7920   61.2130   72.1250 N.3       1 AA71536     0.0000 
     12 C14        -2.5320   60.8500   69.4760 C.ar      1 AA71536     0.0000 
     13 C15        -3.4010   60.6870   68.3810 C.ar      1 AA71536     0.0000 
     14 C16        -4.7570   60.2030   68.5380 C.ar      1 AA71536     0.0000 
     15 C17        -5.2120   59.8800   69.8290 C.ar      1 AA71536     0.0000 
     16 C19         1.5520   67.3390   66.8250 C.3       1 AA71536     0.0000 
     17 C20         0.7870   67.3480   68.1480 C.3       1 AA71536     0.0000 
     18 C21         1.3070   66.3420   69.1670 C.3       1 AA71536     0.0000 
     19 C22         0.1980   65.5890   69.9180 C.3       1 AA71536     0.0000 
     20 C23         0.6590   64.1730   70.2500 C.3       1 AA71536     0.0000 
     21 C24        -0.3570   63.4150   71.0780 C.3       1 AA71536     0.0000 
     22 C25         0.0100   61.9360   71.1170 C.3       1 AA71536     0.0000 
     23 C26         5.0670   68.8090   64.0340 C.ar      1 AA71536     0.0000 
     24 C27         3.7450   68.4860   64.5130 C.ar      1 AA71536     0.0000 
     25 C28         2.7670   67.8580   63.4940 C.3       1 AA71536     0.0000 
     26 C29         3.4100   67.2720   62.2050 C.3       1 AA71536     0.0000 
     27 C30         4.3340   68.3110   61.5880 C.3       1 AA71536     0.0000 
     28 C31         5.5110   68.5970   62.5720 C.3       1 AA71536     0.0000 
     29 N32         5.9820   69.3210   64.9250 N.pl3     1 AA71536     0.0000 
     30 C33         5.7480   69.5490   66.2690 C.ar      1 AA71536     0.0000 
     31 C34         4.4520   69.2550   66.8080 C.ar      1 AA71536     0.0000 
     32 C35         3.4190   68.7400   65.9170 C.ar      1 AA71536     0.0000 
     33 N36         2.2320   68.6350   66.5770 N.3       1 AA71536     0.0000 
     34 C39         4.2800   69.5260   68.2230 C.ar      1 AA71536     0.0000 
     35 C40         5.3150   70.0550   68.9930 C.ar      1 AA71536     0.0000 
     36 C41         6.5820   70.3360   68.4020 C.ar      1 AA71536     0.0000 
     37 C42         6.7910   70.0790   67.0490 C.ar      1 AA71536     0.0000 
     38 H          -1.8923   61.2077   75.0592 H         1 AA71536     0.0000 
     39 H          -0.9878   59.7847   74.5144 H         1 AA71536     0.0000 
     40 H          -2.1935   59.5465   76.7281 H         1 AA71536     0.0000 
     41 H          -2.5749   58.2848   75.5438 H         1 AA71536     0.0000 
     42 H          -4.2540   60.7672   76.0160 H         1 AA71536     0.0000 
     43 H          -4.5964   59.1780   76.7211 H         1 AA71536     0.0000 
     44 H          -4.9402   58.1830   74.5812 H         1 AA71536     0.0000 
     45 H          -5.8745   59.6887   74.5914 H         1 AA71536     0.0000 
     46 H          -5.8330   59.3490   72.2272 H         1 AA71536     0.0000 
     47 H          -1.5721   61.1939   69.3300 H         1 AA71536     0.0000 
     48 H          -3.0777   60.9151   67.4282 H         1 AA71536     0.0000 
     49 H          -5.3465   60.1065   67.7281 H         1 AA71536     0.0000 
     50 H          -6.1538   59.5379   69.9821 H         1 AA71536     0.0000 
     51 H           0.8440   67.1214   66.0157 H         1 AA71536     0.0000 
     52 H           2.2867   66.5248   66.8539 H         1 AA71536     0.0000 
     53 H          -0.2762   67.1385   67.9461 H         1 AA71536     0.0000 
     54 H           0.8390   68.3597   68.5826 H         1 AA71536     0.0000 
     55 H           1.9380   66.8653   69.9025 H         1 AA71536     0.0000 
     56 H           1.9477   65.6068   68.6551 H         1 AA71536     0.0000 
     57 H          -0.6872   65.5448   69.2925 H         1 AA71536     0.0000 
     58 H          -0.0326   66.1197   70.8356 H         1 AA71536     0.0000 
     59 H           1.6081   64.2270   70.7979 H         1 AA71536     0.0000 
     60 H           0.8441   63.6305   69.3145 H         1 AA71536     0.0000 
     61 H          -1.3436   63.5273   70.6378 H         1 AA71536     0.0000 
     62 H          -0.3686   63.8075   72.0907 H         1 AA71536     0.0000 
     63 H          -0.1557   61.5102   70.1202 H         1 AA71536     0.0000 
     64 H           1.0789   61.8489   71.3454 H         1 AA71536     0.0000 
     65 H           2.0253   68.6232   63.1961 H         1 AA71536     0.0000 
     66 H           2.1994   67.0523   63.9971 H         1 AA71536     0.0000 
     67 H           2.6225   67.0191   61.5106 H         1 AA71536     0.0000 
     68 H           3.9721   66.3888   62.4704 H         1 AA71536     0.0000 
     69 H           3.7970   69.2313   61.4194 H         1 AA71536     0.0000 
     70 H           4.7441   67.9393   60.6620 H         1 AA71536     0.0000 
     71 H           6.2117   67.7539   62.5281 H         1 AA71536     0.0000 
     72 H           6.0430   69.4916   62.2249 H         1 AA71536     0.0000 
     73 H           6.9540   69.5633   64.5507 H         1 AA71536     0.0000 
     74 H           3.3661   69.3151   68.6443 H         1 AA71536     0.0000 
     75 H           5.1785   70.2478   69.9898 H         1 AA71536     0.0000 
     76 H           7.3268   70.7255   68.9832 H         1 AA71536     0.0000 
     77 H           7.6993   70.2734   66.6182 H         1 AA71536     0.0000 
@<TRIPOS>BOND
     1    2    1 ar   
     2    6    1 1    
     3    7    1 ar   
     4    3    2 1    
     5   10    2 ar   
     6    4    3 1    
     7   38    3 1    
     8   39    3 1    
     9    5    4 1    
    10   40    4 1    
    11   41    4 1    
    12    6    5 1    
    13   42    5 1    
    14   43    5 1    
    15   44    6 1    
    16   45    6 1    
    17    8    7 ar   
    18   46    7 1    
    19    9    8 ar   
    20   15    8 ar   
    21   10    9 ar   
    22   12    9 ar   
    23   11   10 1    
    24   22   11 1    
    25   13   12 ar   
    26   47   12 1    
    27   14   13 ar   
    28   48   13 1    
    29   15   14 ar   
    30   49   14 1    
    31   50   15 1    
    32   17   16 1    
    33   33   16 1    
    34   51   16 1    
    35   52   16 1    
    36   18   17 1    
    37   53   17 1    
    38   54   17 1    
    39   19   18 1    
    40   55   18 1    
    41   56   18 1    
    42   20   19 1    
    43   57   19 1    
    44   58   19 1    
    45   21   20 1    
    46   59   20 1    
    47   60   20 1    
    48   22   21 1    
    49   61   21 1    
    50   62   21 1    
    51   63   22 1    
    52   64   22 1    
    53   24   23 ar   
    54   28   23 1    
    55   29   23 ar   
    56   25   24 1    
    57   32   24 ar   
    58   26   25 1    
    59   65   25 1    
    60   66   25 1    
    61   27   26 1    
    62   67   26 1    
    63   68   26 1    
    64   28   27 1    
    65   69   27 1    
    66   70   27 1    
    67   71   28 1    
    68   72   28 1    
    69   30   29 ar   
    70   73   29 1    
    71   31   30 ar   
    72   37   30 ar   
    73   32   31 ar   
    74   34   31 ar   
    75   33   32 1    
    76   35   34 ar   
    77   74   34 1    
    78   36   35 ar   
    79   75   35 1    
    80   37   36 ar   
    81   76   36 1    
    82   77   37 1    
@<TRIPOS>SUBSTRUCTURE
     1 AA71536     1 GROUP   
@<TRIPOS>SET

