#    Name: 4I9C_1_CAVITY_N1_6.mol2
#    Modification time : Tue Mar 11 04:45:01 2014

@<TRIPOS>MOLECULE
4I9C_1_CAVITY_N1_6.mol2
  177     0     7     0     0
SMALL
NO_CHARGES


@<TRIPOS>ATOM
      1 OG         16.6915   45.2937   -2.9285 O.2       1 SER1        0.0000 
      2 NZ         15.5334   48.1533   -0.9330 N.2       4 LYS4        0.0000 
      3 NZ         14.7166   49.1473   -1.7041 N.2       4 LYS4        0.0000 
      4 OG         15.1115   47.0707   -1.8816 O.2       1 SER1        0.0000 
      5 NZ         14.2946   48.0647   -2.6527 N.2       4 LYS4        0.0000 
      6 OG         15.5064   44.9940   -2.0592 O.2       1 SER1        0.0000 
      7 DU         14.6895   45.9881   -2.8303 H         7 CUB7        0.0000 
      8 O          13.8726   46.9821   -3.6013 O.2       2 ALA2        0.0000 
      9 NZ         13.0557   47.9762   -4.3724 N.2       4 LYS4        0.0000 
     10 OG         15.9012   42.9173   -2.2368 O.2       1 SER1        0.0000 
     11 CA         15.0844   43.9114   -3.0078 C.3       6 GLY6        0.0000 
     12 O          14.2675   44.9055   -3.7789 O.2       2 ALA2        0.0000 
     13 N          15.4793   41.8347   -3.1854 N.2       2 ALA2        0.0000 
     14 CZ         14.6624   42.8288   -3.9565 C.ar      5 PHE5        0.0000 
     15 CA         13.5585   52.0069    0.2914 C.3       6 GLY6        0.0000 
     16 N          13.9534   49.9302    0.1138 N.2       2 ALA2        0.0000 
     17 NZ         13.1365   50.9243   -0.6573 N.2       4 LYS4        0.0000 
     18 CZ         14.3483   47.8536   -0.0638 C.ar      5 PHE5        0.0000 
     19 NZ         13.5314   48.8476   -0.8348 N.2       4 LYS4        0.0000 
     20 CZ         14.7432   45.7769   -0.2414 C.ar      5 PHE5        0.0000 
     21 CZ         13.9263   46.7710   -1.0124 C.ar      5 PHE5        0.0000 
     22 NZ         13.1094   47.7650   -1.7835 N.2       4 LYS4        0.0000 
     23 NZ         12.2925   48.7591   -2.5545 N.2       4 LYS4        0.0000 
     24 CZ         14.3212   44.6943   -1.1900 C.ar      5 PHE5        0.0000 
     25 O          13.5043   45.6884   -1.9610 O.2       2 ALA2        0.0000 
     26 O          12.6874   46.6824   -2.7321 O.2       2 ALA2        0.0000 
     27 NZ         11.8705   47.6765   -3.5032 N.2       4 LYS4        0.0000 
     28 NZ         11.0536   48.6705   -4.2742 N.2       4 LYS4        0.0000 
     29 CA         15.5330   41.6236   -0.5965 C.3       6 GLY6        0.0000 
     30 CZ         14.7161   42.6176   -1.3676 C.ar      5 PHE5        0.0000 
     31 O          13.8992   43.6117   -2.1386 O.2       2 ALA2        0.0000 
     32 O          13.0823   44.6058   -2.9097 O.2       2 ALA2        0.0000 
     33 O          15.9279   39.5469   -0.7741 O.2       2 ALA2        0.0000 
     34 N          15.1110   40.5410   -1.5451 N.2       2 ALA2        0.0000 
     35 N          14.2941   41.5350   -2.3162 N.2       2 ALA2        0.0000 
     36 O          13.4772   42.5291   -3.0872 O.2       2 ALA2        0.0000 
     37 CZ         13.0552   41.4465   -4.0359 C.ar      5 PHE5        0.0000 
     38 N          12.7682   49.6305    0.9830 N.2       2 ALA2        0.0000 
     39 CZ         11.9513   50.6246    0.2120 C.ar      5 PHE5        0.0000 
     40 CA         11.1344   51.6187   -0.5591 C.3       6 GLY6        0.0000 
     41 CZ         13.1631   47.5539    0.8055 C.ar      5 PHE5        0.0000 
     42 OG         12.3462   48.5479    0.0344 O.2       1 SER1        0.0000 
     43 OG         11.5293   49.5420   -0.7367 O.2       1 SER1        0.0000 
     44 NZ         10.7124   50.5361   -1.5077 N.2       4 LYS4        0.0000 
     45 NZ          9.8956   51.5301   -2.2788 N.2       4 LYS4        0.0000 
     46 CZ         12.7411   46.4713   -0.1432 C.ar      5 PHE5        0.0000 
     47 OG         11.9242   47.4653   -0.9142 O.2       1 SER1        0.0000 
     48 OG         11.1073   48.4594   -1.6853 O.2       1 SER1        0.0000 
     49 NZ         10.2905   49.4535   -2.4564 N.2       4 LYS4        0.0000 
     50 NZ          9.4736   50.4475   -3.2274 N.2       4 LYS4        0.0000 
     51 CZ         15.5867   41.4124    1.9924 C.ar      5 PHE5        0.0000 
     52 CZ         13.9529   43.4006    0.4503 C.ar      5 PHE5        0.0000 
     53 CZ         13.1360   44.3946   -0.3207 C.ar      5 PHE5        0.0000 
     54 CZ         12.3191   45.3887   -1.0918 C.ar      5 PHE5        0.0000 
     55 O          11.5022   46.3827   -1.8629 O.2       2 ALA2        0.0000 
     56 O          10.6854   47.3768   -2.6339 O.2       2 ALA2        0.0000 
     57 OG          9.8685   48.3709   -3.4050 O.2       1 SER1        0.0000 
     58 N          15.9816   39.3358    1.8149 N.2       2 ALA2        0.0000 
     59 CA         15.1647   40.3298    1.0438 C.3       6 GLY6        0.0000 
     60 CZ         14.3478   41.3239    0.2727 C.ar      5 PHE5        0.0000 
     61 CZ         13.5309   42.3180   -0.4983 C.ar      5 PHE5        0.0000 
     62 CZ         12.7140   43.3120   -1.2694 C.ar      5 PHE5        0.0000 
     63 O          11.8971   44.3061   -2.0404 O.2       2 ALA2        0.0000 
     64 O          10.2634   46.2942   -3.5826 O.2       2 ALA2        0.0000 
     65 CA         15.5596   38.2532    0.8662 C.3       6 GLY6        0.0000 
     66 O          14.7427   39.2472    0.0952 O.2       2 ALA2        0.0000 
     67 O          13.9258   40.2413   -0.6759 O.2       2 ALA2        0.0000 
     68 DU         13.1089   41.2353   -1.4469 H         7 CUB7        0.0000 
     69 O          12.2920   42.2294   -2.2180 O.2       2 ALA2        0.0000 
     70 O          13.5038   39.1587   -1.6245 O.2       2 ALA2        0.0000 
     71 N          12.6869   40.1527   -2.3956 N.2       2 ALA2        0.0000 
     72 N          11.8700   41.1468   -3.1666 N.2       2 ALA2        0.0000 
     73 CA         12.2649   39.0701   -3.3442 C.3       6 GLY6        0.0000 
     74 N          11.4481   40.0642   -4.1153 N.2       2 ALA2        0.0000 
     75 CA         11.0261   38.9816   -5.0639 C.3       6 GLY6        0.0000 
     76 N          10.2092   39.9757   -5.8349 N.2       2 ALA2        0.0000 
     77 OG          9.5273   50.2364   -0.6385 O.2       1 SER1        0.0000 
     78 CA          9.1053   49.1538   -1.5871 C.3       6 GLY6        0.0000 
     79 CA         14.4015   41.1127    2.8617 C.3       6 GLY6        0.0000 
     80 CZ         13.5846   42.1068    2.0906 C.ar      5 PHE5        0.0000 
     81 CZ         11.1340   45.0890   -0.2226 C.ar      5 PHE5        0.0000 
     82 OG         10.3171   46.0830   -0.9936 O.2       1 SER1        0.0000 
     83 O           9.5002   47.0771   -1.7647 O.2       2 ALA2        0.0000 
     84 CA         15.6133   38.0420    3.4552 C.3       6 GLY6        0.0000 
     85 CA         14.7964   39.0361    2.6841 C.3       6 GLY6        0.0000 
     86 DU         13.9795   40.0301    1.9130 H         7 CUB7        0.0000 
     87 OG         13.1627   41.0242    1.1420 O.2       1 SER1        0.0000 
     88 OG         12.3458   42.0183    0.3709 O.2       1 SER1        0.0000 
     89 CZ         11.5289   43.0123   -0.4001 C.ar      5 PHE5        0.0000 
     90 CZ         10.7120   44.0064   -1.1712 C.ar      5 PHE5        0.0000 
     91 O           9.8951   45.0004   -1.9423 O.2       2 ALA2        0.0000 
     92 O           9.0782   45.9945   -2.7133 O.2       2 ALA2        0.0000 
     93 O           8.2613   46.9886   -3.4844 O.2       2 ALA2        0.0000 
     94 CA         14.3744   37.9535    1.7355 C.3       6 GLY6        0.0000 
     95 DU         13.5576   38.9475    0.9644 H         7 CUB7        0.0000 
     96 OG         12.7407   39.9416    0.1934 O.2       1 SER1        0.0000 
     97 O          11.9238   40.9357   -0.5777 O.2       2 ALA2        0.0000 
     98 O          11.1069   41.9297   -1.3488 O.2       2 ALA2        0.0000 
     99 N          10.2900   42.9238   -2.1198 N.2       2 ALA2        0.0000 
    100 O           9.4731   43.9178   -2.8909 O.2       2 ALA2        0.0000 
    101 O           8.6562   44.9119   -3.6619 O.2       2 ALA2        0.0000 
    102 CA         13.9525   36.8709    0.7868 C.3       6 GLY6        0.0000 
    103 O          13.1356   37.8649    0.0158 O.2       2 ALA2        0.0000 
    104 O          12.3187   38.8590   -0.7553 O.2       2 ALA2        0.0000 
    105 O          11.5018   39.8531   -1.5263 O.2       2 ALA2        0.0000 
    106 O          10.6849   40.8471   -2.2974 O.2       2 ALA2        0.0000 
    107 N           9.8680   41.8412   -3.0685 N.2       2 ALA2        0.0000 
    108 OG         13.5305   35.7883   -0.1618 O.2       1 SER1        0.0000 
    109 CA         12.7136   36.7823   -0.9328 C.3       6 GLY6        0.0000 
    110 OD1        10.2629   39.7645   -3.2460 O.3       3 ASP3        0.0000 
    111 N           9.4460   40.7586   -4.0171 N.2       2 ALA2        0.0000 
    112 CA         13.1085   34.7057   -1.1104 C.3       6 GLY6        0.0000 
    113 N           9.0240   39.6760   -4.9657 N.2       2 ALA2        0.0000 
    114 CA         14.0333   39.8190    4.5020 C.3       6 GLY6        0.0000 
    115 CA         13.2164   40.8130    3.7309 C.3       6 GLY6        0.0000 
    116 CZ          9.9488   44.7893    0.6467 C.ar      5 PHE5        0.0000 
    117 OG          9.1319   45.7833   -0.1244 O.2       1 SER1        0.0000 
    118 CA         14.4282   37.7423    4.3244 C.3       6 GLY6        0.0000 
    119 CA         13.6113   38.7364    3.5533 C.3       6 GLY6        0.0000 
    120 OG         12.7944   39.7304    2.7823 O.2       1 SER1        0.0000 
    121 OG          9.5268   43.7067   -0.3020 O.2       1 SER1        0.0000 
    122 DU          8.7099   44.7007   -1.0730 H         7 CUB7        0.0000 
    123 N          14.0062   36.6597    3.3758 N.2       2 ALA2        0.0000 
    124 DU         13.1893   37.6538    2.6047 H         7 CUB7        0.0000 
    125 DU         12.3724   38.6478    1.8336 H         7 CUB7        0.0000 
    126 O          11.5555   39.6419    1.0626 O.2       2 ALA2        0.0000 
    127 O          10.7386   40.6360    0.2915 O.2       2 ALA2        0.0000 
    128 O           9.9217   41.6300   -0.4795 O.2       2 ALA2        0.0000 
    129 O           9.1048   42.6241   -1.2506 O.2       2 ALA2        0.0000 
    130 DU          8.2879   43.6181   -2.0216 H         7 CUB7        0.0000 
    131 O           7.4710   44.6122   -2.7927 O.2       2 ALA2        0.0000 
    132 CA         13.5842   35.5771    2.4271 C.3       6 GLY6        0.0000 
    133 O          12.7673   36.5712    1.6561 O.2       2 ALA2        0.0000 
    134 O          11.9504   37.5652    0.8850 O.2       2 ALA2        0.0000 
    135 O           8.6828   41.5415   -2.1992 O.2       2 ALA2        0.0000 
    136 N           7.8659   42.5355   -2.9703 N.2       2 ALA2        0.0000 
    137 N           7.0490   43.5296   -3.7413 N.2       2 ALA2        0.0000 
    138 O           6.2322   44.5237   -4.5124 O.2       2 ALA2        0.0000 
    139 OG         12.3453   35.4886    0.7075 O.2       1 SER1        0.0000 
    140 OG         11.5284   36.4826   -0.0636 O.2       1 SER1        0.0000 
    141 O           7.4439   41.4529   -3.9189 O.2       2 ALA2        0.0000 
    142 N           6.6271   42.4470   -4.6900 N.2       2 ALA2        0.0000 
    143 CZ          8.7636   44.4896    1.5159 C.ar      5 PHE5        0.0000 
    144 CZ         12.4261   38.4367    4.4226 C.ar      5 PHE5        0.0000 
    145 NZ         11.6092   39.4307    3.6515 N.2       4 LYS4        0.0000 
    146 OG          8.3417   43.4070    0.5673 O.2       1 SER1        0.0000 
    147 O          12.0041   37.3541    3.4739 O.2       2 ALA2        0.0000 
    148 NZ         11.1872   38.3481    2.7029 N.2       4 LYS4        0.0000 
    149 O          10.3703   39.3422    1.9318 O.2       2 ALA2        0.0000 
    150 O           9.5534   40.3363    1.1608 O.2       2 ALA2        0.0000 
    151 O           8.7366   41.3303    0.3897 O.2       2 ALA2        0.0000 
    152 O           7.9197   42.3244   -0.3814 O.2       2 ALA2        0.0000 
    153 DU          7.1028   43.3184   -1.1524 H         7 CUB7        0.0000 
    154 OG         10.7652   37.2655    1.7543 O.2       1 SER1        0.0000 
    155 O           6.6808   42.2358   -2.1010 O.2       2 ALA2        0.0000 
    156 N           5.8639   43.2299   -2.8721 N.2       2 ALA2        0.0000 
    157 N           5.4419   42.1473   -3.8207 N.2       2 ALA2        0.0000 
    158 OG          7.9734   42.1132    2.2076 O.2       1 SER1        0.0000 
    159 NZ         10.0021   38.0484    3.5721 N.2       4 LYS4        0.0000 
    160 NZ          9.1852   39.0425    2.8011 N.2       4 LYS4        0.0000 
    161 NZ          8.3683   40.0366    2.0300 N.2       4 LYS4        0.0000 
    162 O           7.5514   41.0306    1.2589 O.2       2 ALA2        0.0000 
    163 O           6.7345   42.0247    0.4879 O.2       2 ALA2        0.0000 
    164 O           5.4956   41.9361   -1.2318 O.2       2 ALA2        0.0000 
    165 O           5.0736   40.8535   -2.1804 O.2       2 ALA2        0.0000 
    166 N           4.2567   41.8476   -2.9515 N.2       2 ALA2        0.0000 
    167 OG          4.6516   39.7709   -3.1291 O.2       1 SER1        0.0000 
    168 NZ          6.7882   41.8135    3.0768 N.2       4 LYS4        0.0000 
    169 NZ          8.0000   38.7428    3.6703 N.2       4 LYS4        0.0000 
    170 NZ          7.1831   39.7369    2.8992 N.2       4 LYS4        0.0000 
    171 CA          6.3662   40.7309    2.1282 C.3       6 GLY6        0.0000 
    172 CZ          5.9442   39.6483    1.1796 C.ar      5 PHE5        0.0000 
    173 O           5.1273   40.6424    0.4085 O.2       2 ALA2        0.0000 
    174 O           4.2834   38.4772   -1.4888 O.2       2 ALA2        0.0000 
    175 NZ          6.4200   40.5198    4.7171 N.2       4 LYS4        0.0000 
    176 CZ          5.9980   39.4372    3.7685 C.ar      5 PHE5        0.0000 
    177 CZ          4.7591   39.3486    2.0488 C.ar      5 PHE5        0.0000 
@<TRIPOS>BOND
@<TRIPOS>SUBSTRUCTURE
     1 SER1        1 GROUP   
     2 ALA2        8 GROUP   
     3 ASP3      110 GROUP   
     4 LYS4        2 GROUP   
     5 PHE5       14 GROUP   
     6 GLY6       11 GROUP   
     7 CUB7        7 GROUP   
@<TRIPOS>SET

