#    Name: 4i9c_GLN_ARG_GLY_MET_ILE_1_INTS_M
#    Modification time : Tue Mar 25 02:37:11 2014

@<TRIPOS>MOLECULE
4i9c_GLN_ARG_GLY_MET_ILE_1_INTS_M
  112     0    12     0     0
SMALL
NO_CHARGES


@<TRIPOS>ATOM
      1 OD1        14.9405   50.1510   -4.5900 O.co2     3 ASC3        0.0000 
      2 OD1        15.9720   49.5620   -5.7100 O.co2    11 ASL3        0.0000 
      3 OD1        13.9090   50.7400   -3.4700 O.co2     7 ASP3        0.0000 
      4 OD1        17.1090   50.2285   -5.4405 O.co2     3 ASC3        0.0000 
      5 OD1        18.2460   50.8950   -5.1710 O.co2     7 ASP3        0.0000 
      6 O          14.9405   50.1510   -4.5900 O.2       1 ALC1        0.0000 
      7 O          15.9720   49.5620   -5.7100 O.2       9 ALL1        0.0000 
      8 O          13.9090   50.7400   -3.4700 O.2       5 ALP1        0.0000 
      9 O          17.1090   50.2285   -5.4405 O.2       1 ALC1        0.0000 
     10 O          18.2460   50.8950   -5.1710 O.2       5 ALP1        0.0000 
     11 CA         15.6030   46.6090   -8.5935 C.3       4 GLC5        0.0000 
     12 CA         14.8380   47.6550   -6.8200 C.3      12 GLL5        0.0000 
     13 CA         16.3680   45.5630  -10.3670 C.3       8 GLP5        0.0000 
     14 CA         13.3025   49.2145   -9.4640 C.3       4 GLC5        0.0000 
     15 CA         14.1110   48.5100   -7.8460 C.3      12 GLL5        0.0000 
     16 CA         12.4940   49.9190  -11.0820 C.3       8 GLP5        0.0000 
     17 CA         14.6600   47.3340   -9.4655 C.3       4 GLC5        0.0000 
     18 CA         15.2090   46.1580  -11.0850 C.3       8 GLP5        0.0000 
     19 N          10.9790   47.0550   -7.0770 N.am      2 SEC2        0.0000 
     20 N          12.0570   47.3380   -7.7700 N.am     10 SEL2        0.0000 
     21 N           9.9010   46.7720   -6.3840 N.am      6 SEP2        0.0000 
     22 O          10.7685   50.2825   -7.5645 O.2       1 ALC1        0.0000 
     23 O          12.0080   49.5730   -7.3850 O.2       9 ALL1        0.0000 
     24 O           9.5290   50.9920   -7.7440 O.2       5 ALP1        0.0000 
     25 CA         16.3435   45.3680   -0.7580 C.3       4 GLC5        0.0000 
     26 CA         15.1800   46.1470   -2.4070 C.3      12 GLL5        0.0000 
     27 CA         17.5070   44.5890    0.8910 C.3       8 GLP5        0.0000 
     28 N          12.7595   44.4090   -4.1905 N.am      2 SEC2        0.0000 
     29 N          14.0520   44.3510   -3.5470 N.am     10 SEL2        0.0000 
     30 N          11.4670   44.4670   -4.8340 N.am      6 SEP2        0.0000 
     31 CA         15.4510   45.2070    0.1020 C.3       4 GLC5        0.0000 
     32 CA         14.4770   46.5420   -1.1110 C.3      12 GLL5        0.0000 
     33 CA         16.4250   43.8720    1.3150 C.3       8 GLP5        0.0000 
     34 CA         16.4355   46.4345    0.6660 C.3       4 GLC5        0.0000 
     35 CA         15.3640   48.2800    0.4410 C.3      12 GLL5        0.0000 
     36 CA         14.7710   48.0625    2.0870 C.3       4 GLC5        0.0000 
     37 CA         14.1780   47.8450    3.7330 C.3       8 GLP5        0.0000 
     38 OD1        20.3480   47.7240   -0.0675 O.co2     3 ASC3        0.0000 
     39 OD1        17.8020   48.2920   -0.0500 O.co2    11 ASL3        0.0000 
     40 OD1        21.7320   47.7160   -0.2190 O.co2     7 ASP3        0.0000 
     41 OD1        19.3940   47.7160    0.8745 O.co2     3 ASC3        0.0000 
     42 OD1        20.9860   47.1400    1.7990 O.co2     7 ASP3        0.0000 
     43 O          18.4080   46.1875   -0.1615 O.2       1 ALC1        0.0000 
     44 O          18.9640   47.7320    0.0840 O.2       9 ALL1        0.0000 
     45 O          17.8520   44.6430   -0.4070 O.2       5 ALP1        0.0000 
     46 O          20.3480   47.7240   -0.0675 O.2       1 ALC1        0.0000 
     47 O          21.7320   47.7160   -0.2190 O.2       5 ALP1        0.0000 
     48 O          16.6990   44.2190   -1.2200 O.2       1 ALC1        0.0000 
     49 O          15.5460   43.7950   -2.0330 O.2       9 ALL1        0.0000 
     50 CA         15.9255   43.1300   -0.5215 C.3       4 GLC5        0.0000 
     51 CA         15.4260   42.3880   -2.3580 C.3      12 GLL5        0.0000 
     52 CA         16.9030   41.6365   -1.4155 C.3       4 GLC5        0.0000 
     53 CA         18.3800   40.8850   -0.4730 C.3       8 GLP5        0.0000 
     54 CA         16.6390   42.7885   -3.7415 C.3       4 GLC5        0.0000 
     55 CA         17.8520   43.1890   -5.1250 C.3       8 GLP5        0.0000 
     56 O          14.6660   40.0240   -3.3120 O.2       1 ALC1        0.0000 
     57 O          13.6990   40.7180   -2.5180 O.2       9 ALL1        0.0000 
     58 O          15.6330   39.3300   -4.1060 O.2       5 ALP1        0.0000 
     59 N          14.3935   37.7490   -2.0265 N.am      2 SEC2        0.0000 
     60 N          12.9160   37.8360   -1.3770 N.am     10 SEL2        0.0000 
     61 N          15.8710   37.6620   -2.6760 N.am      6 SEP2        0.0000 
     62 CA         12.1830   40.4765   -6.3840 C.3       4 GLC5        0.0000 
     63 CA         10.4430   40.3210   -5.7900 C.3      12 GLL5        0.0000 
     64 CA         13.9230   40.6320   -6.9780 C.3       8 GLP5        0.0000 
     65 CA          9.5885   38.6580   -7.0390 C.3       4 GLC5        0.0000 
     66 CA          8.7340   36.9950   -8.2880 C.3       8 GLP5        0.0000 
     67 CA          9.7120   42.0445   -6.6295 C.3       4 GLC5        0.0000 
     68 CA          8.9810   43.7680   -7.4690 C.3       8 GLP5        0.0000 
     69 CA          9.7665   38.2015   -4.1240 C.3       4 GLC5        0.0000 
     70 CA          9.1060   39.5570   -4.8640 C.3      12 GLL5        0.0000 
     71 CA         10.4270   36.8460   -3.3840 C.3       8 GLP5        0.0000 
     72 CA          8.8770   37.9580   -5.9595 C.3       4 GLC5        0.0000 
     73 CA          8.6480   36.3590   -7.0550 C.3       8 GLP5        0.0000 
     74 CA          7.4265   39.0030   -5.5745 C.3       4 GLC5        0.0000 
     75 CA          5.7470   38.4490   -6.2850 C.3       8 GLP5        0.0000 
     76 N          11.0015   35.6295    2.7480 N.am      2 SEC2        0.0000 
     77 N          11.7080   36.3430    1.8620 N.am     10 SEL2        0.0000 
     78 N          10.2950   34.9160    3.6340 N.am      6 SEP2        0.0000 
     79 CA         12.5615   42.1085    2.6830 C.3       4 GLC5        0.0000 
     80 CA         13.8320   40.4430    2.3970 C.3      12 GLL5        0.0000 
     81 CA         11.2910   43.7740    2.9690 C.3       8 GLP5        0.0000 
     82 CA         12.5765   37.5255    5.4595 C.3       4 GLC5        0.0000 
     83 CA         12.9280   38.4410    3.8360 C.3      12 GLL5        0.0000 
     84 CA         12.2250   36.6100    7.0830 C.3       8 GLP5        0.0000 
     85 CA         12.3055   40.1570    4.8280 C.3       4 GLC5        0.0000 
     86 CA         11.6830   41.8730    5.8200 C.3       8 GLP5        0.0000 
     87 CA         14.7065   38.8445    4.7390 C.3       4 GLC5        0.0000 
     88 CA         16.4850   39.2480    5.6420 C.3       8 GLP5        0.0000 
     89 CA         15.9765   37.9745    1.7615 C.3       4 GLC5        0.0000 
     90 CA         15.2200   39.8680    2.2160 C.3      12 GLL5        0.0000 
     91 CA         16.7330   36.0810    1.3070 C.3       8 GLP5        0.0000 
     92 CA         16.8000   40.3765    0.8715 C.3       4 GLC5        0.0000 
     93 O           9.5860   36.7500    1.0145 O.2       1 ALC1        0.0000 
     94 O          10.3360   37.7920    1.0870 O.2       9 ALL1        0.0000 
     95 O           8.8360   35.7080    0.9420 O.2       5 ALP1        0.0000 
     96 CA         13.5820   46.4805    0.7205 C.3       4 GLC5        0.0000 
     97 CA         12.6200   45.6830    2.4100 C.3       8 GLP5        0.0000 
     98 CA         15.7688   50.0445   -0.0580 C.3       4 GLC5        0.0000 
     99 CA         14.6110   48.0140   -0.8270 C.3      12 GLL5        0.0000 
    100 CA         16.5500   51.9420    0.0770 C.3       8 GLP5        0.0000 
    101 CA         11.2725   38.3325   -3.0812 C.3       4 GLC5        0.0000 
    102 CA         12.4610   40.0870   -2.1610 C.3      12 GLL5        0.0000 
    103 CA         12.8012   40.3602   -5.4455 C.3       4 GLC5        0.0000 
    104 CA         11.7750   39.5510   -3.3960 C.3      12 GLL5        0.0000 
    105 CA         10.7203   38.6598   -4.2470 C.3       4 GLC5        0.0000 
    106 CA         11.5840   40.6260   -4.4300 C.3      12 GLL5        0.0000 
    107 CA         12.4880   40.8873    4.1585 C.3       4 GLC5        0.0000 
    108 CA         12.7540   39.3600    2.5970 C.3      12 GLL5        0.0000 
    109 CA         15.3285   41.9998    2.4827 C.3       4 GLC5        0.0000 
    110 CA         16.1310   43.8440    2.6590 C.3       8 GLP5        0.0000 
    111 CA         15.4035   40.4407    3.8072 C.3       4 GLC5        0.0000 
    112 CA         16.2810   40.7260    5.3080 C.3       8 GLP5        0.0000 
@<TRIPOS>BOND
@<TRIPOS>SUBSTRUCTURE
     1 ALC1        6 GROUP        1 X    ALC  0     ROOT ALC X 1
     2 SEC2       19 GROUP        1 X    SEC  0     **** SEC X 2
     3 ASC3        1 GROUP        1 X    ASC  0     **** ASC X 3
     4 GLC5       11 GROUP        1 X    GLC  0     **** GLC X 6
     5 ALP1        8 GROUP        1 Y    ALP  0     ROOT ALP Y 8
     6 SEP2       21 GROUP        1 Y    SEP  0     **** SEP Y 9
     7 ASP3        3 GROUP        1 Y    ASP  0     **** ASP Y 10
     8 GLP5       13 GROUP        1 Y    GLP  0     **** GLP Y 13
     9 ALL1        7 GROUP        1 Z    ALL  0     ROOT ALL Z 15
    10 SEL2       20 GROUP        1 Z    SEL  0     **** SEL Z 16
    11 ASL3        2 GROUP        1 Z    ASL  0     **** ASL Z 17
    12 GLL5       12 GROUP        1 Z    GLL  0     **** GLL Z 20
@<TRIPOS>SET

