#    Name: 4i9c_GLN_ARG_GLY_MET_ILE_1_ligand
#    Modification time : Tue Mar 25 02:37:12 2014

@<TRIPOS>MOLECULE
4i9c_GLN_ARG_GLY_MET_ILE_1_ligand
   88    87     5     0     0
SMALL
NO_CHARGES


@<TRIPOS>ATOM
      1 N          15.9720   49.5620   -5.7100 N.4       1 GLN44       0.0000
      2 CA         15.0430   48.3850   -5.5100 C.3       1 GLN44       0.0000
      3 C          15.5740   47.4330   -4.4530 C.2       1 GLN44       0.0000
      4 O          16.7340   47.1240   -4.4660 O.2       1 GLN44       0.0000
      5 CB         14.8380   47.6550   -6.8200 C.3       1 GLN44       0.0000
      6 CG         14.1110   48.5100   -7.8460 C.3       1 GLN44       0.0000
      7 CD         12.6400   48.4260   -7.6650 C.2       1 GLN44       0.0000
      8 OE1        12.0570   47.3380   -7.7700 O.2       1 GLN44       0.0000
      9 NE2        12.0080   49.5730   -7.3850 N.am      1 GLN44       0.0000
     10 HA         14.0761   48.7617   -5.1771 H         1 GLN44       0.0000
     11 HB2        14.2585   46.7413   -6.6399 H         1 GLN44       0.0000
     12 HB3        15.8125   47.3582   -7.2269 H         1 GLN44       0.0000
     13 HG2        14.3881   48.1672   -8.8489 H         1 GLN44       0.0000
     14 HG3        14.4458   49.5476   -7.7394 H         1 GLN44       0.0000
     15 HE21       12.5794   50.3929   -7.3496 H         1 GLN44       0.0000
     16 HE22       11.0213   49.5068   -7.2364 H         1 GLN44       0.0000
     17 HNCA       16.7708   49.5108   -5.1105 H         1 GLN44       0.0000
     18 H          16.3128   49.6108   -6.6488 H         1 GLN44       0.0000
     19 H          15.5167   50.4314   -5.5178 H         1 GLN44       0.0000
     20 N          14.7350   47.0060   -3.5200 N.am      2 ARG45       0.0000
     21 CA         15.1800   46.1470   -2.4070 C.3       2 ARG45       0.0000
     22 C          14.8810   44.6850   -2.7200 C.2       2 ARG45       0.0000
     23 O          14.0520   44.3510   -3.5470 O.2       2 ARG45       0.0000
     24 CB         14.4770   46.5420   -1.1110 C.3       2 ARG45       0.0000
     25 CG         14.6110   48.0140   -0.8270 C.3       2 ARG45       0.0000
     26 CD         15.3640   48.2800    0.4410 C.3       2 ARG45       0.0000
     27 NE         16.7240   47.7240    0.4770 N.pl3     2 ARG45       0.0000
     28 CZ         17.8020   48.2920   -0.0500 C.cat     2 ARG45       0.0000
     29 NH1        17.7040   49.4030   -0.7430 N.pl3     2 ARG45       0.0000
     30 NH2        18.9640   47.7320    0.0840 N.pl3     2 ARG45       0.0000
     31 HNCA       13.7231   47.2481   -3.5162 H         2 ARG45       0.0000
     32 HA         16.2451   46.2503   -2.2601 H         2 ARG45       0.0000
     33 HB2        14.9089   45.9661   -0.2848 H         2 ARG45       0.0000
     34 HB3        13.4167   46.2763   -1.1887 H         2 ARG45       0.0000
     35 HG2        13.6082   48.4617   -0.7583 H         2 ARG45       0.0000
     36 HG3        15.1280   48.4990   -1.6686 H         2 ARG45       0.0000
     37 HD2        14.7713   47.8788    1.2965 H         2 ARG45       0.0000
     38 HD3        15.4044   49.3825    0.6051 H         2 ARG45       0.0000
     39 HE         16.7927   46.7863    0.9798 H         2 ARG45       0.0000
     40 HH11       18.5523   49.7465   -1.1459 H         2 ARG45       0.0000
     41 HH12       16.7900   49.8041   -0.8045 H         2 ARG45       0.0000
     42 HH21       19.7366   48.2187   -0.3236 H         2 ARG45       0.0000
     43 HH22       18.9799   46.8653    0.5825 H         2 ARG45       0.0000
     44 N          15.5460   43.7950   -2.0330 N.am      3 GLY46       0.0000
     45 CA         15.4260   42.3880   -2.3580 C.3       3 GLY46       0.0000
     46 C          14.0810   41.8500   -1.9370 C.2       3 GLY46       0.0000
     47 O          13.4030   42.4400   -1.0960 O.2       3 GLY46       0.0000
     48 HNCA       16.1751   44.0299   -1.2450 H         3 GLY46       0.0000
     49 HA2        16.2087   41.8018   -1.8534 H         3 GLY46       0.0000
     50 HA3        15.5428   42.2251   -3.4400 H         3 GLY46       0.0000
     51 N          13.6990   40.7180   -2.5180 N.am      4 MET47       0.0000
     52 CA         12.4610   40.0870   -2.1610 C.3       4 MET47       0.0000
     53 C          12.6270   39.0110   -1.0770 C.2       4 MET47       0.0000
     54 O          12.9160   37.8360   -1.3770 O.2       4 MET47       0.0000
     55 CB         11.7750   39.5510   -3.3960 C.3       4 MET47       0.0000
     56 CG         11.5840   40.6260   -4.4300 C.3       4 MET47       0.0000
     57 SD         10.4430   40.3210   -5.7900 S.3       4 MET47       0.0000
     58 CE          9.1060   39.5570   -4.8640 C.3       4 MET47       0.0000
     59 HNCA       14.2715   40.2468   -3.2457 H         4 MET47       0.0000
     60 HA         11.7755   40.8592   -1.7324 H         4 MET47       0.0000
     61 HB2        10.8002   39.1358   -3.1156 H         4 MET47       0.0000
     62 HB3        12.3773   38.7391   -3.8194 H         4 MET47       0.0000
     63 HG2        12.5138   40.8827   -4.9675 H         4 MET47       0.0000
     64 HG3        11.1896   41.5682   -4.0103 H         4 MET47       0.0000
     65 HE1         9.3516   38.6422   -4.5435 H         4 MET47       0.0000
     66 HE2         8.8589   40.0937   -4.0572 H         4 MET47       0.0000
     67 HE3         8.2784   39.4614   -5.4171 H         4 MET47       0.0000
     68 N          12.4500   39.4300    0.1770 N.am      5 ILE48       0.0000
     69 CA         12.6130   38.5430    1.3040 C.3       5 ILE48       0.0000
     70 C          11.4880   37.4980    1.4260 C.2       5 ILE48       0.0000
     71 O          11.7080   36.3430    1.8620 O.2       5 ILE48       0.0000
     72 CB         12.7540   39.3600    2.5970 C.3       5 ILE48       0.0000
     73 CG1        13.8320   40.4430    2.3970 C.3       5 ILE48       0.0000
     74 CG2        12.9280   38.4410    3.8360 C.3       5 ILE48       0.0000
     75 CD1        15.2200   39.8680    2.2160 C.3       5 ILE48       0.0000
     76 OXT        10.3360   37.7920    1.0870 O.3       5 ILE48       0.0000
     77 HNCA       12.1868   40.4140    0.3978 H         5 ILE48       0.0000
     78 HA         13.5623   37.9792    1.1932 H         5 ILE48       0.0000
     79 HB         11.7797   39.8961    2.7219 H         5 ILE48       0.0000
     80 HG12       13.8208   41.1106    3.2688 H         5 ILE48       0.0000
     81 HG13       13.5642   41.0426    1.5168 H         5 ILE48       0.0000
     82 HG21       13.7410   37.8638    3.7590 H         5 ILE48       0.0000
     83 HG22       13.0224   38.9692    4.6799 H         5 ILE48       0.0000
     84 HG23       12.1455   37.8304    3.9583 H         5 ILE48       0.0000
     85 HD11       15.9054   40.5850    2.0890 H         5 ILE48       0.0000
     86 HD12       15.5044   39.3277    3.0080 H         5 ILE48       0.0000
     87 HD13       15.2722   39.2679    1.4178 H         5 ILE48       0.0000
     88 H           9.7589   37.0804    1.4876 H         5 ILE48       0.0000
@<TRIPOS>BOND
     1    2    1 1
     2   17    1 1
     3   18    1 1
     4   19    1 1
     5    3    2 1
     6    5    2 1
     7   10    2 1
     8    4    3 2
     9    6    5 1
    10   11    5 1
    11   12    5 1
    12    7    6 1
    13   13    6 1
    14   14    6 1
    15    8    7 2
    16    9    7 am
    17   15    9 1
    18   16    9 1
    19   21   20 1
    20   31   20 1
    21   22   21 1
    22   24   21 1
    23   32   21 1
    24   23   22 2
    25   25   24 1
    26   33   24 1
    27   34   24 1
    28   26   25 1
    29   35   25 1
    30   36   25 1
    31   27   26 1
    32   37   26 1
    33   38   26 1
    34   28   27 ar
    35   39   27 1
    36   29   28 ar
    37   30   28 ar
    38   40   29 1
    39   41   29 1
    40   42   30 1
    41   43   30 1
    42   45   44 1
    43   48   44 1
    44   46   45 1
    45   49   45 1
    46   50   45 1
    47   47   46 2
    48   52   51 1
    49   59   51 1
    50   53   52 1
    51   55   52 1
    52   60   52 1
    53   54   53 2
    54   56   55 1
    55   61   55 1
    56   62   55 1
    57   57   56 1
    58   63   56 1
    59   64   56 1
    60   58   57 1
    61   65   58 1
    62   66   58 1
    63   67   58 1
    64   69   68 1
    65   77   68 1
    66   70   69 1
    67   72   69 1
    68   78   69 1
    69   71   70 2
    70   76   70 1
    71   73   72 1
    72   74   72 1
    73   79   72 1
    74   75   73 1
    75   80   73 1
    76   81   73 1
    77   82   74 1
    78   83   74 1
    79   84   74 1
    80   85   75 1
    81   86   75 1
    82   87   75 1
    83   88   76 1
    84   20    3 am
    85   44   22 am
    86   51   46 am
    87   68   53 am
@<TRIPOS>SUBSTRUCTURE
     1 GLN44       1 RESIDUE
     2 ARG45      20 RESIDUE
     3 GLY46      44 RESIDUE
     4 MET47      51 RESIDUE
     5 ILE48      68 RESIDUE
@<TRIPOS>SET

