#    Name: 3umx_Q18_1_INTS_M
#    Modification time : Mon Mar 24 23:02:03 2014

@<TRIPOS>MOLECULE
3umx_Q18_1_INTS_M
   55     0     9     0     0
SMALL
NO_CHARGES


@<TRIPOS>ATOM
      1 CA         24.7340   32.6260   -1.3695 C.3       3 GLC5        0.0000 
      2 CA         23.7890   32.7210   -3.0120 C.3       9 GLL5        0.0000 
      3 CA         25.6790   32.5310    0.2730 C.3       6 GLP5        0.0000 
      4 CA         23.5640   32.4585    0.0745 C.3       3 GLC5        0.0000 
      5 CA         21.4490   32.3860   -0.1240 C.3       9 GLL5        0.0000 
      6 CA         19.3485   32.2885   -0.8465 C.3       3 GLC5        0.0000 
      7 CA         20.6820   30.9750   -1.9960 C.3       9 GLL5        0.0000 
      8 CA         18.0150   33.6020    0.3030 C.3       6 GLP5        0.0000 
      9 CA         20.0340   33.3890    1.1010 C.3       3 GLC5        0.0000 
     10 CA         22.0530   33.1760    1.8990 C.3       9 GLL5        0.0000 
     11 CA         23.8660   32.8535    1.0860 C.3       3 GLC5        0.0000 
     12 O          23.9095   38.2060    4.7220 O.2       1 ALC1        0.0000 
     13 O          23.7850   37.4490    3.5650 O.2       7 ALL1        0.0000 
     14 O          24.0340   38.9630    5.8790 O.2       4 ALP1        0.0000 
     15 CA         24.7920   36.0030    5.1505 C.3       3 GLC5        0.0000 
     16 CA         23.4250   36.2170    4.0210 C.3       9 GLL5        0.0000 
     17 CA         26.1590   35.7890    6.2800 C.3       6 GLP5        0.0000 
     18 CA         22.5280   36.2590    5.6560 C.3       3 GLC5        0.0000 
     19 CA         21.6310   36.3010    7.2910 C.3       6 GLP5        0.0000 
     20 CA         23.5690   40.4280    1.9635 C.3       3 GLC5        0.0000 
     21 CA         23.7600   38.5260    1.2960 C.3       9 GLL5        0.0000 
     22 CA         23.3780   42.3300    2.6310 C.3       6 GLP5        0.0000 
     23 N          20.7865   30.1265    3.3975 N.am      2 SEC2        0.0000 
     24 N          21.6170   30.9820    3.0220 N.am      8 SEL2        0.0000 
     25 N          19.9560   29.2710    3.7730 N.am      5 SEP2        0.0000 
     26 CA         25.4718   30.4795   -4.9650 C.3       3 GLC5        0.0000 
     27 CA         23.6420   31.5060   -3.9550 C.3       9 GLL5        0.0000 
     28 CA         27.2400   29.2810   -5.2270 C.3       6 GLP5        0.0000 
     29 CA         19.6373   33.2563   -0.8375 C.3       3 GLC5        0.0000 
     30 CA         21.3520   33.5110   -2.4580 C.3       9 GLL5        0.0000 
     31 CA         19.6900   32.7137    0.2873 C.3       3 GLC5        0.0000 
     32 CA         19.8387   30.2930    2.0505 C.3       3 GLC5        0.0000 
     33 CA         21.2810   31.2650    0.6670 C.3       9 GLL5        0.0000 
     34 CA         18.6190   29.9360    3.6450 C.3       6 GLP5        0.0000 
     35 CA         22.4312   29.5015    1.2715 C.3       3 GLC5        0.0000 
     36 CA         20.8360   30.0350    0.2450 C.3       9 GLL5        0.0000 
     37 CA         23.8040   28.3530    2.0870 C.3       6 GLP5        0.0000 
     38 CA         21.7647   34.5838    4.5373 C.3       3 GLC5        0.0000 
     39 CA         22.4950   34.0920    2.9980 C.3       9 GLL5        0.0000 
     40 CA         20.8140   34.3680    6.1100 C.3       6 GLP5        0.0000 
     41 CA         20.7335   36.0390    1.1395 C.3       3 GLC5        0.0000 
     42 CA         23.0180   36.3110    1.7370 C.3       9 GLL5        0.0000 
     43 CA         18.6120   35.9040    1.2050 C.3       6 GLP5        0.0000 
     44 CA         25.1700   36.9135    1.6780 C.3       3 GLC5        0.0000 
     45 CA         27.0570   36.9160    1.3820 C.3       6 GLP5        0.0000 
     46 CA         22.0460   38.2713    2.7118 C.3       3 GLC5        0.0000 
     47 CA         23.5480   37.5110    2.2110 C.3       9 GLL5        0.0000 
     48 CA         20.4380   38.5240    3.6700 C.3       6 GLP5        0.0000 
     49 CA         21.8195   37.2935    3.4238 C.3       3 GLC5        0.0000 
     50 CA         24.7736   34.5856    3.3734 C.3       3 GLC5        0.0000 
     51 CA         26.4770   33.6630    3.2540 C.3       6 GLP5        0.0000 
     52 CA         25.3320   37.6655    1.0025 C.3       3 GLC5        0.0000 
     53 CA         23.4540   38.3040   -0.0500 C.3       9 GLL5        0.0000 
     54 CA         21.7888   38.8481   -0.1305 C.3       3 GLC5        0.0000 
     55 CA         20.0990   39.5910   -0.7730 C.3       6 GLP5        0.0000 
@<TRIPOS>BOND
@<TRIPOS>SUBSTRUCTURE
     1 ALC1       12 GROUP        1 X    ALC  0     ROOT ALC X 1
     2 SEC2       23 GROUP        1 X    SEC  0     **** SEC X 2
     3 GLC5        1 GROUP        1 X    GLC  0     **** GLC X 6
     4 ALP1       14 GROUP        1 Y    ALP  0     ROOT ALP Y 8
     5 SEP2       25 GROUP        1 Y    SEP  0     **** SEP Y 9
     6 GLP5        3 GROUP        1 Y    GLP  0     **** GLP Y 13
     7 ALL1       13 GROUP        1 Z    ALL  0     ROOT ALL Z 15
     8 SEL2       24 GROUP        1 Z    SEL  0     **** SEL Z 16
     9 GLL5        2 GROUP        1 Z    GLL  0     **** GLL Z 20
@<TRIPOS>SET

