#    Name: 3umx_Q18_1_ligand
#    Modification time : Mon Mar 24 23:02:03 2014

@<TRIPOS>MOLECULE
3umx_Q18_1_ligand
   54    58     1     0     0
SMALL
NO_CHARGES


@<TRIPOS>ATOM
      1 C1         24.1170   33.3250   -5.7640 C.3       1 Q18400      0.0000 
      2 C2         23.0030   34.3770   -5.5360 C.3       1 Q18400      0.0000 
      3 C3         22.8890   34.8270   -4.0580 C.3       1 Q18400      0.0000 
      4 N4         22.6300   33.6080   -3.2470 N.4       1 Q18400      0.0000 
      5 C5         23.7890   32.7210   -3.0120 C.3       1 Q18400      0.0000 
      6 C6         23.6420   31.5060   -3.9550 C.3       1 Q18400      0.0000 
      7 C7         23.7650   31.8500   -5.4510 C.3       1 Q18400      0.0000 
      8 C8         21.3520   33.5110   -2.4580 C.3       1 Q18400      0.0000 
      9 C9         21.1670   32.3100   -1.4980 C.ar      1 Q18400      0.0000 
     10 C10        21.4490   32.3860   -0.1240 C.ar      1 Q18400      0.0000 
     11 C11        21.2810   31.2650    0.6670 C.ar      1 Q18400      0.0000 
     12 C12        20.8360   30.0350    0.2450 C.ar      1 Q18400      0.0000 
     13 C13        20.5580   29.8860   -1.1150 C.ar      1 Q18400      0.0000 
     14 C14        20.6820   30.9750   -1.9960 C.ar      1 Q18400      0.0000 
     15 O15        21.9060   33.5530    0.5940 O.3       1 Q18400      0.0000 
     16 C16        22.0530   33.1760    1.8990 C.2       1 Q18400      0.0000 
     17 C17        21.6550   31.7390    1.9870 C.2       1 Q18400      0.0000 
     18 C18        22.4950   34.0920    2.9980 C.2       1 Q18400      0.0000 
     19 C19        22.9360   35.5070    2.9310 C.2       1 Q18400      0.0000 
     20 C20        23.0180   36.3110    1.7370 C.ar      1 Q18400      0.0000 
     21 C21        23.5480   37.5110    2.2110 C.ar      1 Q18400      0.0000 
     22 N22        23.7850   37.4490    3.5650 N.pl3     1 Q18400      0.0000 
     23 C23        23.4250   36.2170    4.0210 C.2       1 Q18400      0.0000 
     24 C24        22.6920   36.0370    0.4110 C.ar      1 Q18400      0.0000 
     25 C25        22.9400   37.0650   -0.4940 C.ar      1 Q18400      0.0000 
     26 C26        23.4540   38.3040   -0.0500 C.ar      1 Q18400      0.0000 
     27 C27        23.7600   38.5260    1.2960 C.ar      1 Q18400      0.0000 
     28 O28        21.6170   30.9820    3.0220 O.2       1 Q18400      0.0000 
     29 O29        20.3660   30.7870   -3.3160 O.3       1 Q18400      0.0000 
     30 H          25.0006   33.6122   -5.1538 H         1 Q18400      0.0000 
     31 H          24.4489   33.3896   -6.8229 H         1 Q18400      0.0000 
     32 H          22.0458   33.9527   -5.8514 H         1 Q18400      0.0000 
     33 H          23.2107   35.2525   -6.1573 H         1 Q18400      0.0000 
     34 H          22.0727   35.5235   -3.9768 H         1 Q18400      0.0000 
     35 H          23.8172   35.2897   -3.7711 H         1 Q18400      0.0000 
     36 H          22.1606   32.8943   -4.3078 H         1 Q18400      0.0000 
     37 H          23.8023   32.3618   -1.9948 H         1 Q18400      0.0000 
     38 H          24.7149   33.2227   -3.2463 H         1 Q18400      0.0000 
     39 H          22.6626   31.0377   -3.7766 H         1 Q18400      0.0000 
     40 H          24.4114   30.7635   -3.6959 H         1 Q18400      0.0000 
     41 H          24.5373   31.2021   -5.9031 H         1 Q18400      0.0000 
     42 H          22.8121   31.6033   -5.9527 H         1 Q18400      0.0000 
     43 H          20.4803   33.5143   -3.1662 H         1 Q18400      0.0000 
     44 H          21.2191   34.4489   -1.8546 H         1 Q18400      0.0000 
     45 H          20.7115   29.2623    0.8859 H         1 Q18400      0.0000 
     46 H          20.2589   28.9714   -1.4810 H         1 Q18400      0.0000 
     47 H          22.4905   33.6572    3.9746 H         1 Q18400      0.0000 
     48 H          24.1465   38.1642    4.0963 H         1 Q18400      0.0000 
     49 H          23.4891   35.8911    4.9071 H         1 Q18400      0.0000 
     50 H          22.3063   35.1618    0.1289 H         1 Q18400      0.0000 
     51 H          22.7507   36.9309   -1.4957 H         1 Q18400      0.0000 
     52 H          23.6047   39.0584   -0.7401 H         1 Q18400      0.0000 
     53 H          24.1353   39.4294    1.5930 H         1 Q18400      0.0000 
     54 H          20.9815   31.4025   -3.8084 H         1 Q18400      0.0000 
@<TRIPOS>BOND
     1    2    1 1    
     2    7    1 1    
     3   30    1 1    
     4   31    1 1    
     5    3    2 1    
     6   32    2 1    
     7   33    2 1    
     8    4    3 1    
     9   34    3 1    
    10   35    3 1    
    11    5    4 1    
    12    8    4 1    
    13   36    4 1    
    14    6    5 1    
    15   37    5 1    
    16   38    5 1    
    17    7    6 1    
    18   39    6 1    
    19   40    6 1    
    20   41    7 1    
    21   42    7 1    
    22    9    8 1    
    23   43    8 1    
    24   44    8 1    
    25   10    9 ar   
    26   14    9 ar   
    27   11   10 ar   
    28   15   10 1    
    29   12   11 ar   
    30   17   11 1    
    31   13   12 ar   
    32   45   12 1    
    33   14   13 ar   
    34   46   13 1    
    35   29   14 1    
    36   16   15 1    
    37   17   16 1    
    38   18   16 2    
    39   28   17 2    
    40   19   18 1    
    41   47   18 1    
    42   20   19 1    
    43   23   19 2    
    44   21   20 ar   
    45   24   20 ar   
    46   22   21 1    
    47   27   21 ar   
    48   23   22 1    
    49   48   22 1    
    50   49   23 1    
    51   25   24 ar   
    52   50   24 1    
    53   26   25 ar   
    54   51   25 1    
    55   27   26 ar   
    56   52   26 1    
    57   53   27 1    
    58   54   29 1    
@<TRIPOS>SUBSTRUCTURE
     1 Q18400      1 GROUP   
@<TRIPOS>SET

