#    Name: 2V3I_1_CAVITY_N1_6.mol2
#    Modification time : Mon Mar 10 14:38:03 2014

@<TRIPOS>MOLECULE
2V3I_1_CAVITY_N1_6.mol2
  187     0     6     0     0
SMALL
NO_CHARGES


@<TRIPOS>ATOM
      1 CA         17.7812   48.8714   97.4217 C.3       5 GLY6        0.0000 
      2 O          19.1519   50.0702   98.5100 O.2       2 ALA2        0.0000 
      3 DU         20.1709   48.9719   98.4362 H         6 CUB7        0.0000 
      4 N          21.1900   47.8737   98.3625 N.2       2 ALA2        0.0000 
      5 O          18.8354   49.8741   97.0569 O.2       2 ALA2        0.0000 
      6 DU         19.8545   48.7759   96.9831 H         6 CUB7        0.0000 
      7 NZ         20.8735   47.6777   96.9094 N.2       3 LYS4        0.0000 
      8 NZ         21.8926   46.5795   96.8356 N.2       3 LYS4        0.0000 
      9 CZ         18.5190   49.6781   95.6038 C.ar      4 PHE5        0.0000 
     10 OG         19.5381   48.5799   95.5300 O.2       1 SER1        0.0000 
     11 OG         17.8862   49.2861   92.6976 O.2       1 SER1        0.0000 
     12 CA         19.6079   46.8936   91.0970 C.3       5 GLY6        0.0000 
     13 O          21.5416   50.1707   99.5245 O.2       2 ALA2        0.0000 
     14 N          22.5606   49.0725   99.4507 N.2       2 ALA2        0.0000 
     15 O          20.2061   51.0729   98.1451 O.2       2 ALA2        0.0000 
     16 O          21.2251   49.9747   98.0714 O.2       2 ALA2        0.0000 
     17 NZ         22.2442   48.8764   97.9976 N.2       3 LYS4        0.0000 
     18 NZ         23.2632   47.7782   97.9239 N.2       3 LYS4        0.0000 
     19 O          19.8897   50.8769   96.6921 O.2       2 ALA2        0.0000 
     20 NZ         20.9087   49.7787   96.6183 N.2       3 LYS4        0.0000 
     21 NZ         23.9659   46.4840   96.3970 N.2       3 LYS4        0.0000 
     22 CZ         19.5733   50.6809   95.2390 C.ar      4 PHE5        0.0000 
     23 NZ         20.5923   49.5826   95.1652 N.2       3 LYS4        0.0000 
     24 CZ         19.2568   50.4848   93.7859 C.ar      4 PHE5        0.0000 
     25 OG         20.2759   49.3866   93.7121 O.2       1 SER1        0.0000 
     26 OG         18.9404   50.2888   92.3328 O.2       1 SER1        0.0000 
     27 OG         19.9595   49.1906   92.2590 O.2       1 SER1        0.0000 
     28 CA         19.6430   48.9946   90.8060 C.3       5 GLY6        0.0000 
     29 OG         18.3076   49.8968   89.4266 O.2       1 SER1        0.0000 
     30 CA         19.3266   48.7986   89.3529 C.3       5 GLY6        0.0000 
     31 OG         15.9531   51.8972   88.1211 O.2       1 SER1        0.0000 
     32 OG         16.9721   50.7990   88.0473 O.2       1 SER1        0.0000 
     33 DU         17.9912   49.7008   87.9736 H         6 CUB7        0.0000 
     34 O          22.5958   51.1734   99.1596 O.2       2 ALA2        0.0000 
     35 O          23.6149   50.0752   99.0859 O.2       2 ALA2        0.0000 
     36 N          24.6339   48.9770   99.0121 N.2       2 ALA2        0.0000 
     37 O          21.2603   52.0756   97.7803 O.2       2 ALA2        0.0000 
     38 O          22.2794   50.9774   97.7066 O.2       2 ALA2        0.0000 
     39 NZ         23.2984   49.8792   97.6328 N.2       3 LYS4        0.0000 
     40 CA         24.3175   48.7810   97.5590 C.3       5 GLY6        0.0000 
     41 CA         25.3365   47.6827   97.4853 C.3       5 GLY6        0.0000 
     42 O          20.9439   51.8796   96.3272 O.2       2 ALA2        0.0000 
     43 NZ         21.9630   50.7814   96.2535 N.2       3 LYS4        0.0000 
     44 CZ         19.6084   52.7818   94.9479 C.ar      4 PHE5        0.0000 
     45 CZ         20.6275   51.6836   94.8741 C.ar      4 PHE5        0.0000 
     46 NZ         21.6465   50.5854   94.8004 N.2       3 LYS4        0.0000 
     47 CZ         20.3111   51.4876   93.4211 C.ar      4 PHE5        0.0000 
     48 NZ         21.3301   50.3894   93.3473 N.2       3 LYS4        0.0000 
     49 OG         19.9947   51.2916   91.9680 O.2       1 SER1        0.0000 
     50 OG         19.6782   51.0956   90.5149 O.2       1 SER1        0.0000 
     51 OG         18.3428   51.9978   89.1356 O.2       1 SER1        0.0000 
     52 O          19.3618   50.8995   89.0618 O.2       2 ALA2        0.0000 
     53 CA         17.0073   52.9000   87.7562 C.3       5 GLY6        0.0000 
     54 OG         18.0263   51.8017   87.6825 O.2       1 SER1        0.0000 
     55 O          19.0454   50.7035   87.6087 O.2       2 ALA2        0.0000 
     56 N          17.7099   51.6057   86.2294 N.2       2 ALA2        0.0000 
     57 N          18.7290   50.5075   86.1556 N.2       2 ALA2        0.0000 
     58 CA         17.3935   51.4097   84.7763 C.3       5 GLY6        0.0000 
     59 N          18.4126   50.3115   84.7025 N.2       2 ALA2        0.0000 
     60 NZ         24.6691   51.0779   98.7210 N.2       3 LYS4        0.0000 
     61 O          22.3146   53.0784   97.4155 O.2       2 ALA2        0.0000 
     62 NZ         23.3336   51.9801   97.3417 N.2       3 LYS4        0.0000 
     63 CA         24.3527   50.8819   97.2680 C.3       5 GLY6        0.0000 
     64 O          21.9982   52.8824   95.9624 O.2       2 ALA2        0.0000 
     65 CA         23.0172   51.7841   95.8886 C.3       5 GLY6        0.0000 
     66 CA         21.6817   52.6863   94.5093 C.3       5 GLY6        0.0000 
     67 NZ         22.7008   51.5881   94.4355 N.2       3 LYS4        0.0000 
     68 CA         21.3653   52.4903   93.0562 C.3       5 GLY6        0.0000 
     69 NZ         22.3844   51.3921   92.9825 N.2       3 LYS4        0.0000 
     70 CA         20.0298   53.3925   91.6769 C.3       5 GLY6        0.0000 
     71 O          21.0489   52.2943   91.6031 O.2       2 ALA2        0.0000 
     72 OG         19.7134   53.1965   90.2238 O.2       1 SER1        0.0000 
     73 O          20.7325   52.0983   90.1501 O.2       2 ALA2        0.0000 
     74 CA         19.3970   53.0005   88.7707 C.3       5 GLY6        0.0000 
     75 CA         19.0806   52.8045   87.3176 C.3       5 GLY6        0.0000 
     76 O          20.0996   51.7063   87.2439 O.2       2 ALA2        0.0000 
     77 N          19.7832   51.5102   85.7908 N.2       2 ALA2        0.0000 
     78 O          22.3498   55.1793   97.1244 O.2       2 ALA2        0.0000 
     79 NZ         23.3688   54.0811   97.0506 N.2       3 LYS4        0.0000 
     80 N          24.3879   52.9829   96.9769 N.2       2 ALA2        0.0000 
     81 N          22.0333   54.9833   95.6713 N.2       2 ALA2        0.0000 
     82 DU         23.0524   53.8851   95.5976 H         6 CUB7        0.0000 
     83 N          24.0714   52.7869   95.5238 N.2       2 ALA2        0.0000 
     84 CA         22.7360   53.6891   94.1445 C.3       5 GLY6        0.0000 
     85 CA         23.7550   52.5909   94.0707 C.3       5 GLY6        0.0000 
     86 O          22.4195   53.4931   92.6914 O.2       2 ALA2        0.0000 
     87 O          23.4386   52.3948   92.6176 O.2       2 ALA2        0.0000 
     88 CA         21.0841   54.3953   91.3121 C.3       5 GLY6        0.0000 
     89 O          22.1031   53.2970   91.2383 O.2       2 ALA2        0.0000 
     90 CA         20.7677   54.1993   89.8590 C.3       5 GLY6        0.0000 
     91 O          21.7867   53.1010   89.7852 O.2       2 ALA2        0.0000 
     92 CA         20.4512   54.0032   88.4059 C.3       5 GLY6        0.0000 
     93 CA         20.1348   53.8072   86.9528 C.3       5 GLY6        0.0000 
     94 NZ         23.7204   56.3781   98.2127 N.2       3 LYS4        0.0000 
     95 N          23.4040   56.1821   96.7596 N.2       2 ALA2        0.0000 
     96 CA         24.4230   55.0838   96.6858 C.3       5 GLY6        0.0000 
     97 CZ         24.1066   54.8878   95.2327 C.ar      4 PHE5        0.0000 
     98 CZ         23.7902   54.6918   93.7796 C.ar      4 PHE5        0.0000 
     99 N          24.8093   53.5936   93.7059 N.2       2 ALA2        0.0000 
    100 CZ         23.4738   54.4958   92.3266 C.ar      4 PHE5        0.0000 
    101 N          24.4928   53.3976   92.2528 N.2       2 ALA2        0.0000 
    102 CZ         22.1383   55.3980   90.9472 C.ar      4 PHE5        0.0000 
    103 O          23.1574   54.2998   90.8735 O.2       2 ALA2        0.0000 
    104 O          21.8219   55.2020   89.4941 O.2       2 ALA2        0.0000 
    105 O          22.8409   54.1038   89.4204 O.2       2 ALA2        0.0000 
    106 NZ         20.4864   56.1042   88.1148 N.2       3 LYS4        0.0000 
    107 OG         21.5055   55.0060   88.0411 O.2       1 SER1        0.0000 
    108 CZ         24.4582   57.1848   96.3947 C.ar      4 PHE5        0.0000 
    109 OG         25.4773   56.0866   96.3210 O.2       1 SER1        0.0000 
    110 CZ         25.1609   55.8906   94.8679 C.ar      4 PHE5        0.0000 
    111 N          26.1799   54.7923   94.7941 N.2       2 ALA2        0.0000 
    112 CZ         24.8444   55.6945   93.4148 C.ar      4 PHE5        0.0000 
    113 N          25.8635   54.5963   93.3410 N.2       2 ALA2        0.0000 
    114 CZ         24.5280   55.4985   91.9617 C.ar      4 PHE5        0.0000 
    115 N          25.5471   54.4003   91.8880 N.2       2 ALA2        0.0000 
    116 CZ         24.2116   55.3025   90.5086 C.ar      4 PHE5        0.0000 
    117 O          25.2307   54.2043   90.4349 O.2       2 ALA2        0.0000 
    118 CZ         22.8761   56.2047   89.1293 C.ar      4 PHE5        0.0000 
    119 OG         23.8952   55.1065   89.0556 O.2       1 SER1        0.0000 
    120 NZ         21.5407   57.1069   87.7500 N.2       3 LYS4        0.0000 
    121 OG         22.5597   56.0087   87.6762 O.2       1 SER1        0.0000 
    122 CA         22.2433   55.8127   86.2231 C.3       5 GLY6        0.0000 
    123 NZ         26.2151   56.8933   94.5031 N.2       3 LYS4        0.0000 
    124 CZ         25.8987   56.6973   93.0500 C.ar      4 PHE5        0.0000 
    125 N          26.9177   55.5991   92.9762 N.2       2 ALA2        0.0000 
    126 CZ         25.5823   56.5013   91.5969 C.ar      4 PHE5        0.0000 
    127 O          26.6013   55.4030   91.5231 O.2       2 ALA2        0.0000 
    128 CZ         25.2658   56.3053   90.1438 C.ar      4 PHE5        0.0000 
    129 O          26.2849   55.2070   90.0700 O.2       2 ALA2        0.0000 
    130 CZ         23.9304   57.2075   88.7645 C.ar      4 PHE5        0.0000 
    131 N          24.9494   56.1092   88.6907 N.2       2 ALA2        0.0000 
    132 CZ         23.6139   57.0115   87.3114 C.ar      4 PHE5        0.0000 
    133 OG         24.6330   55.9132   87.2376 O.2       1 SER1        0.0000 
    134 CZ         23.2975   56.8154   85.8583 C.ar      4 PHE5        0.0000 
    135 OG         24.3166   55.7172   85.7846 O.2       1 SER1        0.0000 
    136 NZ         21.9621   57.7176   84.4790 N.2       3 LYS4        0.0000 
    137 OG         22.9811   56.6194   84.4052 O.2       1 SER1        0.0000 
    138 NZ         27.6555   56.4058   91.1583 N.2       3 LYS4        0.0000 
    139 NZ         26.3201   57.3080   89.7790 N.2       3 LYS4        0.0000 
    140 O          27.3391   56.2098   89.7052 O.2       2 ALA2        0.0000 
    141 CZ         26.0037   57.1120   88.3259 C.ar      4 PHE5        0.0000 
    142 CA         27.0227   56.0138   88.2521 C.3       5 GLY6        0.0000 
    143 CZ         25.6872   56.9160   86.8728 C.ar      4 PHE5        0.0000 
    144 CZ         24.3518   57.8182   85.4935 C.ar      4 PHE5        0.0000 
    145 OG         25.3708   56.7199   85.4197 O.2       1 SER1        0.0000 
    146 CA         26.3899   55.6217   85.3460 C.3       5 GLY6        0.0000 
    147 CZ         23.0163   58.7204   84.1142 C.ar      4 PHE5        0.0000 
    148 OG         24.0353   57.6222   84.0404 O.2       1 SER1        0.0000 
    149 NZ         27.3743   58.3107   89.4141 N.2       3 LYS4        0.0000 
    150 NZ         28.3934   57.2125   89.3404 N.2       3 LYS4        0.0000 
    151 CZ         27.0579   58.1147   87.9611 C.ar      4 PHE5        0.0000 
    152 CA         28.0769   57.0165   87.8873 C.3       5 GLY6        0.0000 
    153 CZ         26.7415   57.9187   86.5080 C.ar      4 PHE5        0.0000 
    154 NZ         27.7605   56.8205   86.4342 N.2       3 LYS4        0.0000 
    155 CZ         25.4060   58.8209   85.1286 C.ar      4 PHE5        0.0000 
    156 OG         26.4250   57.7227   85.0549 O.2       1 SER1        0.0000 
    157 NZ         27.4441   56.6245   84.9811 N.2       3 LYS4        0.0000 
    158 CZ         24.0705   59.7231   83.7493 C.ar      4 PHE5        0.0000 
    159 OG         25.0896   58.6249   83.6756 O.2       1 SER1        0.0000 
    160 OG         27.1277   56.4284   83.5280 O.2       1 SER1        0.0000 
    161 NZ         27.4095   60.4117   89.1231 N.2       3 LYS4        0.0000 
    162 NZ         28.4285   59.3135   89.0493 N.2       3 LYS4        0.0000 
    163 CZ         27.0931   60.2157   87.6700 C.ar      4 PHE5        0.0000 
    164 CZ         28.1121   59.1175   87.5962 C.ar      4 PHE5        0.0000 
    165 NZ         29.1312   58.0192   87.5225 N.2       3 LYS4        0.0000 
    166 CZ         26.7767   60.0197   86.2169 C.ar      4 PHE5        0.0000 
    167 NZ         27.7957   58.9214   86.1431 N.2       3 LYS4        0.0000 
    168 CZ         26.4602   59.8236   84.7638 C.ar      4 PHE5        0.0000 
    169 NZ         27.4793   58.7254   84.6901 N.2       3 LYS4        0.0000 
    170 CZ         25.1248   60.7259   83.3845 C.ar      4 PHE5        0.0000 
    171 OG         26.1438   59.6276   83.3107 O.2       1 SER1        0.0000 
    172 OG         27.1629   58.5294   83.2370 O.2       1 SER1        0.0000 
    173 NZ         28.1819   57.4312   83.1632 N.2       3 LYS4        0.0000 
    174 OG         26.8464   58.3334   81.7839 O.2       1 SER1        0.0000 
    175 CZ         29.4828   60.3162   88.6845 C.ar      4 PHE5        0.0000 
    176 O          28.1473   61.2184   87.3051 O.2       2 ALA2        0.0000 
    177 OG         29.1664   60.1202   87.2314 O.2       1 SER1        0.0000 
    178 O          27.8309   61.0224   85.8521 O.2       2 ALA2        0.0000 
    179 OG         28.8499   59.9242   85.7783 O.2       1 SER1        0.0000 
    180 CA         26.4954   61.9246   84.4727 C.3       5 GLY6        0.0000 
    181 O          27.5145   60.8264   84.3990 O.2       2 ALA2        0.0000 
    182 O          28.5335   59.7282   84.3252 O.2       2 ALA2        0.0000 
    183 CA         26.1790   61.7286   83.0197 C.3       5 GLY6        0.0000 
    184 O          27.1981   60.6304   82.9459 O.2       2 ALA2        0.0000 
    185 O          26.8816   60.4344   81.4928 O.2       2 ALA2        0.0000 
    186 OG         28.8851   62.0251   85.4872 O.2       1 SER1        0.0000 
    187 CA         27.5497   62.9273   84.1079 C.3       5 GLY6        0.0000 
@<TRIPOS>BOND
@<TRIPOS>SUBSTRUCTURE
     1 SER1       10 GROUP   
     2 ALA2        2 GROUP   
     3 LYS4        7 GROUP   
     4 PHE5        9 GROUP   
     5 GLY6        1 GROUP   
     6 CUB7        3 GROUP   
@<TRIPOS>SET

