#    Name: 2v3i_XX6_1_INTS_M
#    Modification time : Tue Mar 25 00:53:57 2014

@<TRIPOS>MOLECULE
2v3i_XX6_1_INTS_M
   48     0    12     0     0
SMALL
NO_CHARGES


@<TRIPOS>ATOM
      1 O          29.4295   57.2240   85.7585 O.2       1 ALC1        0.0000 
      2 O          28.3860   57.8220   86.4110 O.2       9 ALL1        0.0000 
      3 O          30.4730   56.6260   85.1060 O.2       5 ALP1        0.0000 
      4 CA         30.4875   59.8550   87.2440 C.3       4 GLC5        0.0000 
      5 CA         29.1010   58.5040   87.3740 C.3      12 GLL5        0.0000 
      6 CA         31.8740   61.2060   87.1140 C.3       8 GLP5        0.0000 
      7 CA         28.7565   62.2750   89.4175 C.3       4 GLC5        0.0000 
      8 CA         28.6240   60.2930   88.7630 C.3      12 GLL5        0.0000 
      9 CA         28.8890   64.2570   90.0720 C.3       8 GLP5        0.0000 
     10 CA         30.0840   61.3075   88.3345 C.3       4 GLC5        0.0000 
     11 CA         31.5440   62.3220   87.9060 C.3       8 GLP5        0.0000 
     12 N          26.7110   61.9080   88.5765 N.am      2 SEC2        0.0000 
     13 N          27.6500   61.1070   89.3860 N.am     10 SEL2        0.0000 
     14 N          25.7720   62.7090   87.7670 N.am      6 SEP2        0.0000 
     15 O          27.3635   60.4980   90.5225 O.2       1 ALC1        0.0000 
     16 O          27.6500   61.1070   89.3860 O.2       9 ALL1        0.0000 
     17 O          27.0770   59.8890   91.6590 O.2       5 ALP1        0.0000 
     18 OD1        29.7170   57.8590   89.7235 O.co2     3 ASC3        0.0000 
     19 OD1        28.3400   58.1270   89.7900 O.co2    11 ASL3        0.0000 
     20 OD1        31.0940   57.5910   89.6570 O.co2     7 ASP3        0.0000 
     21 OD1        29.8565   58.5850   90.7470 O.co2     3 ASC3        0.0000 
     22 OD1        31.3730   59.0430   91.7040 O.co2     7 ASP3        0.0000 
     23 OD1        29.3505   57.7315   91.2130 O.co2     3 ASC3        0.0000 
     24 OD1        30.3610   57.3360   92.6360 O.co2     7 ASP3        0.0000 
     25 OD1        27.7085   59.0080   90.7245 O.co2     3 ASC3        0.0000 
     26 OD1        27.0770   59.8890   91.6590 O.co2     7 ASP3        0.0000 
     27 CA         26.7855   55.2670   88.3145 C.3       4 GLC5        0.0000 
     28 CA         26.1630   56.7710   89.8100 C.3      12 GLL5        0.0000 
     29 CA         27.4080   53.7630   86.8190 C.3       8 GLP5        0.0000 
     30 CA         25.3770   58.6335   88.9315 C.3       4 GLC5        0.0000 
     31 CA         24.5910   60.4960   88.0530 C.3       8 GLP5        0.0000 
     32 CA         21.4705   53.8745   86.4510 C.3       4 GLC5        0.0000 
     33 CA         20.7370   54.3430   88.4450 C.3      12 GLL5        0.0000 
     34 CA         22.2040   53.4060   84.4570 C.3       8 GLP5        0.0000 
     35 CA         23.8600   50.8860   94.8595 C.3       4 GLC5        0.0000 
     36 CA         22.3600   51.9870   94.8680 C.3      12 GLL5        0.0000 
     37 CA         25.3600   49.7850   94.8510 C.3       8 GLP5        0.0000 
     38 CA         26.4925   60.0392   88.3420 C.3       4 GLC5        0.0000 
     39 CA         28.1640   58.8720   88.4990 C.3      12 GLL5        0.0000 
     40 CA         24.7495   57.5323   91.0975 C.3       4 GLC5        0.0000 
     41 CA         23.6800   58.7900   91.9320 C.3       8 GLP5        0.0000 
     42 CA         18.6140   54.4120   89.2104 C.3       4 GLC5        0.0000 
     43 CA         16.9820   55.3930   88.8540 C.3       8 GLP5        0.0000 
     44 CA         24.6593   51.9218   93.8148 C.3       4 GLC5        0.0000 
     45 CA         22.8680   53.3230   92.9090 C.3      12 GLL5        0.0000 
     46 CA         26.2880   50.7460   94.0760 C.3       8 GLP5        0.0000 
     47 CA         20.8109   54.3791   93.2094 C.3       4 GLC5        0.0000 
     48 CA         19.6030   55.8140   93.8070 C.3       8 GLP5        0.0000 
@<TRIPOS>BOND
@<TRIPOS>SUBSTRUCTURE
     1 ALC1        1 GROUP        1 X    ALC  0     ROOT ALC X 1
     2 SEC2       12 GROUP        1 X    SEC  0     **** SEC X 2
     3 ASC3       18 GROUP        1 X    ASC  0     **** ASC X 3
     4 GLC5        4 GROUP        1 X    GLC  0     **** GLC X 6
     5 ALP1        3 GROUP        1 Y    ALP  0     ROOT ALP Y 8
     6 SEP2       14 GROUP        1 Y    SEP  0     **** SEP Y 9
     7 ASP3       20 GROUP        1 Y    ASP  0     **** ASP Y 10
     8 GLP5        6 GROUP        1 Y    GLP  0     **** GLP Y 13
     9 ALL1        2 GROUP        1 Z    ALL  0     ROOT ALL Z 15
    10 SEL2       13 GROUP        1 Z    SEL  0     **** SEL Z 16
    11 ASL3       19 GROUP        1 Z    ASL  0     **** ASL Z 17
    12 GLL5        5 GROUP        1 Z    GLL  0     **** GLL Z 20
@<TRIPOS>SET

