#    Name: 2v3i_XX6_1_ligand
#    Modification time : Tue Mar 25 00:53:57 2014

@<TRIPOS>MOLECULE
2v3i_XX6_1_ligand
   47    49     1     0     0
SMALL
NO_CHARGES


@<TRIPOS>ATOM
      1 O4         28.3860   57.8220   86.4110 O.3       1 XX6501      0.0000 
      2 C19        29.1010   58.5040   87.3740 C.3       1 XX6501      0.0000 
      3 C18        28.1640   58.8720   88.4990 C.3       1 XX6501      0.0000 
      4 C20        28.6240   60.2930   88.7630 C.3       1 XX6501      0.0000 
      5 O3         27.6500   61.1070   89.3860 O.3       1 XX6501      0.0000 
      6 N          28.3400   58.1270   89.7900 N.4       1 XX6501      0.0000 
      7 C17        27.6290   56.8310   90.1450 C.3       1 XX6501      0.0000 
      8 C16        26.1630   56.7710   89.8100 C.3       1 XX6501      0.0000 
      9 O2         26.0970   56.2970   88.4680 O.3       1 XX6501      0.0000 
     10 C15        25.4750   55.7780   90.7160 C.3       1 XX6501      0.0000 
     11 O1         24.1640   55.5140   90.2580 O.3       1 XX6501      0.0000 
     12 C10        23.4070   54.6530   90.9700 C.ar      1 XX6501      0.0000 
     13 C5         22.1960   54.2700   90.3810 C.ar      1 XX6501      0.0000 
     14 C6         21.8830   54.7380   89.0890 C.ar      1 XX6501      0.0000 
     15 C1         20.7370   54.3430   88.4450 C.ar      1 XX6501      0.0000 
     16 C2         19.8990   53.4510   89.0880 C.ar      1 XX6501      0.0000 
     17 C3         20.1740   52.9650   90.3670 C.ar      1 XX6501      0.0000 
     18 C4         21.3610   53.3550   91.0130 C.ar      1 XX6501      0.0000 
     19 C7         21.6750   52.9100   92.3010 C.ar      1 XX6501      0.0000 
     20 C11        20.8210   51.9980   92.9720 C.ar      1 XX6501      0.0000 
     21 C12        21.1930   51.5670   94.2460 C.ar      1 XX6501      0.0000 
     22 C13        22.3600   51.9870   94.8680 C.ar      1 XX6501      0.0000 
     23 C14        23.1930   52.8720   94.1980 C.ar      1 XX6501      0.0000 
     24 C8         22.8680   53.3230   92.9090 C.ar      1 XX6501      0.0000 
     25 C9         23.7300   54.2150   92.2490 C.ar      1 XX6501      0.0000 
     26 H          29.5450   59.4358   86.9949 H         1 XX6501      0.0000 
     27 H          29.9156   57.9039   87.8046 H         1 XX6501      0.0000 
     28 H          27.1786   58.9071   88.1710 H         1 XX6501      0.0000 
     29 H          28.9496   60.7239   87.7851 H         1 XX6501      0.0000 
     30 H          29.5560   60.2321   89.3758 H         1 XX6501      0.0000 
     31 H          27.7612   56.6430   91.2356 H         1 XX6501      0.0000 
     32 H          28.1535   55.9896   89.6359 H         1 XX6501      0.0000 
     33 H          25.7348   57.7258   89.9171 H         1 XX6501      0.0000 
     34 H          25.4749   56.1952   91.7371 H         1 XX6501      0.0000 
     35 H          26.0901   54.8628   90.7440 H         1 XX6501      0.0000 
     36 H          22.5423   55.3939   88.6288 H         1 XX6501      0.0000 
     37 H          20.5054   54.6959   87.5157 H         1 XX6501      0.0000 
     38 H          19.0317   53.1274   88.6062 H         1 XX6501      0.0000 
     39 H          19.5232   52.3324   90.8334 H         1 XX6501      0.0000 
     40 H          19.9717   51.6765   92.5321 H         1 XX6501      0.0000 
     41 H          20.5636   50.8995   94.7504 H         1 XX6501      0.0000 
     42 H          22.6015   51.6513   95.8012 H         1 XX6501      0.0000 
     43 H          24.0600   53.2054   94.6450 H         1 XX6501      0.0000 
     44 H          24.5834   54.5342   92.7101 H         1 XX6501      0.0000 
     45 H          29.0712   57.3057   85.8973 H         1 XX6501      0.0000 
     46 H          27.4136   60.6270   90.2308 H         1 XX6501      0.0000 
     47 H          25.1238   56.3055   88.2382 H         1 XX6501      0.0000 
@<TRIPOS>BOND
     1    2    1 1    
     2   45    1 1    
     3    3    2 1    
     4   26    2 1    
     5   27    2 1    
     6    4    3 1    
     7    6    3 1    
     8   28    3 1    
     9    5    4 1    
    10   29    4 1    
    11   30    4 1    
    12   46    5 1    
    13    7    6 1    
    14    8    7 1    
    15   31    7 1    
    16   32    7 1    
    17    9    8 1    
    18   10    8 1    
    19   33    8 1    
    20   47    9 1    
    21   11   10 1    
    22   34   10 1    
    23   35   10 1    
    24   12   11 1    
    25   13   12 ar   
    26   25   12 ar   
    27   14   13 ar   
    28   18   13 ar   
    29   15   14 ar   
    30   36   14 1    
    31   16   15 ar   
    32   37   15 1    
    33   17   16 ar   
    34   38   16 1    
    35   18   17 ar   
    36   39   17 1    
    37   19   18 ar   
    38   20   19 ar   
    39   24   19 ar   
    40   21   20 ar   
    41   40   20 1    
    42   22   21 ar   
    43   41   21 1    
    44   23   22 ar   
    45   42   22 1    
    46   24   23 ar   
    47   43   23 1    
    48   25   24 ar   
    49   44   25 1    
@<TRIPOS>SUBSTRUCTURE
     1 XX6501      1 GROUP   
@<TRIPOS>SET

