#    Name: 1rrm_APR_2_INTS_M
#    Modification time : Tue Mar 25 01:07:34 2014

@<TRIPOS>MOLECULE
1rrm_APR_2_INTS_M
   86     0     9     0     0
SMALL
NO_CHARGES


@<TRIPOS>ATOM
      1 CA         52.9305   12.1100   71.3110 C.3       3 GLC5        0.0000 
      2 CA         53.0810   10.2250   70.1420 C.3       9 GLL5        0.0000 
      3 CA         52.7800   13.9950   72.4800 C.3       6 GLP5        0.0000 
      4 CA         54.5670    8.8400   69.9230 C.3       3 GLC5        0.0000 
      5 CA         56.0530    7.4550   69.7040 C.3       6 GLP5        0.0000 
      6 CA         53.6680    8.5910   71.0995 C.3       3 GLC5        0.0000 
      7 CA         54.2550    6.9570   72.0570 C.3       6 GLP5        0.0000 
      8 CA         51.9755    7.9790   66.1155 C.3       3 GLC5        0.0000 
      9 CA         52.3530    9.5730   67.5980 C.3       9 GLL5        0.0000 
     10 CA         51.5980    6.3850   64.6330 C.3       6 GLP5        0.0000 
     11 O          54.5025    9.3875   65.6390 O.2       1 ALC1        0.0000 
     12 O          54.5680   10.2570   66.8590 O.2       7 ALL1        0.0000 
     13 O          54.4370    8.5180   64.4190 O.2       4 ALP1        0.0000 
     14 N          51.6860    9.7380   65.1455 N.am      2 SEC2        0.0000 
     15 N          51.6790    9.1550   66.4590 N.am      8 SEL2        0.0000 
     16 N          51.6930   10.3210   63.8320 N.am      5 SEP2        0.0000 
     17 CA         49.1960   10.4265   70.5075 C.3       3 GLC5        0.0000 
     18 CA         49.2070    8.6640   69.1470 C.3       9 GLL5        0.0000 
     19 CA         49.1850   12.1890   71.8680 C.3       6 GLP5        0.0000 
     20 CA         50.5640    7.2665   69.1965 C.3       3 GLC5        0.0000 
     21 CA         51.9210    5.8690   69.2460 C.3       6 GLP5        0.0000 
     22 CA         47.8735   10.9525   69.9880 C.3       3 GLC5        0.0000 
     23 CA         47.9010    9.2570   68.6690 C.3       9 GLL5        0.0000 
     24 CA         47.8460   12.6480   71.3070 C.3       6 GLP5        0.0000 
     25 O          47.2530   11.9120   68.4335 O.2       1 ALC1        0.0000 
     26 O          47.7300   10.6340   69.0360 O.2       7 ALL1        0.0000 
     27 O          46.7760   13.1900   67.8310 O.2       4 ALP1        0.0000 
     28 O          46.9450   11.0195   67.8665 O.2       1 ALC1        0.0000 
     29 O          46.1600   11.4050   66.6970 O.2       4 ALP1        0.0000 
     30 CA         44.9250    7.5465   69.3470 C.3       3 GLC5        0.0000 
     31 CA         46.8480    8.3500   69.3150 C.3       9 GLL5        0.0000 
     32 CA         43.0020    6.7430   69.3790 C.3       6 GLP5        0.0000 
     33 CA         49.0830    5.4545   69.7050 C.3       3 GLC5        0.0000 
     34 CA         47.5510    6.9880   69.2890 C.3       9 GLL5        0.0000 
     35 CA         50.6150    3.9210   70.1210 C.3       6 GLP5        0.0000 
     36 CA         45.0725    6.3905   68.7750 C.3       3 GLC5        0.0000 
     37 CA         47.1430    6.0380   68.1710 C.3       9 GLL5        0.0000 
     38 N          45.6785    6.7740   63.1855 N.am      2 SEC2        0.0000 
     39 N          46.5910    6.8880   64.4410 N.am      8 SEL2        0.0000 
     40 N          44.7660    6.6600   61.9300 N.am      5 SEP2        0.0000 
     41 N          44.2025    5.8445   65.1245 N.am      2 SEC2        0.0000 
     42 N          45.1520    5.6330   65.9200 N.am      8 SEL2        0.0000 
     43 N          43.2530    6.0560   64.3290 N.am      5 SEP2        0.0000 
     44 N          50.2395    5.0050   62.9735 N.am      2 SEC2        0.0000 
     45 N          48.9760    4.7900   63.4210 N.am      8 SEL2        0.0000 
     46 N          51.5030    5.2200   62.5260 N.am      5 SEP2        0.0000 
     47 N          48.2260    5.4330   62.3100 N.am      2 SEC2        0.0000 
     48 N          47.4760    6.0760   61.1990 N.am      5 SEP2        0.0000 
     49 CA         47.1025    2.6830   62.0300 C.3       3 GLC5        0.0000 
     50 CA         45.6350    2.9630   63.4960 C.3       9 GLL5        0.0000 
     51 CA         48.5700    2.4030   60.5640 C.3       6 GLP5        0.0000 
     52 CA         45.3400    0.8440   63.8900 C.3       3 GLC5        0.0000 
     53 CA         45.0450   -1.2750   64.2840 C.3       6 GLP5        0.0000 
     54 CA         45.2700    3.7465   60.4740 C.3       3 GLC5        0.0000 
     55 CA         44.1780    1.8230   60.5800 C.3       9 GLL5        0.0000 
     56 CA         46.3620    5.6700   60.3680 C.3       6 GLP5        0.0000 
     57 CA         46.3740    2.1130   60.5720 C.3       3 GLC5        0.0000 
     58 CA         45.1150   -0.0370   61.2760 C.3       3 GLC5        0.0000 
     59 CA         46.0520   -1.8970   61.9720 C.3       6 GLP5        0.0000 
     60 N          41.2960    0.4130   62.2070 N.am      2 SEC2        0.0000 
     61 N          42.4670    0.2730   61.5010 N.am      8 SEL2        0.0000 
     62 N          40.1250    0.5530   62.9130 N.am      5 SEP2        0.0000 
     63 CA         44.4065   -0.4870   62.3630 C.3       3 GLC5        0.0000 
     64 CA         43.6670    1.0240   61.7520 C.3       9 GLL5        0.0000 
     65 CA         45.1460   -1.9980   62.9740 C.3       6 GLP5        0.0000 
     66 N          41.0935    1.6300   62.7940 N.am      2 SEC2        0.0000 
     67 N          42.0620    2.7070   62.6750 N.am      8 SEL2        0.0000 
     68 O          41.7815    3.4305   61.5690 O.2       1 ALC1        0.0000 
     69 O          42.0620    2.7070   62.6750 O.2       7 ALL1        0.0000 
     70 O          41.5010    4.1540   60.4630 O.2       4 ALP1        0.0000 
     71 CA         44.2080    0.4230   63.5355 C.3       3 GLC5        0.0000 
     72 CA         43.3710    2.1210   62.7870 C.3       9 GLL5        0.0000 
     73 CA         44.0045    5.1665   62.3845 C.3       3 GLC5        0.0000 
     74 CA         44.5240    3.0610   62.5120 C.3       9 GLL5        0.0000 
     75 CA         43.4850    7.2720   62.2570 C.3       6 GLP5        0.0000 
     76 CA         51.9352    7.6907   68.7032 C.3       3 GLC5        0.0000 
     77 CA         52.9997   10.3410   65.6157 C.3       3 GLC5        0.0000 
     78 CA         52.9870   10.8540   63.5220 C.3       6 GLP5        0.0000 
     79 CA         54.1358    8.2470   67.5348 C.3       3 GLC5        0.0000 
     80 CA         55.2590    6.6660   67.3600 C.3       6 GLP5        0.0000 
     81 CA         52.0084   11.3409   67.2744 C.3       3 GLC5        0.0000 
     82 CA         53.6720   10.0830   67.8210 C.3       9 GLL5        0.0000 
     83 CA         51.2060   12.8840   66.5580 C.3       6 GLP5        0.0000 
     84 CA         45.7207    4.3410   61.6860 C.3       3 GLC5        0.0000 
     85 CA         42.3253    1.3487   60.1475 C.3       3 GLC5        0.0000 
     86 CA         40.7280    1.2740   59.1290 C.3       6 GLP5        0.0000 
@<TRIPOS>BOND
@<TRIPOS>SUBSTRUCTURE
     1 ALC1       11 GROUP        1 X    ALC  0     ROOT ALC X 1
     2 SEC2       14 GROUP        1 X    SEC  0     **** SEC X 2
     3 GLC5        1 GROUP        1 X    GLC  0     **** GLC X 6
     4 ALP1       13 GROUP        1 Y    ALP  0     ROOT ALP Y 8
     5 SEP2       16 GROUP        1 Y    SEP  0     **** SEP Y 9
     6 GLP5        3 GROUP        1 Y    GLP  0     **** GLP Y 13
     7 ALL1       12 GROUP        1 Z    ALL  0     ROOT ALL Z 15
     8 SEL2       15 GROUP        1 Z    SEL  0     **** SEL Z 16
     9 GLL5        2 GROUP        1 Z    GLL  0     **** GLL Z 20
@<TRIPOS>SET

