#    Name: 1rrm_APR_2_ligand
#    Modification time : Tue Mar 25 01:07:34 2014

@<TRIPOS>MOLECULE
1rrm_APR_2_ligand
   57    60     1     0     0
SMALL
NO_CHARGES


@<TRIPOS>ATOM
      1 N1         54.0160   10.4090   69.1310 N.ar      1 APR389      0.0000 
      2 C2         53.0810   10.2250   70.1420 C.ar      1 APR389      0.0000 
      3 N3         51.8640    9.7660   70.0290 N.ar      1 APR389      0.0000 
      4 C4         51.5460    9.4520   68.7230 C.ar      1 APR389      0.0000 
      5 C5         52.3530    9.5730   67.5980 C.ar      1 APR389      0.0000 
      6 C6         53.6720   10.0830   67.8210 C.ar      1 APR389      0.0000 
      7 N6         54.5680   10.2570   66.8590 N.pl3     1 APR389      0.0000 
      8 N7         51.6790    9.1550   66.4590 N.2       1 APR389      0.0000 
      9 C8         50.4730    8.7840   66.8990 C.2       1 APR389      0.0000 
     10 N9         50.3410    8.9440   68.2570 N.pl3     1 APR389      0.0000 
     11 C1'        49.2070    8.6640   69.1470 C.3       1 APR389      0.0000 
     12 C2'        47.9010    9.2570   68.6690 C.3       1 APR389      0.0000 
     13 O2'        47.7300   10.6340   69.0360 O.3       1 APR389      0.0000 
     14 C3'        46.8480    8.3500   69.3150 C.3       1 APR389      0.0000 
     15 O3'        46.4490    8.6890   70.6590 O.3       1 APR389      0.0000 
     16 O4'        48.9750    7.2820   69.1770 O.3       1 APR389      0.0000 
     17 C4'        47.5510    6.9880   69.2890 C.3       1 APR389      0.0000 
     18 C5'        47.1430    6.0380   68.1710 C.3       1 APR389      0.0000 
     19 O5'        47.2760    6.6530   66.8610 O.3       1 APR389      0.0000 
     20 PA         46.5540    5.9660   65.5970 P.3       1 APR389      0.0000 
     21 O1A        46.5910    6.8880   64.4410 O.co2     1 APR389      0.0000 
     22 O2A        45.1520    5.6330   65.9200 O.co2     1 APR389      0.0000 
     23 O3A        47.3970    4.6720   65.3720 O.3       1 APR389      0.0000 
     24 PB         47.9550    3.9080   64.0110 P.3       1 APR389      0.0000 
     25 O1B        48.5060    2.5840   64.3690 O.co2     1 APR389      0.0000 
     26 O2B        48.9760    4.7900   63.4210 O.co2     1 APR389      0.0000 
     27 O5D        46.6760    3.8290   63.1070 O.3       1 APR389      0.0000 
     28 C5D        45.6350    2.9630   63.4960 C.3       1 APR389      0.0000 
     29 O4D        44.9710    2.8140   61.1570 O.3       1 APR389      0.0000 
     30 O1D        44.9880    1.0240   59.6520 O.3       1 APR389      0.0000 
     31 C1D        44.1780    1.8230   60.5800 C.3       1 APR389      0.0000 
     32 O2D        42.4670    0.2730   61.5010 O.3       1 APR389      0.0000 
     33 C2D        43.6670    1.0240   61.7520 C.3       1 APR389      0.0000 
     34 O3D        42.0620    2.7070   62.6750 O.3       1 APR389      0.0000 
     35 C3D        43.3710    2.1210   62.7870 C.3       1 APR389      0.0000 
     36 C4D        44.5240    3.0610   62.5120 C.3       1 APR389      0.0000 
     37 H          53.4366   10.5073   71.1397 H         1 APR389      0.0000 
     38 H          54.4998    9.6375   66.0769 H         1 APR389      0.0000 
     39 H          55.2307   10.9920   67.0027 H         1 APR389      0.0000 
     40 H          49.7455    8.4322   66.3288 H         1 APR389      0.0000 
     41 H          49.3994    9.0346   70.1384 H         1 APR389      0.0000 
     42 H          47.8385    9.0964   67.6036 H         1 APR389      0.0000 
     43 H          46.0193    8.2735   68.6311 H         1 APR389      0.0000 
     44 H          47.3776    6.5045   70.2502 H         1 APR389      0.0000 
     45 H          46.1020    5.7234   68.3526 H         1 APR389      0.0000 
     46 H          47.7695    5.1338   68.2451 H         1 APR389      0.0000 
     47 H          45.2430    3.2205   64.4914 H         1 APR389      0.0000 
     48 H          45.9719    1.9164   63.5385 H         1 APR389      0.0000 
     49 H          43.3335    2.2538   60.0755 H         1 APR389      0.0000 
     50 H          44.4637    0.4373   62.1473 H         1 APR389      0.0000 
     51 H          43.5594    1.6712   63.7575 H         1 APR389      0.0000 
     52 H          44.1085    4.0892   62.5519 H         1 APR389      0.0000 
     53 H          47.1910   11.0342   68.2948 H         1 APR389      0.0000 
     54 H          46.9110    9.5537   70.8556 H         1 APR389      0.0000 
     55 H          44.4582    0.1899   59.4985 H         1 APR389      0.0000 
     56 H          41.9637    0.8087   60.8230 H         1 APR389      0.0000 
     57 H          42.0664    3.1838   61.7960 H         1 APR389      0.0000 
@<TRIPOS>BOND
     1    2    1 ar   
     2    6    1 ar   
     3    3    2 ar   
     4   37    2 1    
     5    4    3 ar   
     6    5    4 ar   
     7   10    4 1    
     8    6    5 ar   
     9    8    5 1    
    10    7    6 1    
    11   38    7 1    
    12   39    7 1    
    13    9    8 2    
    14   10    9 1    
    15   40    9 1    
    16   11   10 1    
    17   12   11 1    
    18   16   11 1    
    19   41   11 1    
    20   13   12 1    
    21   14   12 1    
    22   42   12 1    
    23   53   13 1    
    24   15   14 1    
    25   17   14 1    
    26   43   14 1    
    27   54   15 1    
    28   17   16 1    
    29   18   17 1    
    30   44   17 1    
    31   19   18 1    
    32   45   18 1    
    33   46   18 1    
    34   20   19 1    
    35   21   20 ar   
    36   22   20 ar   
    37   23   20 1    
    38   24   23 1    
    39   25   24 ar   
    40   26   24 ar   
    41   27   24 1    
    42   28   27 1    
    43   36   28 1    
    44   47   28 1    
    45   48   28 1    
    46   31   29 1    
    47   36   29 1    
    48   31   30 1    
    49   55   30 1    
    50   33   31 1    
    51   49   31 1    
    52   33   32 1    
    53   56   32 1    
    54   35   33 1    
    55   50   33 1    
    56   35   34 1    
    57   57   34 1    
    58   36   35 1    
    59   51   35 1    
    60   52   36 1    
@<TRIPOS>SUBSTRUCTURE
     1 APR389      1 GROUP   
@<TRIPOS>SET

