#    Name: 1y8q_ATP_2_INTS_M
#    Modification time : Mon Apr  7 15:36:24 2014

@<TRIPOS>MOLECULE
1y8q_ATP_2_INTS_M
   84     0    15     0     0
SMALL
NO_CHARGES


@<TRIPOS>ATOM
      1 NZ         26.2485   -3.7160    7.3095 N.4       3 LYC4        0.0000 
      2 NZ         24.8640   -3.5310    6.7960 N.4      13 LYL4        0.0000 
      3 NZ         27.6330   -3.9010    7.8230 N.4       8 LYP4        0.0000 
      4 Zn         24.7020   -4.4545    6.4480 Zn        4 ZIC7        0.0000 
      5 Zn         24.8640   -3.5310    6.7960 Zn       14 ZIL7        0.0000 
      6 Zn         24.5400   -5.3780    6.1000 Zn        9 ZIP7        0.0000 
      7 N          26.2485   -3.7160    7.3095 N.am      2 SEC2        0.0000 
      8 N          24.8640   -3.5310    6.7960 N.am     12 SEL2        0.0000 
      9 N          27.6330   -3.9010    7.8230 N.am      7 SEP2        0.0000 
     10 NZ         25.9945   -3.2565    8.4650 N.4       3 LYC4        0.0000 
     11 NZ         24.3560   -2.6120    9.1070 N.4      13 LYL4        0.0000 
     12 NZ         20.7145   -5.5510    9.6870 N.4       3 LYC4        0.0000 
     13 NZ         21.4350   -4.5620    9.0200 N.4      13 LYL4        0.0000 
     14 NZ         19.9940   -6.5400   10.3540 N.4       8 LYP4        0.0000 
     15 N          20.7145   -5.5510    9.6870 N.am      2 SEC2        0.0000 
     16 N          21.4350   -4.5620    9.0200 N.am     12 SEL2        0.0000 
     17 N          19.9940   -6.5400   10.3540 N.am      7 SEP2        0.0000 
     18 N          19.8600   -3.8625    9.2055 N.am      2 SEC2        0.0000 
     19 N          18.2850   -3.1630    9.3910 N.am      7 SEP2        0.0000 
     20 Zn         23.5765   -5.3985    6.5340 Zn        4 ZIC7        0.0000 
     21 Zn         22.6130   -5.4190    6.9680 Zn       14 ZIL7        0.0000 
     22 N          17.3170   -3.9745    5.9260 N.am      2 SEC2        0.0000 
     23 N          18.6360   -3.8230    5.2530 N.am     12 SEL2        0.0000 
     24 N          15.9980   -4.1260    6.5990 N.am      7 SEP2        0.0000 
     25 CA         20.0380   -8.3320    3.1355 C.3       5 GLC5        0.0000 
     26 CA         20.3220   -7.1560    5.0290 C.3      15 GLL5        0.0000 
     27 CA         19.7540   -9.5080    1.2420 C.3      10 GLP5        0.0000 
     28 CA         21.7045   -6.7785    3.6535 C.3       5 GLC5        0.0000 
     29 CA         23.0870   -6.4010    2.2780 C.3      10 GLP5        0.0000 
     30 CA         18.4075   -9.9580    5.4715 C.3       5 GLC5        0.0000 
     31 CA         20.0300   -8.4370    5.8080 C.3      15 GLL5        0.0000 
     32 CA         16.7850  -11.4790    5.1350 C.3      10 GLP5        0.0000 
     33 CA         18.3425   -7.3285    6.7370 C.3       5 GLC5        0.0000 
     34 CA         16.6550   -6.2200    7.6660 C.3      10 GLP5        0.0000 
     35 N          19.8490   -7.5015    9.2740 N.am      2 SEC2        0.0000 
     36 N          19.7040   -8.4630    8.1940 N.am     12 SEL2        0.0000 
     37 O          18.9990   -9.6260    8.3390 O.2       1 ALC1        0.0000 
     38 O          19.7040   -8.4630    8.1940 O.2      11 ALL1        0.0000 
     39 O          18.2940  -10.7890    8.4840 O.2       6 ALP1        0.0000 
     40 O          19.8280  -10.0235    8.9425 O.2       1 ALC1        0.0000 
     41 O          19.9520  -11.5840    9.6910 O.2       6 ALP1        0.0000 
     42 CA         22.2795  -10.0225    9.2775 C.3       5 GLC5        0.0000 
     43 CA         21.6080   -9.6410    7.1650 C.3      15 GLL5        0.0000 
     44 CA         22.9510  -10.4040   11.3900 C.3      10 GLP5        0.0000 
     45 O          20.8770  -10.9665    9.0220 O.2       1 ALC1        0.0000 
     46 O          21.8020  -10.3490    8.3530 O.2      11 ALL1        0.0000 
     47 CA         18.8720  -10.9840    5.6230 C.3       5 GLC5        0.0000 
     48 CA         20.9590  -10.4890    6.1110 C.3      15 GLL5        0.0000 
     49 CA         20.4360  -11.4000    4.3145 C.3       5 GLC5        0.0000 
     50 CA         19.9130  -12.3110    2.5180 C.3      10 GLP5        0.0000 
     51 CA         22.7995  -16.5235    5.6185 C.3       5 GLC5        0.0000 
     52 CA         22.7550  -14.7430    4.4970 C.3      15 GLL5        0.0000 
     53 CA         22.8440  -18.3040    6.7400 C.3      10 GLP5        0.0000 
     54 CA         22.1845  -15.9330    3.0155 C.3       5 GLC5        0.0000 
     55 CA         21.6140  -17.1230    1.5340 C.3      10 GLP5        0.0000 
     56 CA         23.2715  -14.6115    2.3610 C.3       5 GLC5        0.0000 
     57 CA         23.7880  -14.4800    0.2250 C.3      10 GLP5        0.0000 
     58 O          24.1995  -16.7860    4.5160 O.2       1 ALC1        0.0000 
     59 O          23.6710  -15.4140    3.8470 O.2      11 ALL1        0.0000 
     60 O          24.7280  -18.1580    5.1850 O.2       6 ALP1        0.0000 
     61 N          21.7035  -17.1045    4.8655 N.am      2 SEC2        0.0000 
     62 N          21.7940  -15.5270    5.1130 N.am     12 SEL2        0.0000 
     63 N          21.6130  -18.6820    4.6180 N.am      7 SEP2        0.0000 
     64 CA         19.3560  -16.5155    6.4750 C.3       5 GLC5        0.0000 
     65 CA         20.7890  -14.9640    5.8570 C.3      15 GLL5        0.0000 
     66 CA         17.9230  -18.0670    7.0930 C.3      10 GLP5        0.0000 
     67 CA         19.7270  -14.5730    7.3180 C.3       5 GLC5        0.0000 
     68 CA         18.6650  -14.1820    8.7790 C.3      10 GLP5        0.0000 
     69 CA         22.3200  -14.6930    6.9935 C.3       5 GLC5        0.0000 
     70 CA         23.8510  -14.4220    8.1300 C.3      10 GLP5        0.0000 
     71 CA         21.8165  -16.6340    6.2985 C.3       5 GLC5        0.0000 
     72 CA         20.6145  -16.1635    4.1490 C.3       5 GLC5        0.0000 
     73 CA         20.4400  -17.3630    2.4410 C.3      10 GLP5        0.0000 
     74 CA         20.3510  -13.6375    4.1875 C.3       5 GLC5        0.0000 
     75 N          20.8875  -13.9860    7.6640 N.am      2 SEC2        0.0000 
     76 N          20.7270  -13.5820    6.0080 N.am     12 SEL2        0.0000 
     77 N          21.0480  -14.3900    9.3200 N.am      7 SEP2        0.0000 
     78 CA         22.7445  -12.8855    6.9575 C.3       5 GLC5        0.0000 
     79 CA         21.6680  -12.8060    5.3990 C.3      15 GLL5        0.0000 
     80 CA         23.8210  -12.9650    8.5160 C.3      10 GLP5        0.0000 
     81 CA         22.5523  -11.5150    7.5770 C.3       5 GLC5        0.0000 
     82 CA         23.2905  -14.2315    6.3485 C.3       5 GLC5        0.0000 
     83 CA         22.7050  -13.3390    4.6370 C.3      15 GLL5        0.0000 
     84 CA         21.0560  -12.8672    3.7505 C.3       5 GLC5        0.0000 
@<TRIPOS>BOND
@<TRIPOS>SUBSTRUCTURE
     1 ALC1       37 GROUP        1 X    ALC  0     ROOT ALC X 1
     2 SEC2        7 GROUP        1 X    SEC  0     **** SEC X 2
     3 LYC4        1 GROUP        1 X    LYC  0     **** LYC X 4
     4 ZIC7        4 GROUP        1 X    ZIC  0     **** ZIC X 5
     5 GLC5       25 GROUP        1 X    GLC  0     **** GLC X 6
     6 ALP1       39 GROUP        1 Y    ALP  0     ROOT ALP Y 8
     7 SEP2        9 GROUP        1 Y    SEP  0     **** SEP Y 9
     8 LYP4        3 GROUP        1 Y    LYP  0     **** LYP Y 11
     9 ZIP7        6 GROUP        1 Y    ZIP  0     **** ZIP Y 12
    10 GLP5       27 GROUP        1 Y    GLP  0     **** GLP Y 13
    11 ALL1       38 GROUP        1 Z    ALL  0     ROOT ALL Z 15
    12 SEL2        8 GROUP        1 Z    SEL  0     **** SEL Z 16
    13 LYL4        2 GROUP        1 Z    LYL  0     **** LYL Z 18
    14 ZIL7        5 GROUP        1 Z    ZIL  0     **** ZIL Z 19
    15 GLL5       26 GROUP        1 Z    GLL  0     **** GLL Z 20
@<TRIPOS>SET

