#    Name: 1y8q_ATP_2_ligand
#    Modification time : Mon Apr  7 15:36:24 2014

@<TRIPOS>MOLECULE
1y8q_ATP_2_ligand
   43    45     1     0     0
SMALL
NO_CHARGES


@<TRIPOS>ATOM
      1 PG         24.0170   -2.5440    7.6050 P.3       1 ATP801      0.0000 
      2 O1G        24.2380   -1.1430    7.1300 O.co2     1 ATP801      0.0000 
      3 O2G        24.8640   -3.5310    6.7960 O.co2     1 ATP801      0.0000 
      4 O3G        24.3560   -2.6120    9.1070 O.co2     1 ATP801      0.0000 
      5 PB         21.7780   -4.3300    7.6090 P.3       1 ATP801      0.0000 
      6 O1B        21.4350   -4.5620    9.0200 O.co2     1 ATP801      0.0000 
      7 O2B        22.6130   -5.4190    6.9680 O.co2     1 ATP801      0.0000 
      8 O3B        22.4280   -2.8830    7.5070 O.3       1 ATP801      0.0000 
      9 PA         19.8840   -4.5720    5.4360 P.3       1 ATP801      0.0000 
     10 O1A        18.6360   -3.8230    5.2530 O.co2     1 ATP801      0.0000 
     11 O2A        20.9410   -4.2740    4.4000 O.co2     1 ATP801      0.0000 
     12 O3A        20.3790   -4.1340    6.8690 O.3       1 ATP801      0.0000 
     13 O5'        19.5360   -6.1380    5.5960 O.3       1 ATP801      0.0000 
     14 C5'        20.3220   -7.1560    5.0290 C.3       1 ATP801      0.0000 
     15 C4'        20.0300   -8.4370    5.8080 C.3       1 ATP801      0.0000 
     16 O4'        20.5270   -9.5680    5.1180 O.3       1 ATP801      0.0000 
     17 C3'        20.7120   -8.4190    7.1910 C.3       1 ATP801      0.0000 
     18 O3'        19.7040   -8.4630    8.1940 O.3       1 ATP801      0.0000 
     19 C2'        21.6080   -9.6410    7.1650 C.3       1 ATP801      0.0000 
     20 O2'        21.8020  -10.3490    8.3530 O.3       1 ATP801      0.0000 
     21 C1'        20.9590  -10.4890    6.1110 C.3       1 ATP801      0.0000 
     22 N9         21.8210  -11.4670    5.4030 N.pl3     1 ATP801      0.0000 
     23 C8         22.9160  -11.1360    4.6540 C.2       1 ATP801      0.0000 
     24 N7         23.4200  -12.2690    4.2100 N.2       1 ATP801      0.0000 
     25 C5         22.7050  -13.3390    4.6370 C.ar      1 ATP801      0.0000 
     26 C6         22.7550  -14.7430    4.4970 C.ar      1 ATP801      0.0000 
     27 N6         23.6710  -15.4140    3.8470 N.pl3     1 ATP801      0.0000 
     28 N1         21.7940  -15.5270    5.1130 N.ar      1 ATP801      0.0000 
     29 C2         20.7890  -14.9640    5.8570 C.ar      1 ATP801      0.0000 
     30 N3         20.7270  -13.5820    6.0080 N.ar      1 ATP801      0.0000 
     31 C4         21.6680  -12.8060    5.3990 C.ar      1 ATP801      0.0000 
     32 H          21.3889   -6.9558    5.1112 H         1 ATP801      0.0000 
     33 H          20.0766   -7.3417    3.9848 H         1 ATP801      0.0000 
     34 H          18.9681   -8.5122    5.9718 H         1 ATP801      0.0000 
     35 H          21.3162   -7.5446    7.2269 H         1 ATP801      0.0000 
     36 H          22.5643   -9.3073    6.7115 H         1 ATP801      0.0000 
     37 H          20.0980  -10.9833    6.5277 H         1 ATP801      0.0000 
     38 H          23.2299  -10.2458    4.5007 H         1 ATP801      0.0000 
     39 H          23.8352  -16.3499    4.1588 H         1 ATP801      0.0000 
     40 H          24.1229  -14.9294    3.0981 H         1 ATP801      0.0000 
     41 H          20.0756  -15.5563    6.3078 H         1 ATP801      0.0000 
     42 H          19.3302   -9.3892    8.1447 H         1 ATP801      0.0000 
     43 H          20.8981  -10.7024    8.5941 H         1 ATP801      0.0000 
@<TRIPOS>BOND
     1    2    1 ar   
     2    3    1 ar   
     3    4    1 ar   
     4    8    1 1    
     5    6    5 ar   
     6    7    5 ar   
     7    8    5 1    
     8   12    5 1    
     9   10    9 ar   
    10   11    9 ar   
    11   12    9 1    
    12   13    9 1    
    13   14   13 1    
    14   15   14 1    
    15   32   14 1    
    16   33   14 1    
    17   16   15 1    
    18   17   15 1    
    19   34   15 1    
    20   21   16 1    
    21   18   17 1    
    22   19   17 1    
    23   35   17 1    
    24   42   18 1    
    25   20   19 1    
    26   21   19 1    
    27   36   19 1    
    28   43   20 1    
    29   22   21 1    
    30   37   21 1    
    31   23   22 1    
    32   31   22 1    
    33   24   23 2    
    34   38   23 1    
    35   25   24 1    
    36   26   25 ar   
    37   31   25 ar   
    38   27   26 1    
    39   28   26 ar   
    40   39   27 1    
    41   40   27 1    
    42   29   28 ar   
    43   30   29 ar   
    44   41   29 1    
    45   31   30 ar   
@<TRIPOS>SUBSTRUCTURE
     1 ATP801      1 GROUP   
@<TRIPOS>SET

