#    Name: 1c9w_NAP_1_INTS_M
#    Modification time : Mon Mar 24 20:27:39 2014

@<TRIPOS>MOLECULE
1c9w_NAP_1_INTS_M
  105     0    12     0     0
SMALL
NO_CHARGES


@<TRIPOS>ATOM
      1 N         -16.2375   43.4480   19.5125 N.am      2 SEC2        0.0000 
      2 N         -16.3080   44.8190   19.6350 N.am     10 SEL2        0.0000 
      3 N         -16.1670   42.0770   19.3900 N.am      6 SEP2        0.0000 
      4 N         -16.0370   44.9875   18.0665 N.am      2 SEC2        0.0000 
      5 N         -15.7660   45.1560   16.4980 N.am      6 SEP2        0.0000 
      6 N         -17.4085   46.3990   23.1400 N.am      2 SEC2        0.0000 
      7 N         -16.9410   46.0130   21.7770 N.am     10 SEL2        0.0000 
      8 N         -17.8760   46.7850   24.5030 N.am      6 SEP2        0.0000 
      9 CA        -18.8645   49.2810   21.3795 C.3       4 GLC5        0.0000 
     10 CA        -18.7890   47.7600   19.9890 C.3      12 GLL5        0.0000 
     11 CA        -18.9400   50.8020   22.7700 C.3       8 GLP5        0.0000 
     12 CA        -19.3530   46.7750   17.4430 C.3       4 GLC5        0.0000 
     13 CA        -19.9610   47.9650   19.0530 C.3      12 GLL5        0.0000 
     14 CA        -18.7450   45.5850   15.8330 C.3       8 GLP5        0.0000 
     15 CA        -19.8695   49.9730   21.0785 C.3       4 GLC5        0.0000 
     16 CA        -20.7990   49.1440   19.3870 C.3      12 GLL5        0.0000 
     17 N         -22.3605   44.3575   23.6325 N.am      2 SEC2        0.0000 
     18 N         -22.8110   44.8300   22.3100 N.am     10 SEL2        0.0000 
     19 N         -21.9100   43.8850   24.9550 N.am      6 SEP2        0.0000 
     20 CA        -23.5470   41.4225   21.1500 C.3       4 GLC5        0.0000 
     21 CA        -24.3990   43.1840   21.1830 C.3      12 GLL5        0.0000 
     22 CA        -22.6950   39.6610   21.1170 C.3       8 GLP5        0.0000 
     23 CA        -25.6710   44.3125   21.9005 C.3       4 GLC5        0.0000 
     24 CA        -26.9430   45.4410   22.6180 C.3       8 GLP5        0.0000 
     25 O         -25.4370   41.0985   22.3070 O.2       1 ALC1        0.0000 
     26 O         -24.6000   42.3670   22.2070 O.2       9 ALL1        0.0000 
     27 O         -26.2740   39.8300   22.4070 O.2       5 ALP1        0.0000 
     28 O         -23.7100   42.1270   23.3255 O.2       1 ALC1        0.0000 
     29 O         -22.8200   41.8870   24.4440 O.2       5 ALP1        0.0000 
     30 CA        -23.6715   43.1315   17.6110 C.3       4 GLC5        0.0000 
     31 CA        -24.8180   43.7660   18.9290 C.3      12 GLL5        0.0000 
     32 CA        -22.5250   42.4970   16.2930 C.3       8 GLP5        0.0000 
     33 CA        -25.6555   45.0830   20.2380 C.3       4 GLC5        0.0000 
     34 CA        -26.4930   46.4000   21.5470 C.3       8 GLP5        0.0000 
     35 N         -16.9430   50.4050   19.1405 N.am      2 SEC2        0.0000 
     36 N         -15.7570   49.6700   19.8880 N.am     10 SEL2        0.0000 
     37 N         -18.1290   51.1400   18.3930 N.am      6 SEP2        0.0000 
     38 N         -12.8705   47.6900   19.6125 N.am      2 SEC2        0.0000 
     39 N         -13.5840   48.4140   20.2640 N.am     10 SEL2        0.0000 
     40 N         -12.1570   46.9660   18.9610 N.am      6 SEP2        0.0000 
     41 CA        -13.7270   46.3610   21.5075 C.3       4 GLC5        0.0000 
     42 CA        -14.2830   47.6920   22.9740 C.3      12 GLL5        0.0000 
     43 CA        -13.1710   45.0300   20.0410 C.3       8 GLP5        0.0000 
     44 CA        -14.3070   45.5235   22.5875 C.3       4 GLC5        0.0000 
     45 CA        -14.3310   43.3550   22.2010 C.3       8 GLP5        0.0000 
     46 CA        -12.8555   47.0930   25.4195 C.3       4 GLC5        0.0000 
     47 CA        -13.5930   48.4960   24.1130 C.3      12 GLL5        0.0000 
     48 CA        -12.1180   45.6900   26.7260 C.3       8 GLP5        0.0000 
     49 N         -14.9200   51.8630   24.7220 N.am      2 SEC2        0.0000 
     50 N         -14.9690   50.5470   24.5950 N.am     10 SEL2        0.0000 
     51 N         -14.8710   53.1790   24.8490 N.am      6 SEP2        0.0000 
     52 CA        -11.6385   52.2985   24.9855 C.3       4 GLC5        0.0000 
     53 CA        -12.5450   50.5650   24.7200 C.3      12 GLL5        0.0000 
     54 CA        -10.7320   54.0320   25.2510 C.3       8 GLP5        0.0000 
     55 N         -14.1015   51.1030   26.6010 N.am      2 SEC2        0.0000 
     56 N         -12.6670   50.6190   26.1270 N.am     10 SEL2        0.0000 
     57 N         -15.5360   51.5870   27.0750 N.am      6 SEP2        0.0000 
     58 O         -11.7030   50.4395   27.1620 O.2       1 ALC1        0.0000 
     59 O         -12.6670   50.6190   26.1270 O.2       9 ALL1        0.0000 
     60 O         -10.7390   50.2600   28.1970 O.2       5 ALP1        0.0000 
     61 CA        -10.8890   47.9080   23.7740 C.3       4 GLC5        0.0000 
     62 CA        -11.4710   49.5220   24.2710 C.3      12 GLL5        0.0000 
     63 CA        -10.3070   46.2940   23.2770 C.3       8 GLP5        0.0000 
     64 CA        -11.2990   48.1710   25.6300 C.3       4 GLC5        0.0000 
     65 CA        -11.1270   46.8200   26.9890 C.3       8 GLP5        0.0000 
     66 CA         -9.8155   48.2565   23.2955 C.3       4 GLC5        0.0000 
     67 CA         -9.3240   50.2190   23.3140 C.3      12 GLL5        0.0000 
     68 N          -5.0105   50.9165   21.4160 N.am      2 SEC2        0.0000 
     69 N          -6.3560   51.3210   21.4340 N.am     10 SEL2        0.0000 
     70 N          -3.6650   50.5120   21.3980 N.am      6 SEP2        0.0000 
     71 CA        -10.7760   48.2530   22.5250 C.3       4 GLC5        0.0000 
     72 CA        -11.2450   50.2120   21.7730 C.3      12 GLL5        0.0000 
     73 N         -24.3950   48.8015   23.0645 N.am      2 SEC2        0.0000 
     74 N         -24.6450   49.1800   21.8280 N.am     10 SEL2        0.0000 
     75 N         -24.1450   48.4230   24.3010 N.am      6 SEP2        0.0000 
     76 N         -25.9245   49.6620   22.1695 N.am      2 SEC2        0.0000 
     77 N         -27.2040   50.1440   22.5110 N.am      6 SEP2        0.0000 
     78 N         -25.3115   48.5175   20.5225 N.am      2 SEC2        0.0000 
     79 N         -25.9780   47.8550   19.2170 N.am      6 SEP2        0.0000 
     80 NZ        -21.6880   51.6220   21.7755 N.4       3 LYC4        0.0000 
     81 NZ        -22.8120   50.8800   21.8400 N.4      11 LYL4        0.0000 
     82 NZ        -20.5640   52.3640   21.7110 N.4       7 LYP4        0.0000 
     83 N         -21.6880   51.6220   21.7755 N.am      2 SEC2        0.0000 
     84 N         -22.8120   50.8800   21.8400 N.am     10 SEL2        0.0000 
     85 N         -20.5640   52.3640   21.7110 N.am      6 SEP2        0.0000 
     86 N         -23.1605   51.0385   23.3850 N.am      2 SEC2        0.0000 
     87 N         -23.5090   51.1970   24.9300 N.am      6 SEP2        0.0000 
     88 CA        -19.8980   49.7418   17.7970 C.3       4 GLC5        0.0000 
     89 CA        -19.4160   50.9290   16.3740 C.3       8 GLP5        0.0000 
     90 CA        -24.9935   45.5475   21.1322 C.3       4 GLC5        0.0000 
     91 CA        -23.5580   44.3150   21.2800 C.3      12 GLL5        0.0000 
     92 CA        -22.0131   43.7771   20.5611 C.3       4 GLC5        0.0000 
     93 CA        -20.3220   43.1420   20.4290 C.3       8 GLP5        0.0000 
     94 CA        -12.1225   47.1940   23.4103 C.3       4 GLC5        0.0000 
     95 CA        -15.6653   49.1065   23.9061 C.3       4 GLC5        0.0000 
     96 CA        -13.7650   50.0260   24.0250 C.3      12 GLL5        0.0000 
     97 CA        -17.4790   49.1530   24.0280 C.3       8 GLP5        0.0000 
     98 CA        -14.3040   49.5435   25.8852 C.3       4 GLC5        0.0000 
     99 CA        -15.4960   49.1740   27.3760 C.3       8 GLP5        0.0000 
    100 CA        -12.8680   51.5509   23.5704 C.3       4 GLC5        0.0000 
    101 CA        -13.4230   53.1930   22.8190 C.3       8 GLP5        0.0000 
    102 CA         -8.9080   50.4578   18.9323 C.3       4 GLC5        0.0000 
    103 CA        -10.4620   50.6440   20.7220 C.3      12 GLL5        0.0000 
    104 CA         -8.0150   50.1620   17.0320 C.3       8 GLP5        0.0000 
    105 CA        -12.1382   51.8105   22.0332 C.3       4 GLC5        0.0000 
@<TRIPOS>BOND
@<TRIPOS>SUBSTRUCTURE
     1 ALC1       25 GROUP        1 X    ALC  0     ROOT ALC X 1
     2 SEC2        1 GROUP        1 X    SEC  0     **** SEC X 2
     3 LYC4       80 GROUP        1 X    LYC  0     **** LYC X 4
     4 GLC5        9 GROUP        1 X    GLC  0     **** GLC X 6
     5 ALP1       27 GROUP        1 Y    ALP  0     ROOT ALP Y 8
     6 SEP2        3 GROUP        1 Y    SEP  0     **** SEP Y 9
     7 LYP4       82 GROUP        1 Y    LYP  0     **** LYP Y 11
     8 GLP5       11 GROUP        1 Y    GLP  0     **** GLP Y 13
     9 ALL1       26 GROUP        1 Z    ALL  0     ROOT ALL Z 15
    10 SEL2        2 GROUP        1 Z    SEL  0     **** SEL Z 16
    11 LYL4       81 GROUP        1 Z    LYL  0     **** LYL Z 18
    12 GLL5       10 GROUP        1 Z    GLL  0     **** GLL Z 20
@<TRIPOS>SET

