#    Name: 1c9w_NAP_1_ligand
#    Modification time : Mon Mar 24 20:27:39 2014

@<TRIPOS>MOLECULE
1c9w_NAP_1_ligand
   73    77     1     0     0
SMALL
NO_CHARGES


@<TRIPOS>ATOM
      1 PA        -16.7420   46.0580   20.3430 P.3       1 NAP350      0.0000 
      2 O1A       -16.3080   44.8190   19.6350 O.co2     1 NAP350      0.0000 
      3 O2A       -16.9410   46.0130   21.7770 O.co2     1 NAP350      0.0000 
      4 O5B       -18.0780   46.5820   19.5650 O.3       1 NAP350      0.0000 
      5 C5B       -18.7890   47.7600   19.9890 C.3       1 NAP350      0.0000 
      6 C4B       -19.9610   47.9650   19.0530 C.3       1 NAP350      0.0000 
      7 O4B       -20.7880   46.8110   19.1520 O.3       1 NAP350      0.0000 
      8 C3B       -20.7990   49.1440   19.3870 C.3       1 NAP350      0.0000 
      9 O3B       -21.3090   49.7840   18.2000 O.3       1 NAP350      0.0000 
     10 C2B       -21.9550   48.5650   20.1560 C.3       1 NAP350      0.0000 
     11 O2B       -23.1870   49.2580   19.9440 O.3       1 NAP350      0.0000 
     12 C1B       -22.1120   47.1870   19.5490 C.3       1 NAP350      0.0000 
     13 N9A       -22.5660   46.1080   20.4780 N.pl3     1 NAP350      0.0000 
     14 C8A       -22.2340   45.8900   21.8090 C.2       1 NAP350      0.0000 
     15 N7A       -22.8110   44.8300   22.3100 N.2       1 NAP350      0.0000 
     16 C5A       -23.5580   44.3150   21.2800 C.ar      1 NAP350      0.0000 
     17 C6A       -24.3990   43.1840   21.1830 C.ar      1 NAP350      0.0000 
     18 N6A       -24.6000   42.3670   22.2070 N.pl3     1 NAP350      0.0000 
     19 N1A       -25.0160   42.9410   19.9830 N.ar      1 NAP350      0.0000 
     20 C2A       -24.8180   43.7660   18.9290 C.ar      1 NAP350      0.0000 
     21 N3A       -24.0380   44.8530   18.9380 N.ar      1 NAP350      0.0000 
     22 C4A       -23.4300   45.0750   20.1550 C.ar      1 NAP350      0.0000 
     23 O3        -15.7080   47.2260   19.8950 O.3       1 NAP350      0.0000 
     24 PN        -15.0590   48.5490   20.5310 P.3       1 NAP350      0.0000 
     25 O1N       -15.7570   49.6700   19.8880 O.co2     1 NAP350      0.0000 
     26 O2N       -13.5840   48.4140   20.2640 O.co2     1 NAP350      0.0000 
     27 O5D       -15.1840   48.4950   22.1390 O.3       1 NAP350      0.0000 
     28 C5D       -14.2830   47.6920   22.9740 C.3       1 NAP350      0.0000 
     29 C4D       -13.5930   48.4960   24.1130 C.3       1 NAP350      0.0000 
     30 O4D       -12.1930   48.3320   23.9360 O.3       1 NAP350      0.0000 
     31 C3D       -13.7650   50.0260   24.0250 C.3       1 NAP350      0.0000 
     32 O3D       -14.9690   50.5470   24.5950 O.3       1 NAP350      0.0000 
     33 C2D       -12.5450   50.5650   24.7200 C.3       1 NAP350      0.0000 
     34 O2D       -12.6670   50.6190   26.1270 O.3       1 NAP350      0.0000 
     35 C1D       -11.4710   49.5220   24.2710 C.3       1 NAP350      0.0000 
     36 N1N       -10.6970   49.9950   23.0720 N.pl3     1 NAP350      0.0000 
     37 C2N        -9.3240   50.2190   23.3140 C.ar      1 NAP350      0.0000 
     38 C3N        -8.5180   50.6710   22.2010 C.ar      1 NAP350      0.0000 
     39 C7N        -7.0780   50.9290   22.3680 C.2       1 NAP350      0.0000 
     40 O7N        -6.3560   51.3210   21.4340 O.2       1 NAP350      0.0000 
     41 N7N        -6.4860   50.7470   23.5680 N.am      1 NAP350      0.0000 
     42 C4N        -9.1400   50.8630   20.9430 C.ar      1 NAP350      0.0000 
     43 C5N       -10.4620   50.6440   20.7220 C.ar      1 NAP350      0.0000 
     44 C6N       -11.2450   50.2120   21.7730 C.ar      1 NAP350      0.0000 
     45 P2B       -23.8490   50.1580   21.0590 P.3       1 NAP350      0.0000 
     46 O1X       -24.6450   49.1800   21.8280 O.co2     1 NAP350      0.0000 
     47 O2X       -22.8120   50.8800   21.8400 O.co2     1 NAP350      0.0000 
     48 O3X       -24.6720   51.0170   20.1950 O.co2     1 NAP350      0.0000 
     49 H         -18.1550   48.6449   19.9464 H         1 NAP350      0.0000 
     50 H         -19.1726   47.6505   21.0027 H         1 NAP350      0.0000 
     51 H         -19.5852   48.0605   18.0450 H         1 NAP350      0.0000 
     52 H         -20.2678   49.8024   20.0160 H         1 NAP350      0.0000 
     53 H         -21.6962   48.4496   21.1674 H         1 NAP350      0.0000 
     54 H         -22.7416   47.2372   18.6928 H         1 NAP350      0.0000 
     55 H         -21.6162   46.5033   22.2929 H         1 NAP350      0.0000 
     56 H         -25.4824   41.8968   22.2282 H         1 NAP350      0.0000 
     57 H         -23.8512   42.2947   22.8658 H         1 NAP350      0.0000 
     58 H         -25.3319   43.5232   18.0124 H         1 NAP350      0.0000 
     59 H         -13.4822   47.2365   22.3613 H         1 NAP350      0.0000 
     60 H         -14.8293   46.8542   23.4472 H         1 NAP350      0.0000 
     61 H         -13.9067   48.1538   25.0497 H         1 NAP350      0.0000 
     62 H         -13.6619   50.2877   22.9686 H         1 NAP350      0.0000 
     63 H         -12.2740   51.4861   24.2569 H         1 NAP350      0.0000 
     64 H         -10.8168   49.3563   25.0968 H         1 NAP350      0.0000 
     65 H          -8.9113   50.0762   24.2097 H         1 NAP350      0.0000 
     66 H          -5.4989   50.9040   23.6000 H         1 NAP350      0.0000 
     67 H          -7.0873   50.4714   24.3180 H         1 NAP350      0.0000 
     68 H          -8.5252   51.1929   20.1537 H         1 NAP350      0.0000 
     69 H         -10.8795   50.7936   19.7968 H         1 NAP350      0.0000 
     70 H         -12.2559   50.0357   21.6358 H         1 NAP350      0.0000 
     71 H         -22.3033   49.7711   18.3060 H         1 NAP350      0.0000 
     72 H         -15.4734   50.9353   23.8238 H         1 NAP350      0.0000 
     73 H         -11.7410   50.4680   26.4729 H         1 NAP350      0.0000 
@<TRIPOS>BOND
     1    2    1 ar   
     2    3    1 ar   
     3    4    1 1    
     4   23    1 1    
     5    5    4 1    
     6    6    5 1    
     7   49    5 1    
     8   50    5 1    
     9    7    6 1    
    10    8    6 1    
    11   51    6 1    
    12   12    7 1    
    13    9    8 1    
    14   10    8 1    
    15   52    8 1    
    16   71    9 1    
    17   11   10 1    
    18   12   10 1    
    19   53   10 1    
    20   45   11 1    
    21   13   12 1    
    22   54   12 1    
    23   14   13 1    
    24   22   13 1    
    25   15   14 2    
    26   55   14 1    
    27   16   15 1    
    28   17   16 ar   
    29   22   16 ar   
    30   18   17 1    
    31   19   17 ar   
    32   56   18 1    
    33   57   18 1    
    34   20   19 ar   
    35   21   20 ar   
    36   58   20 1    
    37   22   21 ar   
    38   24   23 1    
    39   25   24 ar   
    40   26   24 ar   
    41   27   24 1    
    42   28   27 1    
    43   29   28 1    
    44   59   28 1    
    45   60   28 1    
    46   30   29 1    
    47   31   29 1    
    48   61   29 1    
    49   35   30 1    
    50   32   31 1    
    51   33   31 1    
    52   62   31 1    
    53   72   32 1    
    54   34   33 1    
    55   35   33 1    
    56   63   33 1    
    57   73   34 1    
    58   36   35 1    
    59   64   35 1    
    60   37   36 ar   
    61   44   36 ar   
    62   38   37 ar   
    63   65   37 1    
    64   39   38 1    
    65   42   38 ar   
    66   40   39 2    
    67   41   39 am   
    68   66   41 1    
    69   67   41 1    
    70   43   42 ar   
    71   68   42 1    
    72   44   43 ar   
    73   69   43 1    
    74   70   44 1    
    75   46   45 ar   
    76   47   45 ar   
    77   48   45 ar   
@<TRIPOS>SUBSTRUCTURE
     1 NAP350      1 GROUP   
@<TRIPOS>SET

