#    Name: 3t7c_NAD_3_INTS_M
#    Modification time : Mon Mar 24 19:15:38 2014

@<TRIPOS>MOLECULE
3t7c_NAD_3_INTS_M
  127     0    12     0     0
SMALL
NO_CHARGES


@<TRIPOS>ATOM
      1 NZ         -1.1590   14.8005    3.2215 N.4       3 LYC4        0.0000 
      2 NZ         -1.0630   13.8180    2.1720 N.4      11 LYL4        0.0000 
      3 NZ         -2.4480   16.2860    4.5560 N.4       7 LYP4        0.0000 
      4 N          -1.1590   14.8005    3.2215 N.am      2 SEC2        0.0000 
      5 N          -1.0630   13.8180    2.1720 N.am     10 SEL2        0.0000 
      6 N          -1.2550   15.7830    4.2710 N.am      6 SEP2        0.0000 
      7 NZ         -3.2000   15.6690    2.3810 N.4       3 LYC4        0.0000 
      8 NZ         -2.9530   15.2820    1.0470 N.4      11 LYL4        0.0000 
      9 N          -3.2000   15.6690    2.3810 N.am      2 SEC2        0.0000 
     10 N          -2.9530   15.2820    1.0470 N.am     10 SEL2        0.0000 
     11 N          -3.4470   16.0560    3.7150 N.am      6 SEP2        0.0000 
     12 CA         -0.7255   11.6535    1.1410 C.3       4 GLC5        0.0000 
     13 CA         -2.8570   11.5270    1.8140 C.3      12 GLL5        0.0000 
     14 CA          1.4060   11.7800    0.4680 C.3       8 GLP5        0.0000 
     15 CA         -5.4050    9.8215    2.5710 C.3       4 GLC5        0.0000 
     16 CA         -3.9820   11.1110    2.7530 C.3      12 GLL5        0.0000 
     17 CA         -6.8280    8.5320    2.3890 C.3       8 GLP5        0.0000 
     18 CA         -4.8635   13.8310    3.5365 C.3       4 GLC5        0.0000 
     19 CA         -3.9930   11.9490    4.0500 C.3      12 GLL5        0.0000 
     20 CA         -5.7340   15.7130    3.0230 C.3       8 GLP5        0.0000 
     21 CA         -5.0250   12.9365    5.6255 C.3       4 GLC5        0.0000 
     22 CA         -6.0570   13.9240    7.2010 C.3       8 GLP5        0.0000 
     23 N          -5.5605   13.2990    5.1015 N.am      2 SEC2        0.0000 
     24 N          -5.3440   12.3250    4.3470 N.am     10 SEL2        0.0000 
     25 N          -5.7770   14.2730    5.8560 N.am      6 SEP2        0.0000 
     26 O          -6.2515   11.4390    4.5435 O.2       1 ALC1        0.0000 
     27 O          -5.3440   12.3250    4.3470 O.2       9 ALL1        0.0000 
     28 O          -7.1590   10.5530    4.7400 O.2       5 ALP1        0.0000 
     29 O          -5.8600   11.3325    5.5740 O.2       1 ALC1        0.0000 
     30 O          -6.3760   10.3400    6.8010 O.2       5 ALP1        0.0000 
     31 CA         -2.0685   10.6640    6.6535 C.3       4 GLC5        0.0000 
     32 CA         -3.4180   10.9620    5.0640 C.3      12 GLL5        0.0000 
     33 CA         -0.7190   10.3660    8.2430 C.3       8 GLP5        0.0000 
     34 O          -5.1320   10.7520    6.6085 O.2       1 ALC1        0.0000 
     35 O          -3.8880   11.1640    6.4160 O.2       9 ALL1        0.0000 
     36 CA         -5.3245    9.0680    3.4220 C.3       4 GLC5        0.0000 
     37 CA         -3.8210    9.6040    4.4550 C.3      12 GLL5        0.0000 
     38 CA         -3.8950    7.7450    3.3725 C.3       4 GLC5        0.0000 
     39 CA         -3.9690    5.8860    2.2900 C.3       8 GLP5        0.0000 
     40 CA         -3.4950    6.1855    8.0330 C.3       4 GLC5        0.0000 
     41 CA         -2.4790    5.3470    6.5880 C.3      12 GLL5        0.0000 
     42 CA         -4.5110    7.0240    9.4780 C.3       8 GLP5        0.0000 
     43 CA         -3.7005    4.1065    7.9065 C.3       4 GLC5        0.0000 
     44 CA         -4.9220    2.8660    9.2250 C.3       8 GLP5        0.0000 
     45 CA         -2.5665    3.7270    5.5530 C.3       4 GLC5        0.0000 
     46 CA         -2.6540    2.1070    4.5180 C.3       8 GLP5        0.0000 
     47 O          -1.7075    3.5325    7.9350 O.2       1 ALC1        0.0000 
     48 O          -1.3970    4.6600    7.0540 O.2       9 ALL1        0.0000 
     49 O          -2.0180    2.4050    8.8160 O.2       5 ALP1        0.0000 
     50 N          -4.1255    3.4275    6.8165 N.am      2 SEC2        0.0000 
     51 N          -3.7590    4.8660    6.6660 N.am     10 SEL2        0.0000 
     52 N          -4.4920    1.9890    6.9670 N.am      6 SEP2        0.0000 
     53 CA         -6.5970    4.8400    5.6585 C.3       4 GLC5        0.0000 
     54 CA         -4.8130    5.5630    6.2160 C.3      12 GLL5        0.0000 
     55 CA         -8.3810    4.1170    5.1010 C.3       8 GLP5        0.0000 
     56 CA         -6.5495    6.7405    6.3900 C.3       4 GLC5        0.0000 
     57 CA         -8.2860    7.9180    6.5640 C.3       8 GLP5        0.0000 
     58 CA         -4.6620    6.2935    7.8470 C.3       4 GLC5        0.0000 
     59 CA         -4.8675    4.2145    7.7205 C.3       4 GLC5        0.0000 
     60 CA         -4.9455    3.9715    5.0625 C.3       4 GLC5        0.0000 
     61 CA         -5.0780    2.3800    3.9090 C.3       8 GLP5        0.0000 
     62 CA         -4.3910    5.7245    4.2530 C.3       4 GLC5        0.0000 
     63 N          -5.5895    7.2500    6.9270 N.am      2 SEC2        0.0000 
     64 N          -4.6720    6.7810    5.6400 N.am     10 SEL2        0.0000 
     65 N          -6.5070    7.7190    8.2140 N.am      6 SEP2        0.0000 
     66 N          -1.6585   13.6210   -3.9650 N.am      2 SEC2        0.0000 
     67 N          -1.2570   14.1920   -2.6400 N.am     10 SEL2        0.0000 
     68 N          -2.0600   13.0500   -5.2900 N.am      6 SEP2        0.0000 
     69 N          -1.1310   15.5095   -2.3635 N.am      2 SEC2        0.0000 
     70 N          -1.0050   16.8270   -2.0870 N.am      6 SEP2        0.0000 
     71 N          -4.8065   13.9275   -2.2685 N.am      2 SEC2        0.0000 
     72 N          -3.5900   13.4960   -1.7500 N.am     10 SEL2        0.0000 
     73 N          -6.0230   14.3590   -2.7870 N.am      6 SEP2        0.0000 
     74 CA         -3.9520   11.8195   -3.5205 C.3       4 GLC5        0.0000 
     75 CA         -2.4590   10.8990   -2.5380 C.3      12 GLL5        0.0000 
     76 CA         -5.4450   12.7400   -4.5030 C.3       8 GLP5        0.0000 
     77 CA         -1.7720    9.0040   -5.0575 C.3       4 GLC5        0.0000 
     78 CA         -1.6540    9.9050   -3.3790 C.3      12 GLL5        0.0000 
     79 CA         -1.8900    8.1030   -6.7360 C.3       8 GLP5        0.0000 
     80 CA          0.4010   10.4830   -1.0370 C.3       4 GLC5        0.0000 
     81 CA         -0.6040    9.1860   -2.5420 C.3      12 GLL5        0.0000 
     82 N           0.5075    6.9745   -3.3870 N.am      2 SEC2        0.0000 
     83 N          -0.5760    7.8200   -2.9800 N.am     10 SEL2        0.0000 
     84 N           1.5910    6.1290   -3.7940 N.am      6 SEP2        0.0000 
     85 CA          1.8885    8.0780   -3.4645 C.3       4 GLC5        0.0000 
     86 CA          0.7040    9.8590   -2.9220 C.3      12 GLL5        0.0000 
     87 CA          3.0730    6.2970   -4.0070 C.3       8 GLP5        0.0000 
     88 CA          1.4665   11.2050   -1.9415 C.3       4 GLC5        0.0000 
     89 CA          2.2290   12.5510   -0.9610 C.3       8 GLP5        0.0000 
     90 N           1.7175    7.5760   -3.2125 N.am      2 SEC2        0.0000 
     91 N           1.8440    9.0230   -2.6310 N.am     10 SEL2        0.0000 
     92 O           2.9695    9.3695   -3.1920 O.2       1 ALC1        0.0000 
     93 O           1.8440    9.0230   -2.6310 O.2       9 ALL1        0.0000 
     94 O           4.0950    9.7160   -3.7530 O.2       5 ALP1        0.0000 
     95 CA         -0.7210    9.0945   -5.5740 C.3       4 GLC5        0.0000 
     96 CA          0.4480   10.0860   -4.4120 C.3      12 GLL5        0.0000 
     97 N           1.9135   16.2880   -6.4260 N.am      2 SEC2        0.0000 
     98 N           2.5790   15.6490   -5.3790 N.am     10 SEL2        0.0000 
     99 N           1.2480   16.9270   -7.4730 N.am      6 SEP2        0.0000 
    100 O           0.6140   16.6395   -4.5335 O.2       1 ALC1        0.0000 
    101 O           0.9970   15.1220   -3.8920 O.2       9 ALL1        0.0000 
    102 O           0.2310   18.1570   -5.1750 O.2       5 ALP1        0.0000 
    103 CA          3.0495   14.7290   -7.5020 C.3       4 GLC5        0.0000 
    104 CA          2.7880   13.0070   -6.3980 C.3      12 GLL5        0.0000 
    105 CA          3.3110   16.4510   -8.6060 C.3       8 GLP5        0.0000 
    106 CA          1.0395   10.1935   -8.0245 C.3       4 GLC5        0.0000 
    107 CA          2.0170   10.6970   -6.1700 C.3      12 GLL5        0.0000 
    108 CA          0.0620    9.6900   -9.8790 C.3       8 GLP5        0.0000 
    109 CA         -3.2553    7.6222    7.4080 C.3       4 GLC5        0.0000 
    110 CA         -3.4470    7.3790    5.5140 C.3      12 GLL5        0.0000 
    111 CA         -3.6550    8.2250    9.0770 C.3       8 GLP5        0.0000 
    112 CA         -3.4123    6.4527    4.0145 C.3       4 GLC5        0.0000 
    113 CA         -0.7538    5.2283    5.2680 C.3       4 GLC5        0.0000 
    114 CA         -2.2640    6.6600    5.9640 C.3      12 GLL5        0.0000 
    115 CA          0.8640    4.4530    4.2600 C.3       8 GLP5        0.0000 
    116 CA          0.4490    8.3508   -1.4090 C.3       4 GLC5        0.0000 
    117 CA          0.8480    7.1790   -0.0860 C.3       8 GLP5        0.0000 
    118 CA          1.9078   12.7100   -2.9843 C.3       4 GLC5        0.0000 
    119 CA          1.2160   12.3730   -4.6900 C.3      12 GLL5        0.0000 
    120 CA          0.8333   14.0585   -6.9578 C.3       4 GLC5        0.0000 
    121 CA          1.9570   13.3650   -5.3250 C.3      12 GLL5        0.0000 
    122 CA         -0.7060   14.9310   -8.0540 C.3       8 GLP5        0.0000 
    123 CA          1.4797   12.1900   -8.2110 C.3       4 GLC5        0.0000 
    124 CA          0.1430   12.0500   -9.8180 C.3       8 GLP5        0.0000 
    125 CA          3.4595    9.7355   -7.0940 C.3       4 GLC5        0.0000 
    126 CA          2.8450   11.6530   -6.8100 C.3      12 GLL5        0.0000 
    127 CA          4.4880    8.2960   -7.6980 C.3       8 GLP5        0.0000 
@<TRIPOS>BOND
@<TRIPOS>SUBSTRUCTURE
     1 ALC1       26 GROUP        1 X    ALC  0     ROOT ALC X 1
     2 SEC2        4 GROUP        1 X    SEC  0     **** SEC X 2
     3 LYC4        1 GROUP        1 X    LYC  0     **** LYC X 4
     4 GLC5       12 GROUP        1 X    GLC  0     **** GLC X 6
     5 ALP1       28 GROUP        1 Y    ALP  0     ROOT ALP Y 8
     6 SEP2        6 GROUP        1 Y    SEP  0     **** SEP Y 9
     7 LYP4        3 GROUP        1 Y    LYP  0     **** LYP Y 11
     8 GLP5       14 GROUP        1 Y    GLP  0     **** GLP Y 13
     9 ALL1       27 GROUP        1 Z    ALL  0     ROOT ALL Z 15
    10 SEL2        5 GROUP        1 Z    SEL  0     **** SEL Z 16
    11 LYL4        2 GROUP        1 Z    LYL  0     **** LYL Z 18
    12 GLL5       13 GROUP        1 Z    GLL  0     **** GLL Z 20
@<TRIPOS>SET

