#    Name: 3t7c_NAD_3_ligand
#    Modification time : Mon Mar 24 19:15:39 2014

@<TRIPOS>MOLECULE
3t7c_NAD_3_ligand
   70    74     1     0     0
SMALL
NO_CHARGES


@<TRIPOS>ATOM
      1 PA         -2.1790   14.0050    1.1630 P.3       1 NAD279      0.0000 
      2 O1A        -1.0630   13.8180    2.1720 O.co2     1 NAD279      0.0000 
      3 O2A        -2.9530   15.2820    1.0470 O.co2     1 NAD279      0.0000 
      4 O5B        -3.2270   12.8110    1.3270 O.3       1 NAD279      0.0000 
      5 C5B        -2.8570   11.5270    1.8140 C.3       1 NAD279      0.0000 
      6 C4B        -3.9820   11.1110    2.7530 C.3       1 NAD279      0.0000 
      7 O4B        -3.6630    9.7520    3.0600 O.3       1 NAD279      0.0000 
      8 C3B        -3.9930   11.9490    4.0500 C.3       1 NAD279      0.0000 
      9 O3B        -5.3440   12.3250    4.3470 O.3       1 NAD279      0.0000 
     10 C2B        -3.4180   10.9620    5.0640 C.3       1 NAD279      0.0000 
     11 O2B        -3.8880   11.1640    6.4160 O.3       1 NAD279      0.0000 
     12 C1B        -3.8210    9.6040    4.4550 C.3       1 NAD279      0.0000 
     13 N9A        -2.9830    8.5380    5.0020 N.pl3     1 NAD279      0.0000 
     14 C8A        -1.6370    8.5630    5.1160 C.2       1 NAD279      0.0000 
     15 N7A        -1.1910    7.4300    5.6960 N.2       1 NAD279      0.0000 
     16 C5A        -2.2640    6.6600    5.9640 C.ar      1 NAD279      0.0000 
     17 C6A        -2.4790    5.3470    6.5880 C.ar      1 NAD279      0.0000 
     18 N6A        -1.3970    4.6600    7.0540 N.pl3     1 NAD279      0.0000 
     19 N1A        -3.7590    4.8660    6.6660 N.ar      1 NAD279      0.0000 
     20 C2A        -4.8130    5.5630    6.2160 C.ar      1 NAD279      0.0000 
     21 N3A        -4.6720    6.7810    5.6400 N.ar      1 NAD279      0.0000 
     22 C4A        -3.4470    7.3790    5.5140 C.ar      1 NAD279      0.0000 
     23 O3         -1.4550   13.6150   -0.2190 O.3       1 NAD279      0.0000 
     24 PN         -2.0750   13.3690   -1.6560 P.3       1 NAD279      0.0000 
     25 O1N        -1.2570   14.1920   -2.6400 O.co2     1 NAD279      0.0000 
     26 O2N        -3.5900   13.4960   -1.7500 O.co2     1 NAD279      0.0000 
     27 O5D        -1.6070   11.8440   -1.8550 O.3       1 NAD279      0.0000 
     28 C5D        -2.4590   10.8990   -2.5380 C.3       1 NAD279      0.0000 
     29 C4D        -1.6540    9.9050   -3.3790 C.3       1 NAD279      0.0000 
     30 O4D        -0.9220   10.5560   -4.4520 O.3       1 NAD279      0.0000 
     31 C3D        -0.6040    9.1860   -2.5420 C.3       1 NAD279      0.0000 
     32 O3D        -0.5760    7.8200   -2.9800 O.3       1 NAD279      0.0000 
     33 C2D         0.7040    9.8590   -2.9220 C.3       1 NAD279      0.0000 
     34 O2D         1.8440    9.0230   -2.6310 O.3       1 NAD279      0.0000 
     35 C1D         0.4480   10.0860   -4.4120 C.3       1 NAD279      0.0000 
     36 N1N         1.2870   11.0770   -5.0960 N.pl3     1 NAD279      0.0000 
     37 C2N         1.2160   12.3730   -4.6900 C.ar      1 NAD279      0.0000 
     38 C3N         1.9570   13.3650   -5.3250 C.ar      1 NAD279      0.0000 
     39 C7N         1.8750   14.7970   -4.8430 C.2       1 NAD279      0.0000 
     40 O7N         2.5790   15.6490   -5.3790 O.2       1 NAD279      0.0000 
     41 N7N         0.9970   15.1220   -3.8920 N.am      1 NAD279      0.0000 
     42 C4N         2.7880   13.0070   -6.3980 C.ar      1 NAD279      0.0000 
     43 C5N         2.8450   11.6530   -6.8100 C.ar      1 NAD279      0.0000 
     44 C6N         2.0170   10.6970   -6.1700 C.ar      1 NAD279      0.0000 
     45 H          -1.9380   11.5528    2.3806 H         1 NAD279      0.0000 
     46 H          -2.7890   10.7933    1.0245 H         1 NAD279      0.0000 
     47 H          -4.9029   11.1937    2.2529 H         1 NAD279      0.0000 
     48 H          -3.3289   12.7459    3.9238 H         1 NAD279      0.0000 
     49 H          -2.3374   11.0236    4.9805 H         1 NAD279      0.0000 
     50 H          -4.8566    9.4479    4.7149 H         1 NAD279      0.0000 
     51 H          -1.0665    9.3008    4.8188 H         1 NAD279      0.0000 
     52 H          -1.5858    3.7683    7.4654 H         1 NAD279      0.0000 
     53 H          -0.5100    5.1084    6.9433 H         1 NAD279      0.0000 
     54 H          -5.7820    5.1560    6.3107 H         1 NAD279      0.0000 
     55 H          -3.1653   11.4136   -3.2114 H         1 NAD279      0.0000 
     56 H          -3.0651   10.3189   -1.8216 H         1 NAD279      0.0000 
     57 H          -2.3198    9.1589   -3.7829 H         1 NAD279      0.0000 
     58 H          -0.8027    9.3136   -1.5400 H         1 NAD279      0.0000 
     59 H           0.7228   10.8092   -2.4472 H         1 NAD279      0.0000 
     60 H           0.4885    9.1270   -4.9086 H         1 NAD279      0.0000 
     61 H           0.6023   12.6410   -3.8938 H         1 NAD279      0.0000 
     62 H           0.9656   16.0875   -3.6335 H         1 NAD279      0.0000 
     63 H           0.4494   14.3708   -3.5234 H         1 NAD279      0.0000 
     64 H           3.3460   13.7085   -6.8787 H         1 NAD279      0.0000 
     65 H           3.4721   11.3698   -7.5558 H         1 NAD279      0.0000 
     66 H           1.9922    9.7422   -6.5369 H         1 NAD279      0.0000 
     67 H          -5.8373   11.4608    4.4456 H         1 NAD279      0.0000 
     68 H          -4.8178   10.7961    6.4243 H         1 NAD279      0.0000 
     69 H          -1.0445    7.8220   -3.8635 H         1 NAD279      0.0000 
     70 H           2.6005    9.4297   -3.1432 H         1 NAD279      0.0000 
@<TRIPOS>BOND
     1    2    1 ar   
     2    3    1 ar   
     3    4    1 1    
     4   23    1 1    
     5    5    4 1    
     6    6    5 1    
     7   45    5 1    
     8   46    5 1    
     9    7    6 1    
    10    8    6 1    
    11   47    6 1    
    12   12    7 1    
    13    9    8 1    
    14   10    8 1    
    15   48    8 1    
    16   67    9 1    
    17   11   10 1    
    18   12   10 1    
    19   49   10 1    
    20   68   11 1    
    21   13   12 1    
    22   50   12 1    
    23   14   13 1    
    24   22   13 1    
    25   15   14 2    
    26   51   14 1    
    27   16   15 1    
    28   17   16 ar   
    29   22   16 ar   
    30   18   17 1    
    31   19   17 ar   
    32   52   18 1    
    33   53   18 1    
    34   20   19 ar   
    35   21   20 ar   
    36   54   20 1    
    37   22   21 ar   
    38   24   23 1    
    39   25   24 ar   
    40   26   24 ar   
    41   27   24 1    
    42   28   27 1    
    43   29   28 1    
    44   55   28 1    
    45   56   28 1    
    46   30   29 1    
    47   31   29 1    
    48   57   29 1    
    49   35   30 1    
    50   32   31 1    
    51   33   31 1    
    52   58   31 1    
    53   69   32 1    
    54   34   33 1    
    55   35   33 1    
    56   59   33 1    
    57   70   34 1    
    58   36   35 1    
    59   60   35 1    
    60   37   36 ar   
    61   44   36 ar   
    62   38   37 ar   
    63   61   37 1    
    64   39   38 1    
    65   42   38 ar   
    66   40   39 2    
    67   41   39 am   
    68   62   41 1    
    69   63   41 1    
    70   43   42 ar   
    71   64   42 1    
    72   44   43 ar   
    73   65   43 1    
    74   66   44 1    
@<TRIPOS>SUBSTRUCTURE
     1 NAD279      1 GROUP   
@<TRIPOS>SET

