#    Name: 3TCF_3_CAVITY_N1_6.mol2
#    Modification time : Tue Mar 11 03:20:28 2014

@<TRIPOS>MOLECULE
3TCF_3_CAVITY_N1_6.mol2
   68     0     5     0     0
SMALL
NO_CHARGES


@<TRIPOS>ATOM
      1 OG          2.4618  -71.7841   26.6865 O.2       1 SER1        0.0000 
      2 OG          2.0344  -72.8462   27.6556 O.2       1 SER1        0.0000 
      3 OG          1.6070  -73.9083   28.6248 O.2       1 SER1        0.0000 
      4 O           1.4139  -72.2464   25.7178 O.2       2 ALA2        0.0000 
      5 N           0.9865  -73.3084   26.6870 N.2       2 ALA2        0.0000 
      6 OG          0.5591  -74.3705   27.6562 O.2       1 SER1        0.0000 
      7 CZ          0.7935  -71.6465   23.7800 C.ar      3 PHE5        0.0000 
      8 DU          0.3661  -72.7086   24.7491 H         5 CUB7        0.0000 
      9 DU         -0.0614  -73.7707   25.7183 H         5 CUB7        0.0000 
     10 O          -0.4888  -74.8327   26.6875 O.2       2 ALA2        0.0000 
     11 CZ         -0.2544  -72.1087   22.8113 C.ar      3 PHE5        0.0000 
     12 DU         -0.6818  -73.1708   23.7805 H         5 CUB7        0.0000 
     13 O          -1.1093  -74.2329   24.7497 O.2       2 ALA2        0.0000 
     14 OG         -1.7297  -73.6330   22.8118 O.2       1 SER1        0.0000 
     15 O          -2.1571  -74.6951   23.7810 O.2       2 ALA2        0.0000 
     16 N          -2.0304  -71.8645   26.9388 N.2       2 ALA2        0.0000 
     17 N           6.2702  -72.5192   22.9174 N.2       2 ALA2        0.0000 
     18 CA          5.8428  -73.5813   23.8866 C.3       4 GLY6        0.0000 
     19 CA          5.4153  -74.6434   24.8557 C.3       4 GLY6        0.0000 
     20 CZ          4.9879  -75.7055   25.8249 C.ar      3 PHE5        0.0000 
     21 CA          2.7625  -73.5527   22.5595 C.3       4 GLY6        0.0000 
     22 CA          2.3351  -74.6147   23.5287 C.3       4 GLY6        0.0000 
     23 N           1.9076  -75.6768   24.4978 N.2       2 ALA2        0.0000 
     24 N           1.4802  -76.7389   25.4670 N.2       2 ALA2        0.0000 
     25 CA          1.2872  -75.0770   22.5600 C.3       4 GLY6        0.0000 
     26 N           0.8597  -76.1390   23.5292 N.2       2 ALA2        0.0000 
     27 N           4.3012  -70.6131   24.1378 N.2       2 ALA2        0.0000 
     28 O           3.8738  -71.6752   25.1070 O.2       2 ALA2        0.0000 
     29 OG          3.4463  -72.7372   26.0762 O.2       1 SER1        0.0000 
     30 OG          3.0189  -73.7993   27.0454 O.2       1 SER1        0.0000 
     31 CZ          2.5915  -74.8614   28.0146 C.ar      3 PHE5        0.0000 
     32 CZ          3.2533  -71.0753   23.1692 C.ar      3 PHE5        0.0000 
     33 O           2.8259  -72.1374   24.1384 O.2       2 ALA2        0.0000 
     34 DU          2.3984  -73.1994   25.1076 H         5 CUB7        0.0000 
     35 DU          1.9710  -74.2615   26.0767 H         5 CUB7        0.0000 
     36 CA          1.5436  -75.3236   27.0459 C.3       4 GLY6        0.0000 
     37 CZ          1.7780  -72.5996   23.1697 C.ar      3 PHE5        0.0000 
     38 DU          1.3506  -73.6617   24.1389 H         5 CUB7        0.0000 
     39 O           0.9231  -74.7237   25.1081 O.2       2 ALA2        0.0000 
     40 O           0.4957  -75.7858   26.0773 O.2       2 ALA2        0.0000 
     41 OG          5.9061  -72.1660   25.4654 O.2       1 SER1        0.0000 
     42 OG          4.8583  -72.6282   24.4968 O.2       1 SER1        0.0000 
     43 OG          4.4308  -73.6903   25.4660 O.2       1 SER1        0.0000 
     44 CZ          4.0034  -74.7524   26.4352 C.ar      3 PHE5        0.0000 
     45 CZ          3.5760  -75.8144   27.4043 C.ar      3 PHE5        0.0000 
     46 N           4.2378  -72.0284   22.5590 N.2       2 ALA2        0.0000 
     47 CA          3.8104  -73.0905   23.5281 C.3       4 GLY6        0.0000 
     48 DU          3.3829  -74.1525   24.4973 H         5 CUB7        0.0000 
     49 DU          2.9555  -75.2146   25.4665 H         5 CUB7        0.0000 
     50 N           2.5281  -76.2767   26.4357 N.2       2 ALA2        0.0000 
     51 N           0.0020  -72.3554   27.2972 N.2       2 ALA2        0.0000 
     52 OG         -0.4254  -73.4174   28.2664 O.2       1 SER1        0.0000 
     53 O          -0.1910  -70.6934   24.3902 O.2       2 ALA2        0.0000 
     54 O          -0.6184  -71.7555   25.3594 O.2       2 ALA2        0.0000 
     55 N          -1.0459  -72.8176   26.3286 N.2       2 ALA2        0.0000 
     56 OG         -1.4733  -73.8796   27.2977 O.2       1 SER1        0.0000 
     57 CA          4.3674  -75.1056   23.8871 C.3       4 GLY6        0.0000 
     58 OG          3.9400  -76.1677   24.8563 O.2       1 SER1        0.0000 
     59 N           3.5126  -77.2297   25.8254 N.2       2 ALA2        0.0000 
     60 CA          2.8921  -76.6299   23.8876 C.3       4 GLY6        0.0000 
     61 CZ         -1.2389  -71.1557   23.4215 C.ar      3 PHE5        0.0000 
     62 O          -1.6663  -72.2177   24.3907 O.2       2 ALA2        0.0000 
     63 O          -2.0938  -73.2798   25.3599 O.2       2 ALA2        0.0000 
     64 N          -2.7142  -72.6799   23.4221 N.2       2 ALA2        0.0000 
     65 CA          0.7301  -73.0618   22.2011 C.3       4 GLY6        0.0000 
     66 CA          0.3027  -74.1239   23.1702 C.3       4 GLY6        0.0000 
     67 O          -0.1248  -75.1860   24.1394 O.2       2 ALA2        0.0000 
     68 N          -1.1726  -75.6482   23.1708 N.2       2 ALA2        0.0000 
@<TRIPOS>BOND
@<TRIPOS>SUBSTRUCTURE
     1 SER1        1 GROUP   
     2 ALA2        4 GROUP   
     3 PHE5        7 GROUP   
     4 GLY6       18 GROUP   
     5 CUB7        8 GROUP   
@<TRIPOS>SET

