#    Name: 3tcf_UNK_UNK_UNK_3_INTS_M
#    Modification time : Mon Mar 24 19:30:33 2014

@<TRIPOS>MOLECULE
3tcf_UNK_UNK_UNK_3_INTS_M
   51     0    12     0     0
SMALL
NO_CHARGES


@<TRIPOS>ATOM
      1 OD1         9.9910  -73.8085   17.6185 O.co2     3 ASC3        0.0000 
      2 OD1         9.4000  -72.7490   18.4200 O.co2    11 ASL3        0.0000 
      3 OD1        10.5820  -74.8680   16.8170 O.co2     7 ASP3        0.0000 
      4 OD1        10.7255  -73.0730   17.2630 O.co2     3 ASC3        0.0000 
      5 OD1        12.0510  -73.3970   16.1060 O.co2     7 ASP3        0.0000 
      6 O          10.1845  -73.2995   19.5105 O.2       1 ALC1        0.0000 
      7 O           9.4000  -72.7490   18.4200 O.2       9 ALL1        0.0000 
      8 O          10.9690  -73.8500   20.6010 O.2       5 ALP1        0.0000 
      9 O           9.9910  -73.8085   17.6185 O.2       1 ALC1        0.0000 
     10 O          10.5820  -74.8680   16.8170 O.2       5 ALP1        0.0000 
     11 CA          8.5755  -70.9375   18.4600 C.3       4 GLC5        0.0000 
     12 CA          7.9220  -72.7670   18.3770 C.3      12 GLL5        0.0000 
     13 CA          9.2290  -69.1080   18.5430 C.3       8 GLP5        0.0000 
     14 N           8.7535  -72.4455   21.7655 N.am      2 SEC2        0.0000 
     15 N           7.8890  -72.1460   20.6790 N.am     10 SEL2        0.0000 
     16 N           9.6180  -72.7450   22.8520 N.am      6 SEP2        0.0000 
     17 CA          6.2895  -74.8745   19.6955 C.3       4 GLC5        0.0000 
     18 CA          7.4080  -74.2100   18.3320 C.3      12 GLL5        0.0000 
     19 CA          5.1710  -75.5390   21.0590 C.3       8 GLP5        0.0000 
     20 O           5.9590  -71.3730   17.9000 O.2       1 ALC1        0.0000 
     21 O           6.3260  -71.2300   19.3410 O.2       9 ALL1        0.0000 
     22 O           5.5920  -71.5160   16.4590 O.2       5 ALP1        0.0000 
     23 CA          7.5695  -69.8010   20.1645 C.3       4 GLC5        0.0000 
     24 CA          5.6480  -70.4760   20.4050 C.3      12 GLL5        0.0000 
     25 CA          9.4910  -69.1260   19.9240 C.3       8 GLP5        0.0000 
     26 N           3.7235  -73.3560   19.6385 N.am      2 SEC2        0.0000 
     27 N           4.0240  -72.1940   20.4810 N.am     10 SEL2        0.0000 
     28 N           3.4230  -74.5180   18.7960 N.am      6 SEP2        0.0000 
     29 CA          2.9905  -69.7940   20.3690 C.3       4 GLC5        0.0000 
     30 CA          4.8350  -69.3350   19.8010 C.3      12 GLL5        0.0000 
     31 CA          1.1460  -70.2530   20.9370 C.3       8 GLP5        0.0000 
     32 CA          3.4100  -68.1060   19.2640 C.3       4 GLC5        0.0000 
     33 CA          1.9850  -66.8770   18.7270 C.3       8 GLP5        0.0000 
     34 O           5.7870  -70.5685   22.9030 O.2       1 ALC1        0.0000 
     35 O           4.8210  -71.5180   22.4730 O.2       9 ALL1        0.0000 
     36 O           6.7530  -69.6190   23.3330 O.2       5 ALP1        0.0000 
     37 CA          2.6295  -71.4015   22.0930 C.3       4 GLC5        0.0000 
     38 CA          4.1130  -72.5500   23.2490 C.3      12 GLL5        0.0000 
     39 N           2.0945  -69.6680   25.0090 N.am      2 SEC2        0.0000 
     40 N           2.5500  -70.9900   24.2550 N.am     10 SEL2        0.0000 
     41 N           1.6390  -68.3460   25.7630 N.am      6 SEP2        0.0000 
     42 N           3.0530  -70.1195   25.4710 N.am      2 SEC2        0.0000 
     43 N           3.5560  -69.2490   26.6870 N.am      6 SEP2        0.0000 
     44 CA          5.8225  -71.0990   25.0545 C.3       4 GLC5        0.0000 
     45 CA          4.9740  -73.0180   24.4200 C.3      12 GLL5        0.0000 
     46 CA          6.6710  -69.1800   25.6890 C.3       8 GLP5        0.0000 
     47 CA          6.4200  -74.0985   24.2190 C.3       4 GLC5        0.0000 
     48 CA          7.8660  -75.1790   24.0180 C.3       8 GLP5        0.0000 
     49 CA          5.2960  -72.8325   26.4940 C.3       4 GLC5        0.0000 
     50 CA          5.6180  -72.6470   28.5680 C.3       8 GLP5        0.0000 
     51 CA          4.8573  -74.1615   22.4468 C.3       4 GLC5        0.0000 
@<TRIPOS>BOND
@<TRIPOS>SUBSTRUCTURE
     1 ALC1        6 GROUP        1 X    ALC  0     ROOT ALC X 1
     2 SEC2       14 GROUP        1 X    SEC  0     **** SEC X 2
     3 ASC3        1 GROUP        1 X    ASC  0     **** ASC X 3
     4 GLC5       11 GROUP        1 X    GLC  0     **** GLC X 6
     5 ALP1        8 GROUP        1 Y    ALP  0     ROOT ALP Y 8
     6 SEP2       16 GROUP        1 Y    SEP  0     **** SEP Y 9
     7 ASP3        3 GROUP        1 Y    ASP  0     **** ASP Y 10
     8 GLP5       13 GROUP        1 Y    GLP  0     **** GLP Y 13
     9 ALL1        7 GROUP        1 Z    ALL  0     ROOT ALL Z 15
    10 SEL2       15 GROUP        1 Z    SEL  0     **** SEL Z 16
    11 ASL3        2 GROUP        1 Z    ASL  0     **** ASL Z 17
    12 GLL5       12 GROUP        1 Z    GLL  0     **** GLL Z 20
@<TRIPOS>SET

