#    Name: 3tcf_UNK_UNK_UNK_3_ligand
#    Modification time : Mon Mar 24 19:30:33 2014

@<TRIPOS>MOLECULE
3tcf_UNK_UNK_UNK_3_ligand
   33    32     3     0     0
SMALL
NO_CHARGES


@<TRIPOS>ATOM
      1 N           9.4000  -72.7490   18.4200 N.4       1 UNK1        0.0000
      2 CA          7.9220  -72.7670   18.3770 C.3       1 UNK1        0.0000
      3 C           7.3600  -72.0330   19.5770 C.2       1 UNK1        0.0000
      4 O           7.8890  -72.1460   20.6790 O.2       1 UNK1        0.0000
      5 CB          7.4080  -74.2100   18.3320 C.3       1 UNK1        0.0000
      6 H           7.5816  -72.2627   17.4768 H         1 UNK1        0.0000
      7 H           9.8001  -73.2274   17.6383 H         1 UNK1        0.0000
      8 H           9.7605  -71.8163   18.4087 H         1 UNK1        0.0000
      9 H           9.7529  -73.1897   19.2454 H         1 UNK1        0.0000
     10 H           7.7406  -74.6977   17.5249 H         1 UNK1        0.0000
     11 H           7.7006  -74.7336   19.1321 H         1 UNK1        0.0000
     12 H           6.4090  -74.2478   18.3063 H         1 UNK1        0.0000
     13 N           6.3260  -71.2300   19.3410 N.am      2 UNK2        0.0000
     14 CA          5.6480  -70.4760   20.4050 C.3       2 UNK2        0.0000
     15 C           4.7530  -71.4670   21.1350 C.2       2 UNK2        0.0000
     16 O           4.0240  -72.1940   20.4810 O.2       2 UNK2        0.0000
     17 CB          4.8350  -69.3350   19.8010 C.3       2 UNK2        0.0000
     18 H           5.9366  -71.0903   18.3804 H         2 UNK2        0.0000
     19 H           6.3635  -70.0844   21.0930 H         2 UNK2        0.0000
     20 H           5.4115  -68.6994   19.2876 H         2 UNK2        0.0000
     21 H           4.1353  -69.6708   19.1704 H         2 UNK2        0.0000
     22 H           4.3644  -68.8016   20.5039 H         2 UNK2        0.0000
     23 N           4.8210  -71.5180   22.4730 N.am      3 UNK3        0.0000
     24 CA          4.1130  -72.5500   23.2490 C.3       3 UNK3        0.0000
     25 C           2.7230  -72.1080   23.7480 C.2       3 UNK3        0.0000
     26 O           2.5500  -70.9900   24.2550 O.2       3 UNK3        0.0000
     27 CB          4.9740  -73.0180   24.4200 C.3       3 UNK3        0.0000
     28 H           5.3728  -70.8370   23.0290 H         3 UNK3        0.0000
     29 H           3.9545  -73.4373   22.6043 H         3 UNK3        0.0000
     30 H           2.0054  -72.8525   23.5985 H         3 UNK3        0.0000
     31 H           5.8408  -73.4091   24.1106 H         3 UNK3        0.0000
     32 H           5.1966  -72.2664   25.0410 H         3 UNK3        0.0000
     33 H           4.5129  -73.7199   24.9628 H         3 UNK3        0.0000
@<TRIPOS>BOND
     1    2    1 1
     2    7    1 1
     3    8    1 1
     4    9    1 1
     5    3    2 1
     6    5    2 1
     7    6    2 1
     8    4    3 2
     9   10    5 1
    10   11    5 1
    11   12    5 1
    12   14   13 1
    13   18   13 1
    14   15   14 1
    15   17   14 1
    16   19   14 1
    17   16   15 2
    18   20   17 1
    19   21   17 1
    20   22   17 1
    21   24   23 1
    22   28   23 1
    23   25   24 1
    24   27   24 1
    25   29   24 1
    26   26   25 2
    27   30   25 1
    28   31   27 1
    29   32   27 1
    30   33   27 1
    31   13    3 1 
    32   23   15 1 
@<TRIPOS>SUBSTRUCTURE
     1 UNK1        1 GROUP
     2 UNK2       13 GROUP
     3 UNK3       23 GROUP
@<TRIPOS>SET

