#    Name: 4GA6_2_CAVITY_N1_6.mol2
#    Modification time : Mon Mar 10 23:05:12 2014

@<TRIPOS>MOLECULE
4GA6_2_CAVITY_N1_6.mol2
   49     0     5     0     0
SMALL
NO_CHARGES


@<TRIPOS>ATOM
      1 N          -1.2520   35.3164  -13.9086 N.2       2 ALA2        0.0000 
      2 CA         -1.2050   34.5163  -15.1765 C.3       4 GLY6        0.0000 
      3 O          -1.2545   35.7833  -15.9779 O.2       2 ALA2        0.0000 
      4 OG         -1.3040   37.0503  -16.7792 O.2       1 SER1        0.0000 
      5 OG         -1.3534   38.3174  -17.5806 O.2       1 SER1        0.0000 
      6 OG         -1.1085   32.4492  -15.6430 O.2       1 SER1        0.0000 
      7 CA         -1.1580   33.7162  -16.4444 C.3       4 GLY6        0.0000 
      8 DU         -1.2075   34.9832  -17.2458 H         5 CUB7        0.0000 
      9 N          -1.2570   36.2502  -18.0472 N.2       2 ALA2        0.0000 
     10 N          -1.3065   37.5173  -18.8485 N.2       2 ALA2        0.0000 
     11 O          -1.0615   31.6491  -16.9109 O.2       2 ALA2        0.0000 
     12 OG         -1.1110   32.9161  -17.7123 O.2       1 SER1        0.0000 
     13 OG         -1.1605   34.1831  -18.5137 O.2       1 SER1        0.0000 
     14 N          -1.2100   35.4501  -19.3151 N.2       2 ALA2        0.0000 
     15 CA         -1.0640   32.1160  -18.9802 C.3       4 GLY6        0.0000 
     16 OG         -1.1135   33.3830  -19.7816 O.2       1 SER1        0.0000 
     17 N          -1.1630   34.6500  -20.5830 N.2       2 ALA2        0.0000 
     18 CA         -2.8024   36.9834  -16.7925 C.3       4 GLY6        0.0000 
     19 CA         -2.6564   33.6493  -16.4577 C.3       4 GLY6        0.0000 
     20 N          -2.7059   34.9163  -17.2591 N.2       2 ALA2        0.0000 
     21 OG         -2.8049   37.4503  -18.8618 O.2       1 SER1        0.0000 
     22 OG         -2.6094   32.8491  -17.7256 O.2       1 SER1        0.0000 
     23 OG         -2.7084   35.3832  -19.3284 O.2       1 SER1        0.0000 
     24 N           1.7944   34.1833  -13.0806 N.2       2 ALA2        0.0000 
     25 CA          1.7449   35.4503  -13.8820 C.3       4 GLY6        0.0000 
     26 O           1.8414   33.3832  -14.3485 O.2       2 ALA2        0.0000 
     27 CA          1.7919   34.6502  -15.1499 C.3       4 GLY6        0.0000 
     28 OG          1.6929   37.1842  -16.7526 O.2       1 SER1        0.0000 
     29 N           0.2490   34.9164  -11.8260 N.2       2 ALA2        0.0000 
     30 N           0.1995   36.1835  -12.6273 N.2       2 ALA2        0.0000 
     31 N           0.2960   34.1163  -13.0939 N.2       2 ALA2        0.0000 
     32 N           0.2465   35.3834  -13.8953 N.2       2 ALA2        0.0000 
     33 N           0.1970   36.6504  -14.6966 N.2       2 ALA2        0.0000 
     34 OG          0.1475   37.9174  -15.4980 O.2       1 SER1        0.0000 
     35 OG          0.0980   39.1844  -16.2994 O.2       1 SER1        0.0000 
     36 OG          0.3430   33.3162  -14.3618 O.2       1 SER1        0.0000 
     37 N           0.2935   34.5832  -15.1632 N.2       2 ALA2        0.0000 
     38 CA          0.2440   35.8503  -15.9646 C.3       4 GLY6        0.0000 
     39 CA          0.1945   37.1173  -16.7659 C.3       4 GLY6        0.0000 
     40 CA          0.1450   38.3843  -17.5673 C.3       4 GLY6        0.0000 
     41 OG          0.3900   32.5161  -15.6297 O.2       1 SER1        0.0000 
     42 CA          0.3405   33.7831  -16.4311 C.3       4 GLY6        0.0000 
     43 CA          0.2910   35.0502  -17.2325 C.3       4 GLY6        0.0000 
     44 N           0.2415   36.3172  -18.0339 N.2       2 ALA2        0.0000 
     45 OG          0.4370   31.7160  -16.8976 O.2       1 SER1        0.0000 
     46 CA          0.3875   32.9830  -17.6990 C.3       4 GLY6        0.0000 
     47 N           0.3380   34.2501  -18.5004 N.2       2 ALA2        0.0000 
     48 OD1         0.4345   32.1829  -18.9669 O.3       3 ASP3        0.0000 
     49 N           0.3850   33.4499  -19.7683 N.2       2 ALA2        0.0000 
@<TRIPOS>BOND
@<TRIPOS>SUBSTRUCTURE
     1 SER1        4 GROUP   
     2 ALA2        1 GROUP   
     3 ASP3       48 GROUP   
     4 GLY6        2 GROUP   
     5 CUB7        8 GROUP   
@<TRIPOS>SET

