#    Name: 4ga6_AMP_2_INTS_M
#    Modification time : Mon Mar 24 21:35:31 2014

@<TRIPOS>MOLECULE
4ga6_AMP_2_INTS_M
   64     0    12     0     0
SMALL
NO_CHARGES


@<TRIPOS>ATOM
      1 N          -1.7405   29.7695  -16.3320 N.am      2 SEC2        0.0000 
      2 N          -0.7360   30.6320  -16.0010 N.am     10 SEL2        0.0000 
      3 N          -2.7450   28.9070  -16.6630 N.am      6 SEP2        0.0000 
      4 N          -0.1635   29.5060  -15.1190 N.am      2 SEC2        0.0000 
      5 N           0.4090   28.3800  -14.2370 N.am      6 SEP2        0.0000 
      6 N          -0.7725   30.7890  -14.6910 N.am      2 SEC2        0.0000 
      7 N          -0.8090   30.9460  -13.3810 N.am      6 SEP2        0.0000 
      8 NZ          2.2090   30.3980  -18.5280 N.4       3 LYC4        0.0000 
      9 NZ          1.2870   30.1110  -17.4330 N.4      11 LYL4        0.0000 
     10 NZ          3.1310   30.6850  -19.6230 N.4       7 LYP4        0.0000 
     11 N           2.2090   30.3980  -18.5280 N.am      2 SEC2        0.0000 
     12 N           1.2870   30.1110  -17.4330 N.am     10 SEL2        0.0000 
     13 N           3.1310   30.6850  -19.6230 N.am      6 SEP2        0.0000 
     14 N           0.5875   28.7860  -17.0970 N.am      2 SEC2        0.0000 
     15 N          -0.1120   27.4610  -16.7610 N.am      6 SEP2        0.0000 
     16 N           1.9975   29.1860  -17.0220 N.am      2 SEC2        0.0000 
     17 N           2.7080   28.2610  -16.6110 N.am      6 SEP2        0.0000 
     18 N           2.7570   32.2740  -16.1825 N.am      2 SEC2        0.0000 
     19 N           1.2760   32.1000  -15.9800 N.am     10 SEL2        0.0000 
     20 N           4.2380   32.4480  -16.3850 N.am      6 SEP2        0.0000 
     21 CA         -2.1020   30.9825  -18.6645 C.3       4 GLC5        0.0000 
     22 CA         -1.3740   32.6600  -17.7340 C.3      12 GLL5        0.0000 
     23 CA         -2.8300   29.3050  -19.5950 C.3       8 GLP5        0.0000 
     24 N          -3.3065   36.0655  -15.5930 N.am      2 SEC2        0.0000 
     25 N          -2.4530   35.9820  -16.7410 N.am     10 SEL2        0.0000 
     26 N          -4.1600   36.1490  -14.4450 N.am      6 SEP2        0.0000 
     27 O          -1.6030   36.1980  -15.2550 O.2       1 ALC1        0.0000 
     28 O          -2.4530   35.9820  -16.7410 O.2       9 ALL1        0.0000 
     29 O          -0.7530   36.4140  -13.7690 O.2       5 ALP1        0.0000 
     30 N          -4.5100   36.0980  -19.5840 N.am      2 SEC2        0.0000 
     31 N          -3.0380   36.4640  -19.4550 N.am     10 SEL2        0.0000 
     32 N          -5.9820   35.7320  -19.7130 N.am      6 SEP2        0.0000 
     33 CA          0.1010   34.4465  -23.5995 C.3       4 GLC5        0.0000 
     34 CA         -0.8560   32.9450  -22.4710 C.3      12 GLL5        0.0000 
     35 CA          1.0580   35.9480  -24.7280 C.3       8 GLP5        0.0000 
     36 CA         -3.5990   31.5405  -23.5760 C.3       4 GLC5        0.0000 
     37 CA         -1.5630   32.4580  -23.6760 C.3      12 GLL5        0.0000 
     38 CA         -5.6350   30.6230  -23.4760 C.3       8 GLP5        0.0000 
     39 CA         -2.2495   32.4430  -25.6590 C.3       4 GLC5        0.0000 
     40 CA         -2.9360   32.4280  -27.6420 C.3       8 GLP5        0.0000 
     41 CA         -0.9495   34.2625  -24.4825 C.3       4 GLC5        0.0000 
     42 CA         -0.3360   36.0670  -25.2890 C.3       8 GLP5        0.0000 
     43 O          -0.2235   30.3220  -24.0690 O.2       1 ALC1        0.0000 
     44 O          -1.0340   31.5120  -24.4700 O.2       9 ALL1        0.0000 
     45 O           0.5870   29.1320  -23.6680 O.2       5 ALP1        0.0000 
     46 N          -3.3740   32.8230  -25.3430 N.am      2 SEC2        0.0000 
     47 N          -2.7600   32.9940  -23.9560 N.am     10 SEL2        0.0000 
     48 N          -3.9880   32.6520  -26.7300 N.am      6 SEP2        0.0000 
     49 CA         -4.4450   33.6575  -21.7835 C.3       4 GLC5        0.0000 
     50 CA         -3.3090   33.9330  -23.1810 C.3      12 GLL5        0.0000 
     51 CA         -5.5810   33.3820  -20.3860 C.3       8 GLP5        0.0000 
     52 CA         -4.4720   32.2780  -23.3285 C.3       4 GLC5        0.0000 
     53 CA         -1.8225   35.0000  -24.2350 C.3       4 GLC5        0.0000 
     54 CA         -3.5515   33.6765  -21.0260 C.3       4 GLC5        0.0000 
     55 CA         -1.5220   33.9710  -21.6660 C.3      12 GLL5        0.0000 
     56 CA         -0.9290   35.0190  -23.4775 C.3       4 GLC5        0.0000 
     57 CA         -2.9108   34.1285  -15.8660 C.3       4 GLC5        0.0000 
     58 CA         -2.4210   34.8850  -17.6450 C.3      12 GLL5        0.0000 
     59 CA         -4.0490   33.7430  -14.1790 C.3       8 GLP5        0.0000 
     60 CA         -3.9925   34.2215  -19.3870 C.3       4 GLC5        0.0000 
     61 CA          0.6233   32.4932  -24.1047 C.3       4 GLC5        0.0000 
     62 CA          2.4560   32.2850  -25.1360 C.3       8 GLP5        0.0000 
     63 CA         -1.8564   31.6636  -21.6089 C.3       4 GLC5        0.0000 
     64 CA         -2.3470   29.9910  -20.8480 C.3       8 GLP5        0.0000 
@<TRIPOS>BOND
@<TRIPOS>SUBSTRUCTURE
     1 ALC1       27 GROUP        1 X    ALC  0     ROOT ALC X 1
     2 SEC2        1 GROUP        1 X    SEC  0     **** SEC X 2
     3 LYC4        8 GROUP        1 X    LYC  0     **** LYC X 4
     4 GLC5       21 GROUP        1 X    GLC  0     **** GLC X 6
     5 ALP1       29 GROUP        1 Y    ALP  0     ROOT ALP Y 8
     6 SEP2        3 GROUP        1 Y    SEP  0     **** SEP Y 9
     7 LYP4       10 GROUP        1 Y    LYP  0     **** LYP Y 11
     8 GLP5       23 GROUP        1 Y    GLP  0     **** GLP Y 13
     9 ALL1       28 GROUP        1 Z    ALL  0     ROOT ALL Z 15
    10 SEL2        2 GROUP        1 Z    SEL  0     **** SEL Z 16
    11 LYL4        9 GROUP        1 Z    LYL  0     **** LYL Z 18
    12 GLL5       22 GROUP        1 Z    GLL  0     **** GLL Z 20
@<TRIPOS>SET

