#    Name: 4ga6_AMP_2_ligand
#    Modification time : Mon Mar 24 21:35:32 2014

@<TRIPOS>MOLECULE
4ga6_AMP_2_ligand
   35    37     1     0     0
SMALL
NO_CHARGES


@<TRIPOS>ATOM
      1 P           0.4650   31.1100  -16.7190 P.3       1 AMP601      0.0000 
      2 O1P        -0.7360   30.6320  -16.0010 O.co2     1 AMP601      0.0000 
      3 O2P         1.2870   30.1110  -17.4330 O.co2     1 AMP601      0.0000 
      4 O3P         1.2760   32.1000  -15.9800 O.co2     1 AMP601      0.0000 
      5 O5'        -0.1620   31.9440  -17.9170 O.3       1 AMP601      0.0000 
      6 C5'        -1.3740   32.6600  -17.7340 C.3       1 AMP601      0.0000 
      7 C4'        -1.1240   34.1430  -17.4610 C.3       1 AMP601      0.0000 
      8 O4'        -0.2210   34.7040  -18.4070 O.3       1 AMP601      0.0000 
      9 C3'        -2.4210   34.8850  -17.6450 C.3       1 AMP601      0.0000 
     10 O3'        -2.4530   35.9820  -16.7410 O.3       1 AMP601      0.0000 
     11 C2'        -2.3870   35.2370  -19.1310 C.3       1 AMP601      0.0000 
     12 O2'        -3.0380   36.4640  -19.4550 O.3       1 AMP601      0.0000 
     13 C1'        -0.9200   35.2070  -19.5440 C.3       1 AMP601      0.0000 
     14 N9         -0.7060   34.2440  -20.6520 N.pl3     1 AMP601      0.0000 
     15 C8          0.3730   33.4690  -20.7860 C.2       1 AMP601      0.0000 
     16 N7          0.3020   32.6840  -21.8710 N.2       1 AMP601      0.0000 
     17 C5         -0.8560   32.9450  -22.4710 C.ar      1 AMP601      0.0000 
     18 C6         -1.5630   32.4580  -23.6760 C.ar      1 AMP601      0.0000 
     19 N6         -1.0340   31.5120  -24.4700 N.pl3     1 AMP601      0.0000 
     20 N1         -2.7600   32.9940  -23.9560 N.ar      1 AMP601      0.0000 
     21 C2         -3.3090   33.9330  -23.1810 C.ar      1 AMP601      0.0000 
     22 N3         -2.7270   34.4200  -22.0800 N.ar      1 AMP601      0.0000 
     23 C4         -1.5220   33.9710  -21.6660 C.ar      1 AMP601      0.0000 
     24 H          -1.9604   32.2621  -16.8847 H         1 AMP601      0.0000 
     25 H          -2.0272   32.5936  -18.6241 H         1 AMP601      0.0000 
     26 H          -0.7955   34.2708  -16.4617 H         1 AMP601      0.0000 
     27 H          -3.2109   34.1762  -17.4886 H         1 AMP601      0.0000 
     28 H          -2.8652   34.3848  -19.6559 H         1 AMP601      0.0000 
     29 H          -0.6065   36.1712  -19.8036 H         1 AMP601      0.0000 
     30 H           1.1421   33.4713  -20.1558 H         1 AMP601      0.0000 
     31 H          -1.2635   31.5740  -25.4414 H         1 AMP601      0.0000 
     32 H          -0.4580   30.8304  -24.0187 H         1 AMP601      0.0000 
     33 H          -4.2701   34.3183  -23.4565 H         1 AMP601      0.0000 
     34 H          -1.5507   35.9883  -16.3099 H         1 AMP601      0.0000 
     35 H          -3.2726   36.8731  -18.5731 H         1 AMP601      0.0000 
@<TRIPOS>BOND
     1    2    1 ar   
     2    3    1 ar   
     3    4    1 ar   
     4    5    1 1    
     5    6    5 1    
     6    7    6 1    
     7   24    6 1    
     8   25    6 1    
     9    8    7 1    
    10    9    7 1    
    11   26    7 1    
    12   13    8 1    
    13   10    9 1    
    14   11    9 1    
    15   27    9 1    
    16   34   10 1    
    17   12   11 1    
    18   13   11 1    
    19   28   11 1    
    20   35   12 1    
    21   14   13 1    
    22   29   13 1    
    23   15   14 1    
    24   23   14 1    
    25   16   15 2    
    26   30   15 1    
    27   17   16 1    
    28   18   17 ar   
    29   23   17 ar   
    30   19   18 1    
    31   20   18 ar   
    32   31   19 1    
    33   32   19 1    
    34   21   20 ar   
    35   22   21 ar   
    36   33   21 1    
    37   23   22 ar   
@<TRIPOS>SUBSTRUCTURE
     1 AMP601      1 GROUP   
@<TRIPOS>SET

