#    Name: 3te5_NAI_1_INTS_M
#    Modification time : Mon Mar 24 19:58:26 2014

@<TRIPOS>MOLECULE
3te5_NAI_1_INTS_M
   82     0     9     0     0
SMALL
NO_CHARGES


@<TRIPOS>ATOM
      1 N         -30.2550   64.3360   -4.2045 N.am      2 SEC2        0.0000 
      2 N         -30.5940   64.7030   -2.7850 N.am      8 SEL2        0.0000 
      3 N         -29.9160   63.9690   -5.6240 N.am      5 SEP2        0.0000 
      4 N         -31.2580   63.5385   -3.4765 N.am      2 SEC2        0.0000 
      5 N         -31.9220   62.3740   -4.1680 N.am      5 SEP2        0.0000 
      6 O         -31.4955   71.0010    1.0810 O.2       1 ALC1        0.0000 
      7 O         -30.3610   70.5530    0.3480 O.2       7 ALL1        0.0000 
      8 O         -32.6300   71.4490    1.8140 O.2       4 ALP1        0.0000 
      9 O         -32.9125   71.3890   -0.8280 O.2       1 ALC1        0.0000 
     10 O         -31.9650   71.3480   -1.6520 O.2       7 ALL1        0.0000 
     11 O         -33.8600   71.4300   -0.0040 O.2       4 ALP1        0.0000 
     12 CA        -29.8470   72.1595   -7.7060 C.3       3 GLC5        0.0000 
     13 CA        -28.7000   70.4650   -7.2760 C.3       9 GLL5        0.0000 
     14 CA        -30.9940   73.8540   -8.1360 C.3       6 GLP5        0.0000 
     15 CA        -26.9115   70.6275   -8.4375 C.3       3 GLC5        0.0000 
     16 CA        -25.1230   70.7900   -9.5990 C.3       6 GLP5        0.0000 
     17 CA        -29.7785   70.3405   -9.2260 C.3       3 GLC5        0.0000 
     18 CA        -30.8570   70.2160  -11.1760 C.3       6 GLP5        0.0000 
     19 O         -28.3970   70.5665   -9.6480 O.2       1 ALC1        0.0000 
     20 O         -28.9970   69.8410   -8.4060 O.2       7 ALL1        0.0000 
     21 O         -27.7970   71.2920  -10.8900 O.2       4 ALP1        0.0000 
     22 O         -29.4845   68.4410   -8.7655 O.2       1 ALC1        0.0000 
     23 O         -29.9720   67.0410   -9.1250 O.2       4 ALP1        0.0000 
     24 N         -26.9955   72.1775   -8.1925 N.am      2 SEC2        0.0000 
     25 N         -27.7560   71.4180   -7.2360 N.am      8 SEL2        0.0000 
     26 N         -26.2350   72.9370   -9.1490 N.am      5 SEP2        0.0000 
     27 CA        -27.3060   73.5215   -7.1400 C.3       3 GLC5        0.0000 
     28 CA        -27.4710   72.0510   -6.0220 C.3       9 GLL5        0.0000 
     29 CA        -27.1410   74.9920   -8.2580 C.3       6 GLP5        0.0000 
     30 CA        -26.2970   71.4205   -7.8105 C.3       3 GLC5        0.0000 
     31 N         -34.7620   63.7510    0.7805 N.am      2 SEC2        0.0000 
     32 N         -34.3600   64.6960   -0.2170 N.am      8 SEL2        0.0000 
     33 N         -35.1640   62.8060    1.7780 N.am      5 SEP2        0.0000 
     34 N         -35.0145   65.6395    0.9465 N.am      2 SEC2        0.0000 
     35 N         -35.6690   66.5830    2.1100 N.am      5 SEP2        0.0000 
     36 CA        -32.6125   64.7815    1.8080 C.3       3 GLC5        0.0000 
     37 CA        -31.9450   63.2570    0.8790 C.3       9 GLL5        0.0000 
     38 CA        -33.2800   66.3060    2.7370 C.3       6 GLP5        0.0000 
     39 CA        -30.0590   61.3155    1.9400 C.3       3 GLC5        0.0000 
     40 CA        -30.4520   63.0180    1.1420 C.3       9 GLL5        0.0000 
     41 CA        -29.6660   59.6130    2.7380 C.3       6 GLP5        0.0000 
     42 CA        -31.4805   65.3175    1.8395 C.3       3 GLC5        0.0000 
     43 CA        -29.6810   64.3290    0.9420 C.3       9 GLL5        0.0000 
     44 O         -26.8950   64.6935   -1.4150 O.2       1 ALC1        0.0000 
     45 O         -27.5140   64.7230   -0.1190 O.2       7 ALL1        0.0000 
     46 O         -26.2760   64.6640   -2.7110 O.2       4 ALP1        0.0000 
     47 CA        -27.9110   62.3930    1.9600 C.3       3 GLC5        0.0000 
     48 CA        -28.5730   62.5440   -0.0970 C.3       9 GLL5        0.0000 
     49 CA        -27.2490   62.2420    4.0170 C.3       6 GLP5        0.0000 
     50 CA        -29.1195   61.0785    1.3205 C.3       3 GLC5        0.0000 
     51 CA        -25.1280   62.6910   -1.8485 C.3       3 GLC5        0.0000 
     52 CA        -26.6290   61.4620   -1.2270 C.3       9 GLL5        0.0000 
     53 CA        -23.6270   63.9200   -2.4700 C.3       6 GLP5        0.0000 
     54 N         -23.0225   61.6255   -0.6625 N.am      2 SEC2        0.0000 
     55 N         -24.0420   60.5790   -1.1950 N.am      8 SEL2        0.0000 
     56 N         -22.0030   62.6720   -0.1300 N.am      5 SEP2        0.0000 
     57 CA        -28.3000   67.8715   -3.1825 C.3       3 GLC5        0.0000 
     58 CA        -29.3780   67.6670   -1.9520 C.3       9 GLL5        0.0000 
     59 CA        -27.2780   67.4280   -4.8290 C.3       6 GLP5        0.0000 
     60 CA        -32.5540   69.2445   -2.0157 C.3       3 GLC5        0.0000 
     61 CA        -31.1600   70.1810   -1.9290 C.3       9 GLL5        0.0000 
     62 CA        -34.2260   68.6270   -2.7380 C.3       6 GLP5        0.0000 
     63 CA        -31.6002   71.3995   -3.6625 C.3       3 GLC5        0.0000 
     64 CA        -32.6700   72.4150   -5.0180 C.3       6 GLP5        0.0000 
     65 CA        -30.4973   71.9803   -1.3206 C.3       3 GLC5        0.0000 
     66 CA        -29.9010   70.5870   -2.6850 C.3       9 GLL5        0.0000 
     67 CA        -30.6030   73.7360   -0.6520 C.3       6 GLP5        0.0000 
     68 CA        -30.9633   71.4042   -5.3090 C.3       3 GLC5        0.0000 
     69 CA        -29.3850   70.1000   -6.1880 C.3       9 GLL5        0.0000 
     70 CA        -28.1816   68.9564   -5.3505 C.3       3 GLC5        0.0000 
     71 CA        -29.1280   70.6870   -5.0120 C.3       9 GLL5        0.0000 
     72 CA        -32.2653   61.3772    1.3502 C.3       3 GLC5        0.0000 
     73 CA        -33.3320   59.6170    1.6900 C.3       6 GLP5        0.0000 
     74 CA        -28.6578   62.9577    2.5295 C.3       3 GLC5        0.0000 
     75 CA        -25.3222   62.3852   -3.4027 C.3       3 GLC5        0.0000 
     76 CA        -26.0040   60.8910   -2.3430 C.3       9 GLL5        0.0000 
     77 CA        -24.2840   63.9200   -3.8600 C.3       6 GLP5        0.0000 
     78 CA        -28.0502   63.2545   -4.0885 C.3       3 GLC5        0.0000 
     79 CA        -28.0310   61.2810   -3.6430 C.3       9 GLL5        0.0000 
     80 CA        -27.7540   64.9440   -5.0890 C.3       6 GLP5        0.0000 
     81 CA        -29.6037   62.3020   -4.6680 C.3       3 GLC5        0.0000 
     82 CA        -30.8610   63.0390   -6.2480 C.3       6 GLP5        0.0000 
@<TRIPOS>BOND
@<TRIPOS>SUBSTRUCTURE
     1 ALC1        6 GROUP        1 X    ALC  0     ROOT ALC X 1
     2 SEC2        1 GROUP        1 X    SEC  0     **** SEC X 2
     3 GLC5       12 GROUP        1 X    GLC  0     **** GLC X 6
     4 ALP1        8 GROUP        1 Y    ALP  0     ROOT ALP Y 8
     5 SEP2        3 GROUP        1 Y    SEP  0     **** SEP Y 9
     6 GLP5       14 GROUP        1 Y    GLP  0     **** GLP Y 13
     7 ALL1        7 GROUP        1 Z    ALL  0     ROOT ALL Z 15
     8 SEL2        2 GROUP        1 Z    SEL  0     **** SEL Z 16
     9 GLL5       13 GROUP        1 Z    GLL  0     **** GLL Z 20
@<TRIPOS>SET

