#    Name: 3te5_NAI_1_ligand
#    Modification time : Mon Mar 24 19:58:26 2014

@<TRIPOS>MOLECULE
3te5_NAI_1_ligand
   71    75     1     0     0
SMALL
NO_CHARGES


@<TRIPOS>ATOM
      1 PA        -31.3670   65.9410   -2.5540 P.3       1 NAI324      0.0000 
      2 O1A       -30.5940   64.7030   -2.7850 O.co2     1 NAI324      0.0000 
      3 O2A       -31.9620   66.6370   -3.7010 O.co2     1 NAI324      0.0000 
      4 O5B       -30.5200   66.9200   -1.5820 O.3       1 NAI324      0.0000 
      5 C5B       -29.3780   67.6670   -1.9520 C.3       1 NAI324      0.0000 
      6 C4B       -29.2660   68.9630   -1.1200 C.3       1 NAI324      0.0000 
      7 O4B       -28.7670   69.9790   -1.9970 O.3       1 NAI324      0.0000 
      8 C3B       -30.6040   69.5430   -0.6580 C.3       1 NAI324      0.0000 
      9 O3B       -30.3610   70.5530    0.3480 O.3       1 NAI324      0.0000 
     10 C2B       -31.1600   70.1810   -1.9290 C.3       1 NAI324      0.0000 
     11 O2B       -31.9650   71.3480   -1.6520 O.3       1 NAI324      0.0000 
     12 C1B       -29.9010   70.5870   -2.6850 C.3       1 NAI324      0.0000 
     13 N9A       -29.9320   70.1460   -4.1040 N.pl3     1 NAI324      0.0000 
     14 C8A       -30.6840   69.2250   -4.7090 C.2       1 NAI324      0.0000 
     15 N7A       -30.3490   69.1960   -5.9940 N.2       1 NAI324      0.0000 
     16 C5A       -29.3850   70.1000   -6.1880 C.ar      1 NAI324      0.0000 
     17 C6A       -28.7000   70.4650   -7.2760 C.ar      1 NAI324      0.0000 
     18 N6A       -28.9970   69.8410   -8.4060 N.pl3     1 NAI324      0.0000 
     19 N1A       -27.7560   71.4180   -7.2360 N.ar      1 NAI324      0.0000 
     20 C2A       -27.4710   72.0510   -6.0220 C.ar      1 NAI324      0.0000 
     21 N3A       -28.1930   71.6480   -4.9010 N.ar      1 NAI324      0.0000 
     22 C4A       -29.1280   70.6870   -5.0120 C.ar      1 NAI324      0.0000 
     23 O3        -32.5240   65.7380   -1.4490 O.3       1 NAI324      0.0000 
     24 PN        -33.2730   64.3720   -1.1670 P.3       1 NAI324      0.0000 
     25 O1N       -33.6020   63.7590   -2.4700 O.co2     1 NAI324      0.0000 
     26 O2N       -34.3600   64.6960   -0.2170 O.co2     1 NAI324      0.0000 
     27 O5D       -32.1360   63.4410   -0.5240 O.3       1 NAI324      0.0000 
     28 C5D       -31.9450   63.2570    0.8790 C.3       1 NAI324      0.0000 
     29 C4D       -30.4520   63.0180    1.1420 C.3       1 NAI324      0.0000 
     30 O4D       -29.9120   62.0800    0.1740 O.3       1 NAI324      0.0000 
     31 C3D       -29.6810   64.3290    0.9420 C.3       1 NAI324      0.0000 
     32 O3D       -28.9160   64.5960    2.1320 O.3       1 NAI324      0.0000 
     33 C2D       -28.7740   64.0390   -0.2440 C.3       1 NAI324      0.0000 
     34 O2D       -27.5140   64.7230   -0.1190 O.3       1 NAI324      0.0000 
     35 C1D       -28.5730   62.5440   -0.0970 C.3       1 NAI324      0.0000 
     36 N1N       -27.9550   61.9450   -1.3100 N.pl3     1 NAI324      0.0000 
     37 C2N       -26.6290   61.4620   -1.2270 C.2       1 NAI324      0.0000 
     38 C3N       -26.0040   60.8910   -2.3430 C.2       1 NAI324      0.0000 
     39 C7N       -24.6850   60.4220   -2.2340 C.2       1 NAI324      0.0000 
     40 O7N       -24.0420   60.5790   -1.1950 O.2       1 NAI324      0.0000 
     41 N7N       -24.1810   59.8030   -3.3060 N.am      1 NAI324      0.0000 
     42 C4N       -26.7170   60.8100   -3.5480 C.3       1 NAI324      0.0000 
     43 C5N       -28.0310   61.2810   -3.6430 C.2       1 NAI324      0.0000 
     44 C6N       -28.6620   61.8490   -2.5330 C.2       1 NAI324      0.0000 
     45 H         -29.4016   67.9663   -3.0127 H         1 NAI324      0.0000 
     46 H         -28.4434   67.1033   -1.7974 H         1 NAI324      0.0000 
     47 H         -28.6295   68.8252   -0.2993 H         1 NAI324      0.0000 
     48 H         -31.2265   68.7700   -0.3517 H         1 NAI324      0.0000 
     49 H         -31.6605   69.4415   -2.4912 H         1 NAI324      0.0000 
     50 H         -29.8155   71.6636   -2.6361 H         1 NAI324      0.0000 
     51 H         -31.3587   68.6730   -4.2809 H         1 NAI324      0.0000 
     52 H         -28.8992   70.3779   -9.2439 H         1 NAI324      0.0000 
     53 H         -29.2921   68.8895   -8.3188 H         1 NAI324      0.0000 
     54 H         -26.7679   72.7726   -5.9630 H         1 NAI324      0.0000 
     55 H         -32.4908   62.3912    1.2560 H         1 NAI324      0.0000 
     56 H         -32.2460   64.1353    1.4514 H         1 NAI324      0.0000 
     57 H         -30.3086   62.6854    2.1335 H         1 NAI324      0.0000 
     58 H         -30.3613   65.0825    0.6923 H         1 NAI324      0.0000 
     59 H         -29.2921   64.2288   -1.1279 H         1 NAI324      0.0000 
     60 H         -27.9512   62.3932    0.7704 H         1 NAI324      0.0000 
     61 H         -26.1226   61.5332   -0.3353 H         1 NAI324      0.0000 
     62 H         -23.2588   59.4296   -3.2054 H         1 NAI324      0.0000 
     63 H         -24.7713   59.7689   -4.1124 H         1 NAI324      0.0000 
     64 H         -26.6899   59.7092   -3.9188 H         1 NAI324      0.0000 
     65 H         -26.0833   61.3075   -4.3852 H         1 NAI324      0.0000 
     66 H         -28.5357   61.2083   -4.5367 H         1 NAI324      0.0000 
     67 H         -29.6179   62.1919   -2.5944 H         1 NAI324      0.0000 
     68 H         -31.2530   70.7195    0.7681 H         1 NAI324      0.0000 
     69 H         -32.6155   71.0533   -0.9520 H         1 NAI324      0.0000 
     70 H         -27.9746   64.7093    1.8143 H         1 NAI324      0.0000 
     71 H         -27.3257   65.0872   -1.0311 H         1 NAI324      0.0000 
@<TRIPOS>BOND
     1    2    1 ar   
     2    3    1 ar   
     3    4    1 1    
     4   23    1 1    
     5    5    4 1    
     6    6    5 1    
     7   45    5 1    
     8   46    5 1    
     9    7    6 1    
    10    8    6 1    
    11   47    6 1    
    12   12    7 1    
    13    9    8 1    
    14   10    8 1    
    15   48    8 1    
    16   68    9 1    
    17   11   10 1    
    18   12   10 1    
    19   49   10 1    
    20   69   11 1    
    21   13   12 1    
    22   50   12 1    
    23   14   13 1    
    24   22   13 1    
    25   15   14 2    
    26   51   14 1    
    27   16   15 1    
    28   17   16 ar   
    29   22   16 ar   
    30   18   17 1    
    31   19   17 ar   
    32   52   18 1    
    33   53   18 1    
    34   20   19 ar   
    35   21   20 ar   
    36   54   20 1    
    37   22   21 ar   
    38   24   23 1    
    39   25   24 ar   
    40   26   24 ar   
    41   27   24 1    
    42   28   27 1    
    43   29   28 1    
    44   55   28 1    
    45   56   28 1    
    46   30   29 1    
    47   31   29 1    
    48   57   29 1    
    49   35   30 1    
    50   32   31 1    
    51   33   31 1    
    52   58   31 1    
    53   70   32 1    
    54   34   33 1    
    55   35   33 1    
    56   59   33 1    
    57   71   34 1    
    58   36   35 1    
    59   60   35 1    
    60   37   36 1    
    61   44   36 1    
    62   38   37 2    
    63   61   37 1    
    64   39   38 1    
    65   42   38 1    
    66   40   39 2    
    67   41   39 am   
    68   62   41 1    
    69   63   41 1    
    70   43   42 1    
    71   64   42 1    
    72   65   42 1    
    73   44   43 2    
    74   66   43 1    
    75   67   44 1    
@<TRIPOS>SUBSTRUCTURE
     1 NAI324      1 GROUP   
@<TRIPOS>SET

