#    Name: 3coz_54H_2_INTS_M
#    Modification time : Mon Mar 24 22:08:03 2014

@<TRIPOS>MOLECULE
3coz_54H_2_INTS_M
   76     0     9     0     0
SMALL
NO_CHARGES


@<TRIPOS>ATOM
      1 CA         -0.1145   -6.9495   38.9820 C.3       3 GLC5        0.0000 
      2 CA         -0.6250   -8.9800   39.5660 C.3       9 GLL5        0.0000 
      3 CA          0.3960   -4.9190   38.3980 C.3       6 GLP5        0.0000 
      4 CA         -0.5310   -7.7605   43.1340 C.3       3 GLC5        0.0000 
      5 CA         -0.7750   -9.5940   41.8560 C.3       9 GLL5        0.0000 
      6 CA         -0.2870   -5.9270   44.4120 C.3       6 GLP5        0.0000 
      7 CA         -2.4080   -9.2995   43.2545 C.3       3 GLC5        0.0000 
      8 CA         -4.0410   -9.0050   44.6530 C.3       6 GLP5        0.0000 
      9 N          -1.6190   -7.9670   43.4585 N.am      2 SEC2        0.0000 
     10 N          -1.2190   -8.3440   42.1100 N.am      8 SEL2        0.0000 
     11 N          -2.0190   -7.5900   44.8070 N.am      5 SEP2        0.0000 
     12 CA          0.6720   -7.9365   29.8815 C.3       3 GLC5        0.0000 
     13 CA          2.3250   -8.4050   31.0670 C.3       9 GLL5        0.0000 
     14 CA         -0.9810   -7.4680   28.6960 C.3       6 GLP5        0.0000 
     15 CA          2.1405   -6.6225   30.9630 C.3       3 GLC5        0.0000 
     16 CA          1.9560   -4.8400   30.8590 C.3       6 GLP5        0.0000 
     17 CA          0.4835   -8.7865   28.9650 C.3       3 GLC5        0.0000 
     18 CA          1.9480  -10.1050   29.2340 C.3       9 GLL5        0.0000 
     19 CA         -0.0190  -10.8335   30.0015 C.3       3 GLC5        0.0000 
     20 CA         -1.9860  -11.5620   30.7690 C.3       6 GLP5        0.0000 
     21 CA          1.9455  -12.2515   29.5965 C.3       3 GLC5        0.0000 
     22 CA          1.9430  -14.3980   29.9590 C.3       6 GLP5        0.0000 
     23 CA          2.7805  -12.5035   30.5130 C.3       3 GLC5        0.0000 
     24 CA          3.6180  -10.6090   31.0670 C.3       9 GLL5        0.0000 
     25 O           5.6405  -11.4250   30.7965 O.2       1 ALC1        0.0000 
     26 O           5.0470  -10.3030   31.3350 O.2       7 ALL1        0.0000 
     27 O           6.2340  -12.5470   30.2580 O.2       4 ALP1        0.0000 
     28 O           5.5910   -9.2080   32.0125 O.2       1 ALC1        0.0000 
     29 O           6.1350   -8.1130   32.6900 O.2       4 ALP1        0.0000 
     30 N           3.8400   -8.8055   33.6460 N.am      2 SEC2        0.0000 
     31 N           3.2590  -10.3820   33.4730 N.am      8 SEL2        0.0000 
     32 N           4.4210   -7.2290   33.8190 N.am      5 SEP2        0.0000 
     33 N          -0.4720  -13.4370   32.0950 N.am      2 SEC2        0.0000 
     34 N          -0.0360  -13.1660   33.4200 N.am      8 SEL2        0.0000 
     35 N          -0.9080  -13.7080   30.7700 N.am      5 SEP2        0.0000 
     36 CA         -1.1765  -10.9855   32.4350 C.3       3 GLC5        0.0000 
     37 CA         -0.3670  -10.4090   34.1010 C.3       9 GLL5        0.0000 
     38 N           0.5525   -5.8720   35.9415 N.am      2 SEC2        0.0000 
     39 N           0.7540   -6.9100   34.9470 N.am      8 SEL2        0.0000 
     40 N           0.3510   -4.8340   36.9360 N.am      5 SEP2        0.0000 
     41 O          -0.0600   -6.7605   33.7755 O.2       1 ALC1        0.0000 
     42 O           0.7540   -6.9100   34.9470 O.2       7 ALL1        0.0000 
     43 O          -0.8740   -6.6110   32.6040 O.2       4 ALP1        0.0000 
     44 N           1.1650   -6.3210   37.0690 N.am      2 SEC2        0.0000 
     45 N           1.9790   -7.8080   37.2020 N.am      8 SEL2        0.0000 
     46 O           3.0600   -8.5620   37.3620 O.2       1 ALC1        0.0000 
     47 O           1.9790   -7.8080   37.2020 O.2       7 ALL1        0.0000 
     48 O           4.1410   -9.3160   37.5220 O.2       4 ALP1        0.0000 
     49 CA         -1.3800  -10.4785   36.6150 C.3       3 GLC5        0.0000 
     50 CA         -0.2640   -8.7640   37.1230 C.3       9 GLL5        0.0000 
     51 CA         -2.4960  -12.1930   36.1070 C.3       6 GLP5        0.0000 
     52 CA         -1.5755   -7.4170   36.3220 C.3       3 GLC5        0.0000 
     53 CA         -2.8870   -6.0700   35.5210 C.3       6 GLP5        0.0000 
     54 CA         -2.7585   -9.0530   41.2000 C.3       3 GLC5        0.0000 
     55 CA         -1.3490   -7.4260   41.1440 C.3       9 GLL5        0.0000 
     56 CA         -4.1680  -10.6800   41.2560 C.3       6 GLP5        0.0000 
     57 CA         -2.4830   -6.6265   39.5060 C.3       3 GLC5        0.0000 
     58 CA         -3.6170   -5.8270   37.8680 C.3       6 GLP5        0.0000 
     59 CA         -0.4765   -6.1725   39.7710 C.3       3 GLC5        0.0000 
     60 CA          0.7370   -7.7750   41.2245 C.3       3 GLC5        0.0000 
     61 CA          2.8230   -8.1240   41.3050 C.3       6 GLP5        0.0000 
     62 CA         -0.8180   -6.6765   42.7780 C.3       3 GLC5        0.0000 
     63 CA         -3.0725   -7.6840   42.4875 C.3       3 GLC5        0.0000 
     64 CA         -4.7960   -7.9420   43.8310 C.3       6 GLP5        0.0000 
     65 O          -1.0160  -10.2710   44.3750 O.2       1 ALC1        0.0000 
     66 O          -0.6490  -10.4670   42.8730 O.2       7 ALL1        0.0000 
     67 O          -1.3830  -10.0750   45.8770 O.2       4 ALP1        0.0000 
     68 O          -0.0035  -11.7410   42.9095 O.2       1 ALC1        0.0000 
     69 O           0.6420  -13.0150   42.9460 O.2       4 ALP1        0.0000 
     70 CA         -2.4136  -10.1044   41.1058 C.3       3 GLC5        0.0000 
     71 CA         -0.4620   -9.9470   40.5440 C.3       9 GLL5        0.0000 
     72 CA          1.0819   -8.8264   41.1303 C.3       3 GLC5        0.0000 
     73 CA         -1.4518  -10.9552   35.2860 C.3       3 GLC5        0.0000 
     74 CA         -0.4480   -9.0260   34.8290 C.3       9 GLL5        0.0000 
     75 CA         -1.3300   -7.3763   35.2387 C.3       3 GLC5        0.0000 
     76 CA          0.4205   -6.8367   37.6155 C.3       3 GLC5        0.0000 
@<TRIPOS>BOND
@<TRIPOS>SUBSTRUCTURE
     1 ALC1       25 GROUP        1 X    ALC  0     ROOT ALC X 1
     2 SEC2        9 GROUP        1 X    SEC  0     **** SEC X 2
     3 GLC5        1 GROUP        1 X    GLC  0     **** GLC X 6
     4 ALP1       27 GROUP        1 Y    ALP  0     ROOT ALP Y 8
     5 SEP2       11 GROUP        1 Y    SEP  0     **** SEP Y 9
     6 GLP5        3 GROUP        1 Y    GLP  0     **** GLP Y 13
     7 ALL1       26 GROUP        1 Z    ALL  0     ROOT ALL Z 15
     8 SEL2       10 GROUP        1 Z    SEL  0     **** SEL Z 16
     9 GLL5        2 GROUP        1 Z    GLL  0     **** GLL Z 20
@<TRIPOS>SET

