#    Name: 3coz_54H_2_ligand
#    Modification time : Mon Mar 24 22:08:03 2014

@<TRIPOS>MOLECULE
3coz_54H_2_ligand
   54    56     1     0     0
SMALL
NO_CHARGES


@<TRIPOS>ATOM
      1 C4         -0.6250   -8.9800   39.5660 C.ar      1 54H402      0.0000 
      2 C5         -0.4620   -9.9470   40.5440 C.ar      1 54H402      0.0000 
      3 C6         -0.7750   -9.5940   41.8560 C.ar      1 54H402      0.0000 
      4 C8          0.1350  -10.7910   38.6320 C.2       1 54H402      0.0000 
      5 N1         -1.2190   -8.3440   42.1100 N.ar      1 54H402      0.0000 
      6 N3         -1.0690   -7.7440   39.8890 N.ar      1 54H402      0.0000 
      7 CG2         2.3250   -8.4050   31.0670 C.3       1 54H402      0.0000 
      8 CB          2.9640   -9.4980   30.2190 C.3       1 54H402      0.0000 
      9 CG1         1.9480  -10.1050   29.2340 C.3       1 54H402      0.0000 
     10 CA          3.6180  -10.6090   31.0670 C.3       1 54H402      0.0000 
     11 N           5.0470  -10.3030   31.3350 N.4       1 54H402      0.0000 
     12 C           2.9060  -10.9280   32.4180 C.2       1 54H402      0.0000 
     13 O           3.2590  -10.3820   33.4730 O.2       1 54H402      0.0000 
     14 NAP         1.9440  -11.8650   32.3430 N.pl3     1 54H402      0.0000 
     15 SBD         1.2060  -12.3160   33.6980 S.o2      1 54H402      0.0000 
     16 OAF         2.1660  -13.1430   34.4810 O.2       1 54H402      0.0000 
     17 OAG        -0.0360  -13.1660   33.4200 O.2       1 54H402      0.0000 
     18 O5'         0.8300  -11.1390   34.4880 O.3       1 54H402      0.0000 
     19 C5'        -0.3670  -10.4090   34.1010 C.3       1 54H402      0.0000 
     20 C4'        -0.4480   -9.0260   34.8290 C.3       1 54H402      0.0000 
     21 O4'        -0.9700   -9.4380   36.1210 O.3       1 54H402      0.0000 
     22 C3'         0.9020   -8.3390   35.0840 C.3       1 54H402      0.0000 
     23 O3'         0.7540   -6.9100   34.9470 O.3       1 54H402      0.0000 
     24 C2'         1.1540   -8.7450   36.5430 C.3       1 54H402      0.0000 
     25 O2'         1.9790   -7.8080   37.2020 O.3       1 54H402      0.0000 
     26 C1'        -0.2640   -8.7640   37.1230 C.3       1 54H402      0.0000 
     27 N9         -0.2560   -9.5180   38.4010 N.pl3     1 54H402      0.0000 
     28 N7         -0.0040  -11.0690   39.9420 N.2       1 54H402      0.0000 
     29 C2         -1.3490   -7.4260   41.1440 C.ar      1 54H402      0.0000 
     30 N6         -0.6490  -10.4670   42.8730 N.pl3     1 54H402      0.0000 
     31 H           0.4644  -11.4068   37.9564 H         1 54H402      0.0000 
     32 H           3.7615   -9.0377   29.6131 H         1 54H402      0.0000 
     33 H           3.5872  -11.5446   30.4689 H         1 54H402      0.0000 
     34 H           1.6126  -12.3368   31.5317 H         1 54H402      0.0000 
     35 H          -1.2768  -10.9627   34.3574 H         1 54H402      0.0000 
     36 H          -0.3859  -10.2087   33.0241 H         1 54H402      0.0000 
     37 H          -1.1209   -8.4119   34.3354 H         1 54H402      0.0000 
     38 H           1.6192   -8.7748   34.4769 H         1 54H402      0.0000 
     39 H           1.5202   -9.7390   36.5427 H         1 54H402      0.0000 
     40 H          -0.5740   -7.7704   37.2487 H         1 54H402      0.0000 
     41 H          -1.6720   -6.4599   41.3870 H         1 54H402      0.0000 
     42 H          -0.2942  -11.3712   42.6353 H         1 54H402      0.0000 
     43 H          -0.9214  -10.1335   43.7755 H         1 54H402      0.0000 
     44 H           2.9768   -8.0071   31.7126 H         1 54H402      0.0000 
     45 H           1.9748   -7.6558   30.5048 H         1 54H402      0.0000 
     46 H           1.5562   -8.7530   31.6036 H         1 54H402      0.0000 
     47 H           2.3585  -10.8239   28.6730 H         1 54H402      0.0000 
     48 H           1.1684  -10.5132   29.7091 H         1 54H402      0.0000 
     49 H           1.5819   -9.4172   28.6072 H         1 54H402      0.0000 
     50 H           5.5924  -11.1351   31.4359 H         1 54H402      0.0000 
     51 H           5.4581   -9.7711   30.5947 H         1 54H402      0.0000 
     52 H           5.1621   -9.7733   32.1754 H         1 54H402      0.0000 
     53 H          -0.1208   -6.7842   34.4793 H         1 54H402      0.0000 
     54 H           2.8287   -8.2999   37.3917 H         1 54H402      0.0000 
@<TRIPOS>BOND
     1    2    1 ar   
     2    6    1 ar   
     3   27    1 1    
     4    3    2 ar   
     5   28    2 1    
     6    5    3 ar   
     7   30    3 1    
     8   27    4 1    
     9   28    4 2    
    10   31    4 1    
    11   29    5 ar   
    12   29    6 ar   
    13    8    7 1    
    14   44    7 1    
    15   45    7 1    
    16   46    7 1    
    17    9    8 1    
    18   10    8 1    
    19   32    8 1    
    20   47    9 1    
    21   48    9 1    
    22   49    9 1    
    23   11   10 1    
    24   12   10 1    
    25   33   10 1    
    26   50   11 1    
    27   51   11 1    
    28   52   11 1    
    29   13   12 2    
    30   14   12 am   
    31   15   14 1    
    32   34   14 1    
    33   16   15 2    
    34   17   15 2    
    35   18   15 1    
    36   19   18 1    
    37   20   19 1    
    38   35   19 1    
    39   36   19 1    
    40   21   20 1    
    41   22   20 1    
    42   37   20 1    
    43   26   21 1    
    44   23   22 1    
    45   24   22 1    
    46   38   22 1    
    47   53   23 1    
    48   25   24 1    
    49   26   24 1    
    50   39   24 1    
    51   54   25 1    
    52   27   26 1    
    53   40   26 1    
    54   41   29 1    
    55   42   30 1    
    56   43   30 1    
@<TRIPOS>SUBSTRUCTURE
     1 54H402      1 GROUP   
@<TRIPOS>SET

