#    Name: 2mjp_ANP_1_INTS_M
#    Modification time : Tue Mar 25 21:19:07 2014

@<TRIPOS>MOLECULE
2mjp_ANP_1_INTS_M
   38     0    12     0     0
SMALL
NO_CHARGES


@<TRIPOS>ATOM
      1 NZ         25.4315   15.5230   -6.3540 N.4       3 LYC4        0.0000 
      2 NZ         24.2490   15.6590   -7.0390 N.4      11 LYL4        0.0000 
      3 NZ         26.6140   15.3870   -5.6690 N.4       7 LYP4        0.0000 
      4 N          25.4315   15.5230   -6.3540 N.am      2 SEC2        0.0000 
      5 N          24.2490   15.6590   -7.0390 N.am     10 SEL2        0.0000 
      6 N          26.6140   15.3870   -5.6690 N.am      6 SEP2        0.0000 
      7 NZ         24.8490   15.9865   -5.3590 N.4       3 LYC4        0.0000 
      8 NZ         23.0840   16.5860   -5.0490 N.4      11 LYL4        0.0000 
      9 NZ         22.1080   10.2005   -3.4695 N.4       3 LYC4        0.0000 
     10 NZ         22.6540   11.8750   -4.1330 N.4      11 LYL4        0.0000 
     11 NZ         21.5620    8.5260   -2.8060 N.4       7 LYP4        0.0000 
     12 N          19.7360   13.7035   -3.9820 N.am      2 SEC2        0.0000 
     13 N          20.9300   13.7520   -4.4110 N.am     10 SEL2        0.0000 
     14 N          18.5420   13.6550   -3.5530 N.am      6 SEP2        0.0000 
     15 NZ         25.8540   15.1980   -4.2330 N.4       3 LYC4        0.0000 
     16 NZ         25.0940   15.0090   -2.7970 N.4      11 LYL4        0.0000 
     17 N          25.8540   15.1980   -4.2330 N.am      2 SEC2        0.0000 
     18 N          25.0940   15.0090   -2.7970 N.am     10 SEL2        0.0000 
     19 CA         25.7180   13.0600   -0.5390 C.3       4 GLC5        0.0000 
     20 CA         23.9430   11.8190   -0.8670 C.3      12 GLL5        0.0000 
     21 CA         27.4930   14.3010   -0.2110 C.3       8 GLP5        0.0000 
     22 O          22.0350    7.5260   -0.3415 O.2       1 ALC1        0.0000 
     23 O          23.0240    8.5630   -0.8360 O.2       9 ALL1        0.0000 
     24 O          21.0460    6.4890    0.1530 O.2       5 ALP1        0.0000 
     25 CA         27.1195   11.2135    0.3660 C.3       4 GLC5        0.0000 
     26 CA         26.1370    9.2330    0.3710 C.3      12 GLL5        0.0000 
     27 CA         28.1020   13.1940    0.3610 C.3       8 GLP5        0.0000 
     28 N          29.5840    8.0825   -0.0580 N.am      2 SEC2        0.0000 
     29 N          29.1890    9.6870    0.3100 N.am     10 SEL2        0.0000 
     30 N          29.9790    6.4780   -0.4260 N.am      6 SEP2        0.0000 
     31 CA         22.1906   10.3042   -1.0476 C.3       4 GLC5        0.0000 
     32 CA         24.4840   10.4070   -0.9000 C.3      12 GLL5        0.0000 
     33 CA         20.3980   10.3370   -1.6580 C.3       8 GLP5        0.0000 
     34 CA         26.7343    7.5672    1.4432 C.3       4 GLC5        0.0000 
     35 CA         24.7920    8.7000    0.7940 C.3      12 GLL5        0.0000 
     36 CA         28.0040    6.1680    2.3040 C.3       8 GLP5        0.0000 
     37 CA         28.3017    8.0890    2.1915 C.3       4 GLC5        0.0000 
     38 CA         28.3890    9.8320    1.4420 C.3      12 GLL5        0.0000 
@<TRIPOS>BOND
@<TRIPOS>SUBSTRUCTURE
     1 ALC1       22 GROUP        1 X    ALC  0     ROOT ALC X 1
     2 SEC2        4 GROUP        1 X    SEC  0     **** SEC X 2
     3 LYC4        1 GROUP        1 X    LYC  0     **** LYC X 4
     4 GLC5       19 GROUP        1 X    GLC  0     **** GLC X 6
     5 ALP1       24 GROUP        1 Y    ALP  0     ROOT ALP Y 8
     6 SEP2        6 GROUP        1 Y    SEP  0     **** SEP Y 9
     7 LYP4        3 GROUP        1 Y    LYP  0     **** LYP Y 11
     8 GLP5       21 GROUP        1 Y    GLP  0     **** GLP Y 13
     9 ALL1       23 GROUP        1 Z    ALL  0     ROOT ALL Z 15
    10 SEL2        5 GROUP        1 Z    SEL  0     **** SEL Z 16
    11 LYL4        2 GROUP        1 Z    LYL  0     **** LYL Z 18
    12 GLL5       20 GROUP        1 Z    GLL  0     **** GLL Z 20
@<TRIPOS>SET

