#    Name: 2mjp_ANP_1_ligand
#    Modification time : Tue Mar 25 21:19:07 2014

@<TRIPOS>MOLECULE
2mjp_ANP_1_ligand
   43    45     1     0     0
SMALL
NO_CHARGES


@<TRIPOS>ATOM
      1 PG         23.1120   15.4960   -6.0720 P.3       1 ANP500      0.0000 
      2 O1G        21.7820   15.3180   -6.7150 O.co2     1 ANP500      0.0000 
      3 O2G        24.2490   15.6590   -7.0390 O.co2     1 ANP500      0.0000 
      4 O3G        23.0840   16.5860   -5.0490 O.co2     1 ANP500      0.0000 
      5 PB         22.3390   13.3310   -4.1250 P.3       1 ANP500      0.0000 
      6 O1B        22.6540   11.8750   -4.1330 O.co2     1 ANP500      0.0000 
      7 O2B        20.9300   13.7520   -4.4110 O.co2     1 ANP500      0.0000 
      8 N3B        23.3510   14.1160   -5.2060 N.4       1 ANP500      0.0000 
      9 PA         24.1560   14.2690   -1.8900 P.3       1 ANP500      0.0000 
     10 O1A        25.0940   15.0090   -2.7970 O.co2     1 ANP500      0.0000 
     11 O2A        23.8150   14.8580   -0.5640 O.co2     1 ANP500      0.0000 
     12 O3A        22.8010   13.9450   -2.7170 O.3       1 ANP500      0.0000 
     13 O5'        24.6420   12.7530   -1.7370 O.3       1 ANP500      0.0000 
     14 C5'        23.9430   11.8190   -0.8670 C.3       1 ANP500      0.0000 
     15 C4'        24.4840   10.4070   -0.9000 C.3       1 ANP500      0.0000 
     16 O4'        25.9000   10.2680   -0.6190 O.3       1 ANP500      0.0000 
     17 C3'        23.7530    9.4300    0.0090 C.3       1 ANP500      0.0000 
     18 O3'        23.0240    8.5630   -0.8360 O.3       1 ANP500      0.0000 
     19 C2'        24.7920    8.7000    0.7940 C.3       1 ANP500      0.0000 
     20 O2'        24.7950    7.2850    0.5510 O.3       1 ANP500      0.0000 
     21 C1'        26.1370    9.2330    0.3710 C.3       1 ANP500      0.0000 
     22 N9         27.0280    9.6510    1.5260 N.pl3     1 ANP500      0.0000 
     23 C8         26.7180    9.9120    2.8540 C.2       1 ANP500      0.0000 
     24 N7         27.7370   10.2370    3.6080 N.2       1 ANP500      0.0000 
     25 C5         28.8100   10.1880    2.7160 C.ar      1 ANP500      0.0000 
     26 C6         30.2410   10.4300    2.8650 C.ar      1 ANP500      0.0000 
     27 N6         30.7570   10.7700    4.0220 N.pl3     1 ANP500      0.0000 
     28 N1         31.0490   10.2960    1.7620 N.ar      1 ANP500      0.0000 
     29 C2         30.5000    9.9440    0.5830 C.ar      1 ANP500      0.0000 
     30 N3         29.1890    9.6870    0.3100 N.ar      1 ANP500      0.0000 
     31 C4         28.3890    9.8320    1.4420 C.ar      1 ANP500      0.0000 
     32 H          22.8612   11.7801   -1.1318 H         1 ANP500      0.0000 
     33 H          23.9751   12.1760    0.1882 H         1 ANP500      0.0000 
     34 H          24.3141   10.0088   -1.9458 H         1 ANP500      0.0000 
     35 H          23.1297    9.9929    0.6589 H         1 ANP500      0.0000 
     36 H          24.6710    8.9185    1.8408 H         1 ANP500      0.0000 
     37 H          26.6497    8.3799   -0.1522 H         1 ANP500      0.0000 
     38 H          25.7628    9.8449    3.1753 H         1 ANP500      0.0000 
     39 H          31.7425   10.9396    4.0315 H         1 ANP500      0.0000 
     40 H          30.1177   10.8285    4.7888 H         1 ANP500      0.0000 
     41 H          31.1874    9.8511   -0.2655 H         1 ANP500      0.0000 
     42 H          22.4521    8.0216   -0.2197 H         1 ANP500      0.0000 
     43 H          24.1265    7.1466   -0.1797 H         1 ANP500      0.0000 
@<TRIPOS>BOND
     1    2    1 ar   
     2    3    1 ar   
     3    4    1 ar   
     4    8    1 1    
     5    6    5 ar   
     6    7    5 ar   
     7    8    5 1    
     8   12    5 1    
     9   10    9 ar   
    10   11    9 ar   
    11   12    9 1    
    12   13    9 1    
    13   14   13 1    
    14   15   14 1    
    15   32   14 1    
    16   33   14 1    
    17   16   15 1    
    18   17   15 1    
    19   34   15 1    
    20   21   16 1    
    21   18   17 1    
    22   19   17 1    
    23   35   17 1    
    24   42   18 1    
    25   20   19 1    
    26   21   19 1    
    27   36   19 1    
    28   43   20 1    
    29   22   21 1    
    30   37   21 1    
    31   23   22 1    
    32   31   22 1    
    33   24   23 2    
    34   38   23 1    
    35   25   24 1    
    36   26   25 ar   
    37   31   25 ar   
    38   27   26 1    
    39   28   26 ar   
    40   39   27 1    
    41   40   27 1    
    42   29   28 ar   
    43   30   29 ar   
    44   41   29 1    
    45   31   30 ar   
@<TRIPOS>SUBSTRUCTURE
     1 ANP500      1 GROUP   
@<TRIPOS>SET

