#    Name: 4FJP_1_CAVITY_N1_6.mol2
#    Modification time : Mon Mar 10 20:02:51 2014

@<TRIPOS>MOLECULE
4FJP_1_CAVITY_N1_6.mol2
   89     0     6     0     0
SMALL
NO_CHARGES


@<TRIPOS>ATOM
      1 DU         17.1104   18.9832   14.4563 H         6 CUB7        0.0000 
      2 N          16.5624   18.7708   15.8364 N.2       2 ALA2        0.0000 
      3 N          16.0144   18.5585   17.2164 N.2       2 ALA2        0.0000 
      4 DU         15.8118   18.5159   13.8687 H         6 CUB7        0.0000 
      5 DU         15.2638   18.3035   15.2488 H         6 CUB7        0.0000 
      6 DU         14.7158   18.0912   16.6289 H         6 CUB7        0.0000 
      7 DU         13.9652   17.8362   14.6612 H         6 CUB7        0.0000 
      8 DU         13.4172   17.6239   16.0413 H         6 CUB7        0.0000 
      9 N          12.8692   17.4115   17.4214 N.2       2 ALA2        0.0000 
     10 DU         12.1186   17.1565   15.4537 H         6 CUB7        0.0000 
     11 N          11.5706   16.9442   16.8338 N.2       2 ALA2        0.0000 
     12 CA          8.4253   15.7972   17.0387 C.3       5 GLY6        0.0000 
     13 DU          7.6748   15.5422   15.0711 H         6 CUB7        0.0000 
     14 NZ          5.8281   14.8626   15.8636 N.2       3 LYS4        0.0000 
     15 CA         18.3741   17.8287   16.4109 C.3       5 GLY6        0.0000 
     16 CA         17.8261   17.6164   17.7909 C.3       5 GLY6        0.0000 
     17 O          18.1716   17.7861   13.0631 O.2       2 ALA2        0.0000 
     18 OG         17.6236   17.5737   14.4432 O.2       1 SER1        0.0000 
     19 DU         17.0755   17.3614   15.8233 H         6 CUB7        0.0000 
     20 CZ         16.5275   17.1491   17.2033 C.ar      4 PHE5        0.0000 
     21 OG         16.3250   17.1064   13.8556 O.2       1 SER1        0.0000 
     22 OG         15.7769   16.8941   15.2357 O.2       1 SER1        0.0000 
     23 CZ         15.2289   16.6817   16.6158 C.ar      4 PHE5        0.0000 
     24 OG         15.0264   16.6391   13.2681 O.2       1 SER1        0.0000 
     25 OG         14.4783   16.4268   14.6481 O.2       1 SER1        0.0000 
     26 N          13.9303   16.2144   16.0282 N.2       2 ALA2        0.0000 
     27 N          13.7278   16.1718   12.6805 N.2       2 ALA2        0.0000 
     28 DU         13.1797   15.9594   14.0606 H         6 CUB7        0.0000 
     29 N          12.6317   15.7471   15.4406 N.2       2 ALA2        0.0000 
     30 DU         11.3331   15.2798   14.8531 H         6 CUB7        0.0000 
     31 N          10.7851   15.0674   16.2331 N.2       2 ALA2        0.0000 
     32 DU         10.0345   14.8124   14.2655 H         6 CUB7        0.0000 
     33 N           9.4865   14.6001   15.6456 N.2       2 ALA2        0.0000 
     34 N           8.9385   14.3878   17.0256 N.2       2 ALA2        0.0000 
     35 DU          8.7359   14.3451   13.6779 H         6 CUB7        0.0000 
     36 DU          8.1879   14.1328   15.0580 H         6 CUB7        0.0000 
     37 N           7.6399   13.9204   16.4381 N.2       2 ALA2        0.0000 
     38 CA          7.0919   13.7081   17.8181 C.3       5 GLY6        0.0000 
     39 DU          7.4373   13.8778   13.0903 H         6 CUB7        0.0000 
     40 DU          6.8893   13.6654   14.4704 H         6 CUB7        0.0000 
     41 NZ          6.3413   13.4531   15.8505 N.2       3 LYS4        0.0000 
     42 CA          5.7933   13.2408   17.2305 C.3       5 GLY6        0.0000 
     43 NZ          5.5907   13.1981   13.8828 N.2       3 LYS4        0.0000 
     44 NZ          5.0427   12.9858   15.2629 N.2       3 LYS4        0.0000 
     45 CA         19.4353   16.6316   15.0177 C.3       5 GLY6        0.0000 
     46 OG         18.1367   16.1643   14.4301 O.2       1 SER1        0.0000 
     47 CZ         17.5887   15.9520   15.8102 C.ar      4 PHE5        0.0000 
     48 OG         16.2901   15.4846   15.2226 O.2       1 SER1        0.0000 
     49 OG         14.9915   15.0173   14.6350 O.2       1 SER1        0.0000 
     50 N          14.4435   14.8050   16.0151 N.2       2 ALA2        0.0000 
     51 OG         14.2409   14.7623   12.6674 O.2       1 SER1        0.0000 
     52 OG         13.6929   14.5500   14.0475 O.2       1 SER1        0.0000 
     53 N          13.1449   14.3377   15.4275 N.2       2 ALA2        0.0000 
     54 N          13.4903   14.5073   10.6998 N.2       2 ALA2        0.0000 
     55 O          12.9423   14.2950   12.0798 O.2       2 ALA2        0.0000 
     56 DU         12.3943   14.0827   13.4599 H         6 CUB7        0.0000 
     57 CA         11.8463   13.8703   14.8400 C.3       5 GLY6        0.0000 
     58 N          11.2982   13.6580   16.2200 N.2       2 ALA2        0.0000 
     59 N          11.6437   13.8277   11.4923 N.2       2 ALA2        0.0000 
     60 DU         11.0957   13.6153   12.8723 H         6 CUB7        0.0000 
     61 DU         10.5477   13.4030   14.2524 H         6 CUB7        0.0000 
     62 N           9.9996   13.1907   15.6325 N.2       2 ALA2        0.0000 
     63 CA         10.3451   13.3603   10.9047 C.3       5 GLY6        0.0000 
     64 CA          9.7971   13.1480   12.2848 C.3       5 GLY6        0.0000 
     65 N           9.2491   12.9357   13.6648 N.2       2 ALA2        0.0000 
     66 N           8.7010   12.7233   15.0449 N.2       2 ALA2        0.0000 
     67 N           8.1530   12.5110   16.4250 N.2       2 ALA2        0.0000 
     68 CA          8.4985   12.6807   11.6972 C.3       5 GLY6        0.0000 
     69 N           7.9505   12.4683   13.0773 N.2       2 ALA2        0.0000 
     70 N           7.4024   12.2560   14.4573 N.2       2 ALA2        0.0000 
     71 CA          6.8544   12.0437   15.8374 C.3       5 GLY6        0.0000 
     72 CA          6.3064   11.8313   17.2175 C.3       5 GLY6        0.0000 
     73 N           6.6519   12.0010   12.4897 N.2       2 ALA2        0.0000 
     74 N           6.1038   11.7887   13.8698 N.2       2 ALA2        0.0000 
     75 NZ          5.5558   11.5763   15.2498 N.2       3 LYS4        0.0000 
     76 OG         15.5046   13.6079   14.6220 O.2       1 SER1        0.0000 
     77 OG         14.7540   13.3529   12.6543 O.2       1 SER1        0.0000 
     78 CA         14.2060   13.1405   14.0344 C.3       5 GLY6        0.0000 
     79 CA         13.6580   12.9282   15.4145 C.3       5 GLY6        0.0000 
     80 O          13.4554   12.8856   12.0667 O.2       2 ALA2        0.0000 
     81 CA         12.9074   12.6732   13.4468 C.3       5 GLY6        0.0000 
     82 N          11.6088   12.2059   12.8592 N.2       2 ALA2        0.0000 
     83 CA         11.0608   11.9936   14.2393 C.3       5 GLY6        0.0000 
     84 CA         10.5128   11.7812   15.6194 C.3       5 GLY6        0.0000 
     85 CA         10.3102   11.7386   12.2717 C.3       5 GLY6        0.0000 
     86 N           9.7622   11.5262   13.6517 N.2       2 ALA2        0.0000 
     87 N           9.2142   11.3139   15.0318 N.2       2 ALA2        0.0000 
     88 N           8.6661   11.1016   16.4119 N.2       2 ALA2        0.0000 
     89 N           7.3675   10.6342   15.8243 N.2       2 ALA2        0.0000 
@<TRIPOS>BOND
@<TRIPOS>SUBSTRUCTURE
     1 SER1       18 GROUP   
     2 ALA2        2 GROUP   
     3 LYS4       14 GROUP   
     4 PHE5       20 GROUP   
     5 GLY6       12 GROUP   
     6 CUB7        1 GROUP   
@<TRIPOS>SET

