#    Name: 4fjp_NPS_1_ligand
#    Modification time : Mon Mar 24 20:07:04 2014

@<TRIPOS>MOLECULE
4fjp_NPS_1_ligand
   30    31     1     0     0
SMALL
NO_CHARGES


@<TRIPOS>ATOM
      1 C1          8.8030   16.9140   16.1930 C.ar      1 NPS711      0.0000 
      2 O2          7.6100   17.4210   16.6370 O.3       1 NPS711      0.0000 
      3 C2          9.9860   17.2850   16.8300 C.ar      1 NPS711      0.0000 
      4 C14        13.7870   13.9800   13.3240 C.3       1 NPS711      0.0000 
      5 C3         11.2200   16.7950   16.4120 C.ar      1 NPS711      0.0000 
      6 C4         11.2790   15.9180   15.3380 C.ar      1 NPS711      0.0000 
      7 C5         10.0230   15.5230   14.6580 C.ar      1 NPS711      0.0000 
      8 C6          8.8160   16.0380   15.1110 C.ar      1 NPS711      0.0000 
      9 C7         12.4860   15.4040   14.8850 C.ar      1 NPS711      0.0000 
     10 C8         12.4990   14.5270   13.8040 C.ar      1 NPS711      0.0000 
     11 C10        13.5250   12.7960   12.4010 C.3       1 NPS711      0.0000 
     12 C13        10.0820   14.6460   13.5840 C.ar      1 NPS711      0.0000 
     13 C11        11.3160   14.1560   13.1660 C.ar      1 NPS711      0.0000 
     14 C12         6.7570   18.1280   15.7400 C.3       1 NPS711      0.0000 
     15 O          14.2130   13.8160   15.6460 O.co2     1 NPS711      0.0000 
     16 OXT        15.6540   12.8810   14.2770 O.co2     1 NPS711      0.0000 
     17 C15        14.6070   13.5280   14.4960 C.2       1 NPS711      0.0000 
     18 H           9.9450   17.9407   17.6331 H         1 NPS711      0.0000 
     19 H          14.3258   14.7285   12.7785 H         1 NPS711      0.0000 
     20 H          12.0777   17.0809   16.8951 H         1 NPS711      0.0000 
     21 H           7.9367   15.7754   14.6518 H         1 NPS711      0.0000 
     22 H          13.3653   15.6679   15.3433 H         1 NPS711      0.0000 
     23 H           9.2243   14.3601   13.1009 H         1 NPS711      0.0000 
     24 H          11.3574   13.5008   12.3628 H         1 NPS711      0.0000 
     25 H          14.3754   12.3992   12.0554 H         1 NPS711      0.0000 
     26 H          13.0284   12.0641   12.8676 H         1 NPS711      0.0000 
     27 H          12.9797   13.0591   11.6051 H         1 NPS711      0.0000 
     28 H           7.2076   18.9344   15.3569 H         1 NPS711      0.0000 
     29 H           6.4732   17.5570   14.9696 H         1 NPS711      0.0000 
     30 H           5.9235   18.4452   16.1924 H         1 NPS711      0.0000 
@<TRIPOS>BOND
     1    2    1 1    
     2    3    1 ar   
     3    8    1 ar   
     4   14    2 1    
     5    5    3 ar   
     6   18    3 1    
     7   10    4 1    
     8   11    4 1    
     9   17    4 1    
    10   19    4 1    
    11    6    5 ar   
    12   20    5 1    
    13    7    6 ar   
    14    9    6 ar   
    15    8    7 ar   
    16   12    7 ar   
    17   21    8 1    
    18   10    9 ar   
    19   22    9 1    
    20   13   10 ar   
    21   25   11 1    
    22   26   11 1    
    23   27   11 1    
    24   13   12 ar   
    25   23   12 1    
    26   24   13 1    
    27   28   14 1    
    28   29   14 1    
    29   30   14 1    
    30   17   15 ar   
    31   17   16 ar   
@<TRIPOS>SUBSTRUCTURE
     1 NPS711      1 GROUP   
@<TRIPOS>SET

