#    Name: 4a4x_JUP_1_INTS_M
#    Modification time : Tue Mar 25 04:56:21 2014

@<TRIPOS>MOLECULE
4a4x_JUP_1_INTS_M
   60     0     9     0     0
SMALL
NO_CHARGES


@<TRIPOS>ATOM
      1 CA         -0.3515  -11.7745   17.0000 C.3       3 GLC5        0.0000 
      2 CA          1.2240  -11.2850   16.2510 C.3       9 GLL5        0.0000 
      3 CA         -1.9270  -12.2640   17.7490 C.3       6 GLP5        0.0000 
      4 CA         -1.5435   -7.3420    4.2195 C.3       3 GLC5        0.0000 
      5 CA         -2.1770   -9.4200    3.8330 C.3       9 GLL5        0.0000 
      6 CA         -0.9100   -5.2640    4.6060 C.3       6 GLP5        0.0000 
      7 CA          0.4845   -5.5410    9.1950 C.3       3 GLC5        0.0000 
      8 CA          1.5100   -7.2860    8.4460 C.3       9 GLL5        0.0000 
      9 CA         -0.5410   -3.7960    9.9440 C.3       6 GLP5        0.0000 
     10 CA          2.9820   -6.4320    7.3515 C.3       3 GLC5        0.0000 
     11 CA          4.4540   -5.5780    6.2570 C.3       6 GLP5        0.0000 
     12 N           2.8275   -5.5330    8.1090 N.am      2 SEC2        0.0000 
     13 N           2.0900   -6.2920    9.1310 N.am      8 SEL2        0.0000 
     14 N           3.5650   -4.7740    7.0870 N.am      5 SEP2        0.0000 
     15 CA          1.6125   -5.3110   11.2245 C.3       3 GLC5        0.0000 
     16 CA          2.7650   -6.5400   10.2860 C.3       9 GLL5        0.0000 
     17 CA          0.4600   -4.0820   12.1630 C.3       6 GLP5        0.0000 
     18 CA          4.0400   -6.4835    8.7215 C.3       3 GLC5        0.0000 
     19 CA          5.3150   -6.4270    7.1570 C.3       6 GLP5        0.0000 
     20 O           3.5235   -4.0940   10.6075 O.2       1 ALC1        0.0000 
     21 O           3.3890   -5.4350   10.9960 O.2       7 ALL1        0.0000 
     22 O           3.6580   -2.7530   10.2190 O.2       4 ALP1        0.0000 
     23 O           6.0360   -9.3585   17.8865 O.2       1 ALC1        0.0000 
     24 O           5.0290   -9.8180   16.6440 O.2       7 ALL1        0.0000 
     25 O           7.0430   -8.8990   19.1290 O.2       4 ALP1        0.0000 
     26 N           8.0540   -8.4870   16.3945 N.am      2 SEC2        0.0000 
     27 N           6.7150   -8.4760   15.8100 N.am      8 SEL2        0.0000 
     28 N           9.3930   -8.4980   16.9790 N.am      5 SEP2        0.0000 
     29 CA         -1.4010  -11.8485   15.9185 C.3       3 GLC5        0.0000 
     30 CA         -0.8750  -11.4330   14.0880 C.3       9 GLL5        0.0000 
     31 CA          0.3673   -9.5887   15.5815 C.3       3 GLC5        0.0000 
     32 CA          1.8890  -10.7920   14.9790 C.3       9 GLL5        0.0000 
     33 CA         -0.8220   -8.1390   15.5480 C.3       6 GLP5        0.0000 
     34 CA          3.2723  -12.1898   16.2555 C.3       3 GLC5        0.0000 
     35 CA          4.9880  -13.3410   16.8960 C.3       6 GLP5        0.0000 
     36 CA          3.9830   -6.2733   13.2882 C.3       3 GLC5        0.0000 
     37 CA          3.5500   -8.1440   11.9820 C.3       9 GLL5        0.0000 
     38 CA          3.7590   -4.6340   14.5010 C.3       6 GLP5        0.0000 
     39 CA         -0.5577   -7.6822    8.9510 C.3       3 GLC5        0.0000 
     40 CA         -2.6550   -7.3990    9.2320 C.3       6 GLP5        0.0000 
     41 CA          6.3150   -6.0335   12.8000 C.3       3 GLC5        0.0000 
     42 CA          4.8640   -7.6810   12.1690 C.3       9 GLL5        0.0000 
     43 CA          7.4270   -4.2550   12.8280 C.3       6 GLP5        0.0000 
     44 CA          4.4935   -6.4755   14.1915 C.3       3 GLC5        0.0000 
     45 CA          5.5420   -7.9430   13.3750 C.3       9 GLL5        0.0000 
     46 CA          4.3312  -14.0360   10.9217 C.3       3 GLC5        0.0000 
     47 CA          3.6150  -13.6560   13.0940 C.3       9 GLL5        0.0000 
     48 CA          5.5360  -14.2550    9.2300 C.3       6 GLP5        0.0000 
     49 CA         -1.2483   -9.6335   13.7926 C.3       3 GLC5        0.0000 
     50 CA         -2.2470   -8.4420   14.5560 C.3       6 GLP5        0.0000 
     51 CA         -1.5482  -10.9004   11.0882 C.3       3 GLC5        0.0000 
     52 CA         -0.1850  -11.4830   12.9270 C.3       9 GLL5        0.0000 
     53 CA         -2.6040  -10.3250    9.7950 C.3       6 GLP5        0.0000 
     54 CA         -2.4980  -12.0840   13.0889 C.3       3 GLC5        0.0000 
     55 CA         -0.9080  -12.1140   12.0240 C.3       9 GLL5        0.0000 
     56 CA         -4.2770  -12.3820   13.4120 C.3       6 GLP5        0.0000 
     57 CA         -1.1410  -10.6069    8.6155 C.3       3 GLC5        0.0000 
     58 CA          0.7490  -11.2700    8.6110 C.3       9 GLL5        0.0000 
     59 CA          2.0180  -11.1784    6.6390 C.3       3 GLC5        0.0000 
     60 CA          3.7140  -11.4680    5.8420 C.3       6 GLP5        0.0000 
@<TRIPOS>BOND
@<TRIPOS>SUBSTRUCTURE
     1 ALC1       20 GROUP        1 X    ALC  0     ROOT ALC X 1
     2 SEC2       12 GROUP        1 X    SEC  0     **** SEC X 2
     3 GLC5        1 GROUP        1 X    GLC  0     **** GLC X 6
     4 ALP1       22 GROUP        1 Y    ALP  0     ROOT ALP Y 8
     5 SEP2       14 GROUP        1 Y    SEP  0     **** SEP Y 9
     6 GLP5        3 GROUP        1 Y    GLP  0     **** GLP Y 13
     7 ALL1       21 GROUP        1 Z    ALL  0     ROOT ALL Z 15
     8 SEL2       13 GROUP        1 Z    SEL  0     **** SEL Z 16
     9 GLL5        2 GROUP        1 Z    GLL  0     **** GLL Z 20
@<TRIPOS>SET

