#    Name: 4a4x_JUP_1_ligand
#    Modification time : Tue Mar 25 04:56:21 2014

@<TRIPOS>MOLECULE
4a4x_JUP_1_ligand
   66    69     1     0     0
SMALL
NO_CHARGES


@<TRIPOS>ATOM
      1 C01         1.2240  -11.2850   16.2510 C.3       1 JUP1280     0.0000 
      2 C02         1.8890  -10.7920   14.9790 C.3       1 JUP1280     0.0000 
      3 O03         2.9760   -9.9420   15.2640 O.3       1 JUP1280     0.0000 
      4 C04         3.5980   -9.1700   14.2160 C.ar      1 JUP1280     0.0000 
      5 C05         2.8980   -8.8900   13.0130 C.ar      1 JUP1280     0.0000 
      6 C06         3.5500   -8.1440   11.9820 C.ar      1 JUP1280     0.0000 
      7 C07         2.8640   -7.8730   10.7770 C.ar      1 JUP1280     0.0000 
      8 C08         2.2650   -8.9380   10.0870 C.ar      1 JUP1280     0.0000 
      9 C09         1.5690   -8.6450    8.8940 C.ar      1 JUP1280     0.0000 
     10 C10         0.9680   -9.6480    8.1500 C.2       1 JUP1280     0.0000 
     11 C11         0.4320   -9.6100    6.8680 C.2       1 JUP1280     0.0000 
     12 C12        -0.1010  -10.7660    6.3910 C.2       1 JUP1280     0.0000 
     13 C13        -0.7060  -10.9090    4.9660 C.3       1 JUP1280     0.0000 
     14 N14        -2.1260  -10.4630    4.8300 N.4       1 JUP1280     0.0000 
     15 C15        -2.1770   -9.4200    3.8330 C.3       1 JUP1280     0.0000 
     16 C16        -2.9190  -11.6100    4.3570 C.3       1 JUP1280     0.0000 
     17 C17        -0.0600  -11.8900    7.2330 C.2       1 JUP1280     0.0000 
     18 S18         0.7490  -11.2700    8.6110 S.3       1 JUP1280     0.0000 
     19 C19         1.5100   -7.2860    8.4460 C.ar      1 JUP1280     0.0000 
     20 N20         2.0900   -6.2920    9.1310 N.ar      1 JUP1280     0.0000 
     21 C21         2.7650   -6.5400   10.2860 C.ar      1 JUP1280     0.0000 
     22 N22         3.3890   -5.4350   10.9960 N.pl3     1 JUP1280     0.0000 
     23 C23         4.8640   -7.6810   12.1690 C.ar      1 JUP1280     0.0000 
     24 C24         5.5420   -7.9430   13.3750 C.ar      1 JUP1280     0.0000 
     25 C25         4.9140   -8.6910   14.3890 C.ar      1 JUP1280     0.0000 
     26 C26         5.6360   -8.9640   15.6410 C.2       1 JUP1280     0.0000 
     27 N27         5.0290   -9.8180   16.6440 N.am      1 JUP1280     0.0000 
     28 O28         6.7150   -8.4760   15.8100 O.2       1 JUP1280     0.0000 
     29 C29         2.1380  -11.9040   13.9750 C.ar      1 JUP1280     0.0000 
     30 C30         3.3500  -12.6220   14.0180 C.ar      1 JUP1280     0.0000 
     31 C31         3.6150  -13.6560   13.0940 C.ar      1 JUP1280     0.0000 
     32 C32         2.6380  -13.9780   12.1330 C.ar      1 JUP1280     0.0000 
     33 C33         1.3850  -13.2650   12.1100 C.ar      1 JUP1280     0.0000 
     34 C34         1.1370  -12.2410   13.0240 C.ar      1 JUP1280     0.0000 
     35 C35        -0.1850  -11.4830   12.9270 C.3       1 JUP1280     0.0000 
     36 F36        -0.8750  -11.4330   14.0880 F         1 JUP1280     0.0000 
     37 F37         0.0310  -10.1920   12.5510 F         1 JUP1280     0.0000 
     38 F38        -0.9080  -12.1140   12.0240 F         1 JUP1280     0.0000 
     39 H           1.0659  -10.1372   14.4859 H         1 JUP1280     0.0000 
     40 H           1.9481   -9.2127   12.8822 H         1 JUP1280     0.0000 
     41 H           2.3274   -9.8841   10.4291 H         1 JUP1280     0.0000 
     42 H           0.4451   -8.7548    6.3272 H         1 JUP1280     0.0000 
     43 H          -0.6130  -11.9728    4.6673 H         1 JUP1280     0.0000 
     44 H          -0.0610  -10.3368    4.2688 H         1 JUP1280     0.0000 
     45 H          -2.4841  -10.1246    5.7667 H         1 JUP1280     0.0000 
     46 H          -0.3021  -12.7045    7.2410 H         1 JUP1280     0.0000 
     47 H           0.9924   -7.1067    7.5583 H         1 JUP1280     0.0000 
     48 H           3.2933   -4.5323   10.5764 H         1 JUP1280     0.0000 
     49 H           3.8623   -5.6689   11.8452 H         1 JUP1280     0.0000 
     50 H           5.3305   -7.1516   11.4267 H         1 JUP1280     0.0000 
     51 H           6.4917   -7.5895   13.5144 H         1 JUP1280     0.0000 
     52 H           4.1443  -10.2179   16.4044 H         1 JUP1280     0.0000 
     53 H           5.5454   -9.9362   17.4922 H         1 JUP1280     0.0000 
     54 H           4.0524  -12.3901   14.7326 H         1 JUP1280     0.0000 
     55 H           4.4961  -14.1579   13.1236 H         1 JUP1280     0.0000 
     56 H           2.8017  -14.7119   11.4477 H         1 JUP1280     0.0000 
     57 H           0.6865  -13.5274   11.4107 H         1 JUP1280     0.0000 
     58 H           1.8584  -11.8026   16.8252 H         1 JUP1280     0.0000 
     59 H           0.8768  -10.5288   16.8057 H         1 JUP1280     0.0000 
     60 H           0.4486  -11.8855   16.0560 H         1 JUP1280     0.0000 
     61 H          -1.6139   -8.6341    4.0885 H         1 JUP1280     0.0000 
     62 H          -1.8484   -9.7394    2.9442 H         1 JUP1280     0.0000 
     63 H          -3.1081   -9.0816    3.6969 H         1 JUP1280     0.0000 
     64 H          -2.5973  -11.9438    3.4709 H         1 JUP1280     0.0000 
     65 H          -2.8750  -12.3798    4.9938 H         1 JUP1280     0.0000 
     66 H          -3.8847  -11.3743    4.2484 H         1 JUP1280     0.0000 
@<TRIPOS>BOND
     1    2    1 1    
     2   58    1 1    
     3   59    1 1    
     4   60    1 1    
     5    3    2 1    
     6   29    2 1    
     7   39    2 1    
     8    4    3 1    
     9    5    4 ar   
    10   25    4 ar   
    11    6    5 ar   
    12   40    5 1    
    13    7    6 1    
    14   23    6 ar   
    15    8    7 ar   
    16   21    7 ar   
    17    9    8 ar   
    18   41    8 1    
    19   10    9 1    
    20   19    9 ar   
    21   11   10 2    
    22   18   10 1    
    23   12   11 1    
    24   42   11 1    
    25   13   12 1    
    26   17   12 2    
    27   14   13 1    
    28   43   13 1    
    29   44   13 1    
    30   15   14 1    
    31   16   14 1    
    32   45   14 1    
    33   61   15 1    
    34   62   15 1    
    35   63   15 1    
    36   64   16 1    
    37   65   16 1    
    38   66   16 1    
    39   18   17 1    
    40   46   17 1    
    41   20   19 ar   
    42   47   19 1    
    43   21   20 ar   
    44   22   21 1    
    45   48   22 1    
    46   49   22 1    
    47   24   23 ar   
    48   50   23 1    
    49   25   24 ar   
    50   51   24 1    
    51   26   25 1    
    52   27   26 am   
    53   28   26 2    
    54   52   27 1    
    55   53   27 1    
    56   30   29 ar   
    57   34   29 ar   
    58   31   30 ar   
    59   54   30 1    
    60   32   31 ar   
    61   55   31 1    
    62   33   32 ar   
    63   56   32 1    
    64   34   33 ar   
    65   57   33 1    
    66   35   34 1    
    67   36   35 1    
    68   37   35 1    
    69   38   35 1    
@<TRIPOS>SUBSTRUCTURE
     1 JUP1280     1 GROUP   
@<TRIPOS>SET

