#    Name: 3kxg_K6X_1_INTS_M
#    Modification time : Mon Mar 24 20:39:41 2014

@<TRIPOS>MOLECULE
3kxg_K6X_1_INTS_M
   53     0     3     0     0
SMALL
NO_CHARGES


@<TRIPOS>ATOM
      1 CA         22.2140    9.4860   21.0650 C.3       1 GLC5        0.0000 
      2 CA         21.6960    7.5300   20.4190 C.3       3 GLL5        0.0000 
      3 CA         22.7320   11.4420   21.7110 C.3       2 GLP5        0.0000 
      4 CA         21.1570   10.4125   21.3185 C.3       1 GLC5        0.0000 
      5 CA         19.5820    9.3830   20.9260 C.3       3 GLL5        0.0000 
      6 CA         18.0725   10.2575   20.1685 C.3       1 GLC5        0.0000 
      7 CA         16.5630   11.1320   19.4110 C.3       2 GLP5        0.0000 
      8 CA         18.1640    8.2420   21.9165 C.3       1 GLC5        0.0000 
      9 CA         16.7460    7.1010   22.9070 C.3       2 GLP5        0.0000 
     10 CA         19.0915    7.5340   20.5470 C.3       1 GLC5        0.0000 
     11 CA         18.6010    5.6850   20.1680 C.3       2 GLP5        0.0000 
     12 CA         21.3165   11.2840   19.1290 C.3       1 GLC5        0.0000 
     13 CA         20.2480   10.4790   17.9000 C.3       3 GLL5        0.0000 
     14 CA         22.3850   12.0890   20.3580 C.3       2 GLP5        0.0000 
     15 CA         20.1765   10.5690   15.8775 C.3       1 GLC5        0.0000 
     16 CA         20.1050   10.6590   13.8550 C.3       2 GLP5        0.0000 
     17 CA         18.4080   11.0470   17.9415 C.3       1 GLC5        0.0000 
     18 CA         16.5680   11.6150   17.9830 C.3       2 GLP5        0.0000 
     19 CA         21.3665    9.8730   15.0005 C.3       1 GLC5        0.0000 
     20 CA         22.6280    9.0870   16.1460 C.3       3 GLL5        0.0000 
     21 CA         23.8070   10.2750   15.5190 C.3       1 GLC5        0.0000 
     22 CA         24.9860   11.4630   14.8920 C.3       2 GLP5        0.0000 
     23 CA         20.9700    8.1370   15.6720 C.3       1 GLC5        0.0000 
     24 CA         19.3120    7.1870   15.1980 C.3       2 GLP5        0.0000 
     25 CA         25.7235    6.6010   18.4780 C.3       1 GLC5        0.0000 
     26 CA         24.3570    6.6050   17.3820 C.3       3 GLL5        0.0000 
     27 CA         27.0900    6.5970   19.5740 C.3       2 GLP5        0.0000 
     28 CA         26.1005    6.3280   16.0145 C.3       1 GLC5        0.0000 
     29 CA         27.8440    6.0510   14.6470 C.3       2 GLP5        0.0000 
     30 CA         22.7110    5.7340   17.1460 C.3       1 GLC5        0.0000 
     31 CA         21.0650    4.8630   16.9100 C.3       2 GLP5        0.0000 
     32 CA         22.4005    7.7900   23.6915 C.3       1 GLC5        0.0000 
     33 CA         20.4760    7.1370   23.2080 C.3       3 GLL5        0.0000 
     34 CA         24.3250    8.4430   24.1750 C.3       2 GLP5        0.0000 
     35 CA         18.6110    7.1190   23.0575 C.3       1 GLC5        0.0000 
     36 CA         19.5385    6.4110   21.6880 C.3       1 GLC5        0.0000 
     37 CA         21.7415   10.4518   19.8117 C.3       1 GLC5        0.0000 
     38 CA         20.9570    8.5850   19.9030 C.3       3 GLL5        0.0000 
     39 CA         19.6390    7.6348   18.9438 C.3       1 GLC5        0.0000 
     40 CA         21.2390    9.0440   18.6280 C.3       3 GLL5        0.0000 
     41 CA         18.1800    6.4550   18.6220 C.3       2 GLP5        0.0000 
     42 CA         20.4022    6.4570   20.1107 C.3       1 GLC5        0.0000 
     43 CA         22.7110    6.9280   19.6880 C.3       3 GLL5        0.0000 
     44 CA         21.6343    6.0460   18.4817 C.3       1 GLC5        0.0000 
     45 CA         23.5973    9.0663   19.2047 C.3       1 GLC5        0.0000 
     46 CA         24.3470   10.9690   19.3610 C.3       2 GLP5        0.0000 
     47 CA         24.1684    7.7420   20.0281 C.3       1 GLC5        0.0000 
     48 CA         22.9840    7.3990   18.4090 C.3       3 GLL5        0.0000 
     49 CA         25.7430    8.1700   20.8250 C.3       2 GLP5        0.0000 
     50 CA         21.8407    6.3943   17.5288 C.3       1 GLC5        0.0000 
     51 CA         23.3927    9.8692   18.1885 C.3       1 GLC5        0.0000 
     52 CA         22.2490    8.4520   17.8860 C.3       3 GLL5        0.0000 
     53 CA         20.0278    8.4743   16.7310 C.3       1 GLC5        0.0000 
@<TRIPOS>BOND
@<TRIPOS>SUBSTRUCTURE
     1 GLC5        1 GROUP        1 X    GLC  0     ROOT GLC X 6
     2 GLP5        3 GROUP        1 Y    GLP  0     ROOT GLP Y 13
     3 GLL5        2 GROUP        1 Z    GLL  0     ROOT GLL Z 20
@<TRIPOS>SET

