#    Name: 3kxg_K6X_1_ligand
#    Modification time : Mon Mar 24 20:39:41 2014

@<TRIPOS>MOLECULE
3kxg_K6X_1_ligand
   15    16     1     0     0
SMALL
NO_CHARGES


@<TRIPOS>ATOM
      1 C1         20.9570    8.5850   19.9030 C.ar      1 K6X1        0.0000 
      2 C2         21.6960    7.5300   20.4190 C.ar      1 K6X1        0.0000 
      3 C3         22.7110    6.9280   19.6880 C.ar      1 K6X1        0.0000 
      4 C4         22.9840    7.3990   18.4090 C.ar      1 K6X1        0.0000 
      5 C5         22.2490    8.4520   17.8860 C.ar      1 K6X1        0.0000 
      6 C6         21.2390    9.0440   18.6280 C.ar      1 K6X1        0.0000 
      7 BR13       19.5820    9.3830   20.9260 Br        1 K6X1        0.0000 
      8 BR15       20.2480   10.4790   17.9000 Br        1 K6X1        0.0000 
      9 BR17       22.6280    9.0870   16.1460 Br        1 K6X1        0.0000 
     10 BR19       24.3570    6.6050   17.3820 Br        1 K6X1        0.0000 
     11 N21        23.2630    5.9330   20.4270 N.pl3     1 K6X1        0.0000 
     12 N23        22.6460    5.8180   21.6940 N.2       1 K6X1        0.0000 
     13 C25        21.7100    6.7750   21.6840 C.2       1 K6X1        0.0000 
     14 BR28       20.4760    7.1370   23.2080 Br        1 K6X1        0.0000 
     15 H          23.9939    5.3532   20.1474 H         1 K6X1        0.0000 
@<TRIPOS>BOND
     1    2    1 ar   
     2    6    1 ar   
     3    7    1 1    
     4    3    2 ar   
     5   13    2 1    
     6    4    3 ar   
     7   11    3 1    
     8    5    4 ar   
     9   10    4 1    
    10    6    5 ar   
    11    9    5 1    
    12    8    6 1    
    13   12   11 1    
    14   15   11 1    
    15   13   12 2    
    16   14   13 1    
@<TRIPOS>SUBSTRUCTURE
     1 K6X1        1 GROUP   
@<TRIPOS>SET

