#    Name: 2fzg_EOB_2_INTS_M
#    Modification time : Tue Mar 25 13:16:52 2014

@<TRIPOS>MOLECULE
2fzg_EOB_2_INTS_M
   32     0     9     0     0
SMALL
NO_CHARGES


@<TRIPOS>ATOM
      1 NZ         71.2260   53.0045   46.4080 N.4       2 LYC4        0.0000 
      2 NZ         70.5800   52.9800   47.4930 N.4       8 LYL4        0.0000 
      3 NZ         71.1780   52.7510   44.2270 N.4       5 LYP4        0.0000 
      4 N          71.2260   53.0045   46.4080 N.am      1 SEC2        0.0000 
      5 N          70.5800   52.9800   47.4930 N.am      7 SEL2        0.0000 
      6 N          71.8720   53.0290   45.3230 N.am      4 SEP2        0.0000 
      7 CA         69.8445   53.6065   55.0825 C.3       3 GLC5        0.0000 
      8 CA         69.6980   51.7320   53.8990 C.3       9 GLL5        0.0000 
      9 CA         69.9910   55.4810   56.2660 C.3       6 GLP5        0.0000 
     10 CA         70.1360   47.5855   53.8445 C.3       3 GLC5        0.0000 
     11 CA         69.5020   49.5110   52.9770 C.3       9 GLL5        0.0000 
     12 CA         70.7700   45.6600   54.7120 C.3       6 GLP5        0.0000 
     13 CA         70.0220   46.4110   53.2310 C.3       3 GLC5        0.0000 
     14 CA         69.2740   47.1620   51.7500 C.3       9 GLL5        0.0000 
     15 NZ         66.0245   49.3980   52.3240 N.4       2 LYC4        0.0000 
     16 NZ         67.2550   48.6300   52.9170 N.4       8 LYL4        0.0000 
     17 NZ         64.7940   50.1660   51.7310 N.4       5 LYP4        0.0000 
     18 N          67.2555   48.8135   54.0735 N.am      1 SEC2        0.0000 
     19 N          67.2550   48.6300   52.9170 N.am      7 SEL2        0.0000 
     20 N          67.2560   48.9970   55.2300 N.am      4 SEP2        0.0000 
     21 N          67.6925   46.2000   54.6330 N.am      1 SEC2        0.0000 
     22 N          67.3780   46.0980   53.4010 N.am      7 SEL2        0.0000 
     23 N          68.0070   46.3020   55.8650 N.am      4 SEP2        0.0000 
     24 N          67.3170   47.5475   54.3155 N.am      1 SEC2        0.0000 
     25 NZ         65.7190   48.5650   51.4010 N.4       2 LYC4        0.0000 
     26 NZ         66.6440   46.9640   51.0710 N.4       8 LYL4        0.0000 
     27 CA         68.1257   53.1595   53.5953 C.3       3 GLC5        0.0000 
     28 CA         69.7050   52.2720   52.6180 C.3       9 GLL5        0.0000 
     29 CA         66.5500   54.3170   53.9320 C.3       6 GLP5        0.0000 
     30 CA         67.9363   49.0078   54.6718 C.3       3 GLC5        0.0000 
     31 CA         69.5950   50.3580   54.0820 C.3       9 GLL5        0.0000 
     32 CA         66.3240   48.0810   55.8140 C.3       6 GLP5        0.0000 
@<TRIPOS>BOND
@<TRIPOS>SUBSTRUCTURE
     1 SEC2        4 GROUP        1 X    SEC  0     ROOT SEC X 2
     2 LYC4        1 GROUP        1 X    LYC  0     **** LYC X 4
     3 GLC5        7 GROUP        1 X    GLC  0     **** GLC X 6
     4 SEP2        6 GROUP        1 Y    SEP  0     ROOT SEP Y 9
     5 LYP4        3 GROUP        1 Y    LYP  0     **** LYP Y 11
     6 GLP5        9 GROUP        1 Y    GLP  0     **** GLP Y 13
     7 SEL2        5 GROUP        1 Z    SEL  0     ROOT SEL Z 16
     8 LYL4        2 GROUP        1 Z    LYL  0     **** LYL Z 18
     9 GLL5        8 GROUP        1 Z    GLL  0     **** GLL Z 20
@<TRIPOS>SET

