#    Name: 2fzg_EOB_2_ligand
#    Modification time : Tue Mar 25 13:16:52 2014

@<TRIPOS>MOLECULE
2fzg_EOB_2_ligand
   32    32     1     0     0
SMALL
NO_CHARGES


@<TRIPOS>ATOM
      1 OAF        69.4540   55.2530   47.9800 O.co2     1 EOB612      0.0000 
      2 PAU        70.4960   54.1740   48.5720 P.3       1 EOB612      0.0000 
      3 OAE        70.5800   52.9800   47.4930 O.co2     1 EOB612      0.0000 
      4 OAC        71.8180   54.7630   48.8890 O.co2     1 EOB612      0.0000 
      5 CAM        69.6810   53.4510   50.0190 C.3       1 EOB612      0.0000 
      6 CAQ        69.9620   54.2410   51.2990 C.2       1 EOB612      0.0000 
      7 OAA        70.2080   55.4420   51.2310 O.2       1 EOB612      0.0000 
      8 NAO        69.9380   53.5720   52.4580 N.am      1 EOB612      0.0000 
      9 CAS        69.7050   52.2720   52.6180 C.ar      1 EOB612      0.0000 
     10 CAL        69.5990   51.4120   51.5230 C.ar      1 EOB612      0.0000 
     11 CAJ        69.6980   51.7320   53.8990 C.ar      1 EOB612      0.0000 
     12 CAI        69.5950   50.3580   54.0820 C.ar      1 EOB612      0.0000 
     13 CAK        69.5020   49.5110   52.9770 C.ar      1 EOB612      0.0000 
     14 CAT        69.5050   50.0330   51.6880 C.ar      1 EOB612      0.0000 
     15 NAP        69.5020   49.2960   50.5760 N.am      1 EOB612      0.0000 
     16 CAR        69.4130   47.9740   50.4620 C.2       1 EOB612      0.0000 
     17 OAB        69.4220   47.3900   49.3720 O.2       1 EOB612      0.0000 
     18 CAN        69.2740   47.1620   51.7500 C.3       1 EOB612      0.0000 
     19 PAV        67.5350   47.1990   52.2370 P.3       1 EOB612      0.0000 
     20 OAH        67.2550   48.6300   52.9170 O.co2     1 EOB612      0.0000 
     21 OAG        67.3780   46.0980   53.4010 O.co2     1 EOB612      0.0000 
     22 OAD        66.6440   46.9640   51.0710 O.co2     1 EOB612      0.0000 
     23 H          70.0791   52.4570   50.0355 H         1 EOB612      0.0000 
     24 H          68.6496   53.4589   49.7310 H         1 EOB612      0.0000 
     25 H          70.1293   54.1546   53.3614 H         1 EOB612      0.0000 
     26 H          69.5903   51.8117   50.5656 H         1 EOB612      0.0000 
     27 H          69.7696   52.3543   54.7180 H         1 EOB612      0.0000 
     28 H          69.5871   49.9632   55.0310 H         1 EOB612      0.0000 
     29 H          69.4308   48.4931   53.1191 H         1 EOB612      0.0000 
     30 H          69.5841   49.8580   49.6280 H         1 EOB612      0.0000 
     31 H          69.7551   47.5968   52.5781 H         1 EOB612      0.0000 
     32 H          69.4567   46.1340   51.6236 H         1 EOB612      0.0000 
@<TRIPOS>BOND
     1    2    1 ar   
     2    3    2 ar   
     3    4    2 ar   
     4    5    2 1    
     5    6    5 1    
     6   23    5 1    
     7   24    5 1    
     8    7    6 2    
     9    8    6 am   
    10    9    8 1    
    11   25    8 1    
    12   10    9 ar   
    13   11    9 ar   
    14   14   10 ar   
    15   26   10 1    
    16   12   11 ar   
    17   27   11 1    
    18   13   12 ar   
    19   28   12 1    
    20   14   13 ar   
    21   29   13 1    
    22   15   14 1    
    23   16   15 am   
    24   30   15 1    
    25   17   16 2    
    26   18   16 1    
    27   19   18 1    
    28   31   18 1    
    29   32   18 1    
    30   20   19 ar   
    31   21   19 ar   
    32   22   19 ar   
@<TRIPOS>SUBSTRUCTURE
     1 EOB612      1 GROUP   
@<TRIPOS>SET

