#    Name: 3ckq_UPG_1_INTS_M
#    Modification time : Mon Mar 24 21:46:22 2014

@<TRIPOS>MOLECULE
3ckq_UPG_1_INTS_M
   86     0    12     0     0
SMALL
NO_CHARGES


@<TRIPOS>ATOM
      1 O           6.3215   30.9080   15.4430 O.2       1 ALC1        0.0000 
      2 O           6.7540   29.9090   14.3190 O.2       9 ALL1        0.0000 
      3 O           5.8890   31.9070   16.5670 O.2       5 ALP1        0.0000 
      4 CA          5.2105   29.1005   12.1120 C.3       4 GLC5        0.0000 
      5 CA          7.0220   28.5120   12.4190 C.3      12 GLL5        0.0000 
      6 CA          3.3990   29.6890   11.8050 C.3       8 GLP5        0.0000 
      7 CA          8.0790   27.4705   10.9365 C.3       4 GLC5        0.0000 
      8 CA          9.1360   26.4290    9.4540 C.3       8 GLP5        0.0000 
      9 CA          5.0265   28.1640   13.7060 C.3       4 GLC5        0.0000 
     10 CA          7.0550   27.3850   13.2410 C.3      12 GLL5        0.0000 
     11 CA          2.9980   28.9430   14.1710 C.3       8 GLP5        0.0000 
     12 CA          8.5010   26.6745   11.8605 C.3       4 GLC5        0.0000 
     13 CA          9.9470   25.9640   10.4800 C.3       8 GLP5        0.0000 
     14 N           6.2805   30.4510   16.4620 N.am      2 SEC2        0.0000 
     15 N           6.6720   28.9950   16.3570 N.am     10 SEL2        0.0000 
     16 N           5.8890   31.9070   16.5670 N.am      6 SEP2        0.0000 
     17 CA          7.6840   26.9190   17.2375 C.3       4 GLC5        0.0000 
     18 CA          6.9620   26.3700   15.4820 C.3      12 GLL5        0.0000 
     19 CA          8.4060   27.4680   18.9930 C.3       8 GLP5        0.0000 
     20 CA          8.7960   27.2920   15.3295 C.3       4 GLC5        0.0000 
     21 CA         10.6300   28.2140   15.1770 C.3       8 GLP5        0.0000 
     22 CA          4.8040   26.2890   16.8465 C.3       4 GLC5        0.0000 
     23 CA          5.9040   25.3200   15.1560 C.3      12 GLL5        0.0000 
     24 CA          3.7040   27.2580   18.5370 C.3       8 GLP5        0.0000 
     25 N           3.7570   26.6555   16.0545 N.am      2 SEC2        0.0000 
     26 N           4.6580   25.6040   15.7990 N.am     10 SEL2        0.0000 
     27 N           2.8560   27.7070   16.3100 N.am      6 SEP2        0.0000 
     28 O           3.3960   25.1740   15.7965 O.2       1 ALC1        0.0000 
     29 O           4.6580   25.6040   15.7990 O.2       9 ALL1        0.0000 
     30 O           2.1340   24.7440   15.7940 O.2       5 ALP1        0.0000 
     31 O           3.6645   24.3940   15.0705 O.2       1 ALC1        0.0000 
     32 O           2.6710   23.1840   14.3420 O.2       5 ALP1        0.0000 
     33 CA          8.6025   25.2660   17.5035 C.3       4 GLC5        0.0000 
     34 CA          8.0280   24.2770   15.6170 C.3      12 GLL5        0.0000 
     35 CA          9.1770   26.2550   19.3900 C.3       8 GLP5        0.0000 
     36 N           6.1720   22.8595   18.2155 N.am      2 SEC2        0.0000 
     37 N           6.1300   23.7560   17.0030 N.am     10 SEL2        0.0000 
     38 N           6.2140   21.9630   19.4280 N.am      6 SEP2        0.0000 
     39 O           6.0335   24.7255   18.0675 O.2       1 ALC1        0.0000 
     40 O           6.1300   23.7560   17.0030 O.2       9 ALL1        0.0000 
     41 O           5.9370   25.6950   19.1320 O.2       5 ALP1        0.0000 
     42 Zn          7.4875   20.8430   12.6750 Zn        3 ZIC7        0.0000 
     43 Zn          7.1110   21.8520   12.2920 Zn       11 ZIL7        0.0000 
     44 Zn          7.8640   19.8340   13.0580 Zn        7 ZIP7        0.0000 
     45 N           7.6095   25.0285   10.1465 N.am      2 SEC2        0.0000 
     46 N           7.4520   23.7750   10.7530 N.am     10 SEL2        0.0000 
     47 N           7.7670   26.2820    9.5400 N.am      6 SEP2        0.0000 
     48 Zn          8.7025   19.9935   12.0275 Zn        3 ZIC7        0.0000 
     49 Zn          9.5410   20.1530   10.9970 Zn       11 ZIL7        0.0000 
     50 CA         13.4180   19.3055   10.5170 C.3       4 GLC5        0.0000 
     51 CA         12.5230   20.9860   11.4260 C.3      12 GLL5        0.0000 
     52 CA         14.3130   17.6250    9.6080 C.3       8 GLP5        0.0000 
     53 CA         13.1175   21.3530    9.6735 C.3       4 GLC5        0.0000 
     54 CA         13.7120   21.7200    7.9210 C.3       8 GLP5        0.0000 
     55 CA         13.1075   21.9235   15.4345 C.3       4 GLC5        0.0000 
     56 CA         12.2350   22.4140   13.4880 C.3      12 GLL5        0.0000 
     57 CA         13.9800   21.4330   17.3810 C.3       8 GLP5        0.0000 
     58 CA         14.2465   25.2895   10.1520 C.3       4 GLC5        0.0000 
     59 CA         15.0920   23.6770   11.1240 C.3      12 GLL5        0.0000 
     60 CA         13.4010   26.9020    9.1800 C.3       8 GLP5        0.0000 
     61 N          12.3820   23.7730   15.6485 N.am      2 SEC2        0.0000 
     62 N          12.1740   22.3670   14.9160 N.am     10 SEL2        0.0000 
     63 N          12.5900   25.1790   16.3810 N.am      6 SEP2        0.0000 
     64 O          11.4500   21.7230   15.7015 O.2       1 ALC1        0.0000 
     65 O          12.1740   22.3670   14.9160 O.2       9 ALL1        0.0000 
     66 O          10.7260   21.0790   16.4870 O.2       5 ALP1        0.0000 
     67 N          12.9055   24.8910   14.8390 N.am      2 SEC2        0.0000 
     68 N          13.2210   24.6030   13.2970 N.am     10 SEL2        0.0000 
     69 O          14.3750   25.0950   13.7590 O.2       1 ALC1        0.0000 
     70 O          13.2210   24.6030   13.2970 O.2       9 ALL1        0.0000 
     71 O          15.5290   25.5870   14.2210 O.2       5 ALP1        0.0000 
     72 O          15.7785   24.6855   13.2135 O.2       1 ALC1        0.0000 
     73 O          16.0280   23.7840   12.2060 O.2       9 ALL1        0.0000 
     74 CA          8.8717   28.5168   13.3840 C.3       4 GLC5        0.0000 
     75 CA         10.7050   29.0850   13.9380 C.3       8 GLP5        0.0000 
     76 CA          9.9463   25.0678   15.7010 C.3       4 GLC5        0.0000 
     77 CA         11.5350   26.2250   16.3660 C.3       8 GLP5        0.0000 
     78 CA          8.4549   22.4565   16.5431 C.3       4 GLC5        0.0000 
     79 CA          8.9280   21.0650   18.0410 C.3       8 GLP5        0.0000 
     80 CA         12.4765   24.6145   11.3468 C.3       4 GLC5        0.0000 
     81 CA         13.4660   23.2140   13.0530 C.3      12 GLL5        0.0000 
     82 CA         11.3260   26.1170   10.3840 C.3       8 GLP5        0.0000 
     83 CA         16.0665   22.2178   11.2925 C.3       4 GLC5        0.0000 
     84 CA         13.7880   23.0100   11.5660 C.3      12 GLL5        0.0000 
     85 CA         17.6930   21.0920   11.2400 C.3       8 GLP5        0.0000 
     86 CA         14.0760   22.5318    9.6330 C.3       4 GLC5        0.0000 
@<TRIPOS>BOND
@<TRIPOS>SUBSTRUCTURE
     1 ALC1        1 GROUP        1 X    ALC  0     ROOT ALC X 1
     2 SEC2       14 GROUP        1 X    SEC  0     **** SEC X 2
     3 ZIC7       42 GROUP        1 X    ZIC  0     **** ZIC X 5
     4 GLC5        4 GROUP        1 X    GLC  0     **** GLC X 6
     5 ALP1        3 GROUP        1 Y    ALP  0     ROOT ALP Y 8
     6 SEP2       16 GROUP        1 Y    SEP  0     **** SEP Y 9
     7 ZIP7       44 GROUP        1 Y    ZIP  0     **** ZIP Y 12
     8 GLP5        6 GROUP        1 Y    GLP  0     **** GLP Y 13
     9 ALL1        2 GROUP        1 Z    ALL  0     ROOT ALL Z 15
    10 SEL2       15 GROUP        1 Z    SEL  0     **** SEL Z 16
    11 ZIL7       43 GROUP        1 Z    ZIL  0     **** ZIL Z 19
    12 GLL5        5 GROUP        1 Z    GLL  0     **** GLL Z 20
@<TRIPOS>SET

