#    Name: 3ckq_UPG_1_ligand
#    Modification time : Mon Mar 24 21:46:22 2014

@<TRIPOS>MOLECULE
3ckq_UPG_1_ligand
   58    60     1     0     0
SMALL
NO_CHARGES


@<TRIPOS>ATOM
      1 N1          6.9360   27.5320   14.5730 N.am      1 UPG332      0.0000 
      2 C2          6.7820   28.8330   15.1210 C.2       1 UPG332      0.0000 
      3 N3          6.7540   29.9090   14.3190 N.am      1 UPG332      0.0000 
      4 C4          6.8700   29.7770   12.9890 C.2       1 UPG332      0.0000 
      5 C5          7.0220   28.5120   12.4190 C.2       1 UPG332      0.0000 
      6 C6          7.0550   27.3850   13.2410 C.2       1 UPG332      0.0000 
      7 O2          6.6720   28.9950   16.3570 O.2       1 UPG332      0.0000 
      8 O4          6.8400   30.7950   12.2650 O.2       1 UPG332      0.0000 
      9 C1C         6.9620   26.3700   15.4820 C.3       1 UPG332      0.0000 
     10 C2C         5.9040   25.3200   15.1560 C.3       1 UPG332      0.0000 
     11 O2C         4.6580   25.6040   15.7990 O.3       1 UPG332      0.0000 
     12 C3C         6.5250   24.0270   15.6540 C.3       1 UPG332      0.0000 
     13 C4C         8.0280   24.2770   15.6170 C.3       1 UPG332      0.0000 
     14 O4C         8.2240   25.6880   15.4670 O.3       1 UPG332      0.0000 
     15 O3C         6.1300   23.7560   17.0030 O.3       1 UPG332      0.0000 
     16 C5C         8.6870   23.5440   14.4550 C.3       1 UPG332      0.0000 
     17 O5C         8.1190   24.0130   13.2290 O.3       1 UPG332      0.0000 
     18 PA          7.9850   23.0350   11.9600 P.3       1 UPG332      0.0000 
     19 O1A         7.1110   21.8520   12.2920 O.co2     1 UPG332      0.0000 
     20 O2A         7.4520   23.7750   10.7530 O.co2     1 UPG332      0.0000 
     21 O3A         9.5150   22.5800   11.7720 O.3       1 UPG332      0.0000 
     22 PB          9.9660   21.5510   10.6290 P.3       1 UPG332      0.0000 
     23 O1B         9.3780   21.9590    9.2960 O.co2     1 UPG332      0.0000 
     24 O2B         9.5410   20.1530   10.9970 O.co2     1 UPG332      0.0000 
     25 O3B        11.5720   21.7180   10.6330 O.3       1 UPG332      0.0000 
     26 C1'        12.5230   20.9860   11.4260 C.3       1 UPG332      0.0000 
     27 C2'        12.2330   20.9890   12.9300 C.3       1 UPG332      0.0000 
     28 C3'        12.2350   22.4140   13.4880 C.3       1 UPG332      0.0000 
     29 C4'        13.4660   23.2140   13.0530 C.3       1 UPG332      0.0000 
     30 C5'        13.7880   23.0100   11.5660 C.3       1 UPG332      0.0000 
     31 C6'        15.0920   23.6770   11.1240 C.3       1 UPG332      0.0000 
     32 O2'        10.9850   20.3530   13.2180 O.3       1 UPG332      0.0000 
     33 O3'        12.1740   22.3670   14.9160 O.3       1 UPG332      0.0000 
     34 O4'        13.2210   24.6030   13.2970 O.3       1 UPG332      0.0000 
     35 O5'        13.8050   21.6080   11.2490 O.3       1 UPG332      0.0000 
     36 O6'        16.0280   23.7840   12.2060 O.3       1 UPG332      0.0000 
     37 H           6.6400   30.8648   14.7377 H         1 UPG332      0.0000 
     38 H           7.1087   28.4119   11.4038 H         1 UPG332      0.0000 
     39 H           7.1708   26.4552   12.8083 H         1 UPG332      0.0000 
     40 H           6.7548   26.7064   16.5109 H         1 UPG332      0.0000 
     41 H           5.8264   25.2590   14.0901 H         1 UPG332      0.0000 
     42 H           6.2961   23.2483   14.9821 H         1 UPG332      0.0000 
     43 H           8.4536   23.9273   16.5385 H         1 UPG332      0.0000 
     44 H           8.5213   22.4728   14.5945 H         1 UPG332      0.0000 
     45 H           9.7621   23.7345   14.5023 H         1 UPG332      0.0000 
     46 H          12.5850   19.9536   11.1034 H         1 UPG332      0.0000 
     47 H          13.0534   20.4508   13.4212 H         1 UPG332      0.0000 
     48 H          11.3526   22.9246   13.0945 H         1 UPG332      0.0000 
     49 H          14.3128   22.8704   13.6317 H         1 UPG332      0.0000 
     50 H          12.9686   23.4943   10.9942 H         1 UPG332      0.0000 
     51 H          14.8369   24.6686   10.7126 H         1 UPG332      0.0000 
     52 H          15.5053   23.0826   10.2912 H         1 UPG332      0.0000 
     53 H           4.0134   24.9411   15.4182 H         1 UPG332      0.0000 
     54 H           6.1896   24.6372   17.4720 H         1 UPG332      0.0000 
     55 H          10.7311   19.8859   12.3710 H         1 UPG332      0.0000 
     56 H          11.4172   21.7468   15.1223 H         1 UPG332      0.0000 
     57 H          14.0937   24.9662   13.6232 H         1 UPG332      0.0000 
     58 H          15.6427   24.4786   12.8136 H         1 UPG332      0.0000 
@<TRIPOS>BOND
     1    2    1 1    
     2    6    1 1    
     3    9    1 1    
     4    3    2 1    
     5    7    2 2    
     6    4    3 1    
     7   37    3 1    
     8    5    4 1    
     9    8    4 2    
    10    6    5 2    
    11   38    5 1    
    12   39    6 1    
    13   10    9 1    
    14   14    9 1    
    15   40    9 1    
    16   11   10 1    
    17   12   10 1    
    18   41   10 1    
    19   53   11 1    
    20   13   12 1    
    21   15   12 1    
    22   42   12 1    
    23   14   13 1    
    24   16   13 1    
    25   43   13 1    
    26   54   15 1    
    27   17   16 1    
    28   44   16 1    
    29   45   16 1    
    30   18   17 1    
    31   19   18 ar   
    32   20   18 ar   
    33   21   18 1    
    34   22   21 1    
    35   23   22 ar   
    36   24   22 ar   
    37   25   22 1    
    38   26   25 1    
    39   27   26 1    
    40   35   26 1    
    41   46   26 1    
    42   28   27 1    
    43   32   27 1    
    44   47   27 1    
    45   29   28 1    
    46   33   28 1    
    47   48   28 1    
    48   30   29 1    
    49   34   29 1    
    50   49   29 1    
    51   31   30 1    
    52   35   30 1    
    53   50   30 1    
    54   36   31 1    
    55   51   31 1    
    56   52   31 1    
    57   55   32 1    
    58   56   33 1    
    59   57   34 1    
    60   58   36 1    
@<TRIPOS>SUBSTRUCTURE
     1 UPG332      1 GROUP   
@<TRIPOS>SET

