#    Name: 4ibm_IR1_2_INTS_M
#    Modification time : Tue Mar 25 03:41:28 2014

@<TRIPOS>MOLECULE
4ibm_IR1_2_INTS_M
   65     0     6     0     0
SMALL
NO_CHARGES


@<TRIPOS>ATOM
      1 N         -20.8745   -3.7830   51.6310 N.am      1 SEC2        0.0000 
      2 N         -20.9920   -4.6240   52.6240 N.am      5 SEL2        0.0000 
      3 N         -20.7570   -2.9420   50.6380 N.am      3 SEP2        0.0000 
      4 CA        -26.2905   -5.7955   54.4825 C.3       2 GLC5        0.0000 
      5 CA        -24.1520   -6.0400   53.8960 C.3       6 GLL5        0.0000 
      6 CA        -28.4290   -5.5510   55.0690 C.3       4 GLP5        0.0000 
      7 CA        -25.4640   -7.2470   52.8030 C.3       2 GLC5        0.0000 
      8 CA        -26.7760   -8.4540   51.7100 C.3       4 GLP5        0.0000 
      9 CA        -23.4690   -7.2690   52.5175 C.3       2 GLC5        0.0000 
     10 CA        -22.7860   -8.4980   51.1390 C.3       4 GLP5        0.0000 
     11 N         -26.2025   -7.2880   54.6020 N.am      1 SEC2        0.0000 
     12 N         -24.8410   -6.8450   54.7350 N.am      5 SEL2        0.0000 
     13 N         -27.5640   -7.7310   54.4690 N.am      3 SEP2        0.0000 
     14 CA        -21.3285   -5.1585   56.1485 C.3       2 GLC5        0.0000 
     15 CA        -21.9860   -6.8040   54.9120 C.3       6 GLL5        0.0000 
     16 CA        -20.6710   -3.5130   57.3850 C.3       4 GLP5        0.0000 
     17 CA        -25.7375   -7.9075   57.9035 C.3       2 GLC5        0.0000 
     18 CA        -24.2980   -9.5390   57.9810 C.3       6 GLL5        0.0000 
     19 CA        -27.1770   -6.2760   57.8260 C.3       4 GLP5        0.0000 
     20 CA        -19.9885   -7.2000   58.7120 C.3       2 GLC5        0.0000 
     21 CA        -18.7170   -7.4980   57.0330 C.3       6 GLL5        0.0000 
     22 CA        -21.2600   -6.9020   60.3910 C.3       4 GLP5        0.0000 
     23 CA        -18.9675   -5.5255   57.4700 C.3       2 GLC5        0.0000 
     24 CA        -19.2180   -3.5530   57.9070 C.3       4 GLP5        0.0000 
     25 CA        -17.6490   -7.3040   52.8845 C.3       2 GLC5        0.0000 
     26 CA        -18.0150   -8.3600   54.4660 C.3       6 GLL5        0.0000 
     27 CA        -17.2830   -6.2480   51.3030 C.3       4 GLP5        0.0000 
     28 CA        -17.9075   -5.1195   56.6110 C.3       2 GLC5        0.0000 
     29 CA        -17.5590   -7.0160   56.4360 C.3       6 GLL5        0.0000 
     30 CA        -18.2560   -3.2230   56.7860 C.3       4 GLP5        0.0000 
     31 CA        -23.7228   -4.9156   55.1980 C.3       2 GLC5        0.0000 
     32 CA        -22.6820   -6.0210   53.9960 C.3       6 GLL5        0.0000 
     33 CA        -24.7440   -3.4140   55.9670 C.3       4 GLP5        0.0000 
     34 CA        -22.9475   -7.0892   57.7900 C.3       2 GLC5        0.0000 
     35 CA        -22.7720   -7.6200   55.7470 C.3       6 GLL5        0.0000 
     36 CA        -23.4190   -6.0940   59.3260 C.3       4 GLP5        0.0000 
     37 CA        -21.8105   -7.6391   53.3782 C.3       2 GLC5        0.0000 
     38 CA        -21.0680   -8.2620   51.6560 C.3       4 GLP5        0.0000 
     39 CA        -23.0690  -10.7588   56.4540 C.3       2 GLC5        0.0000 
     40 CA        -22.1800   -8.5490   56.7610 C.3       6 GLL5        0.0000 
     41 CA        -23.5780  -12.5450   55.6700 C.3       4 GLP5        0.0000 
     42 CA        -23.5190   -7.7808   58.5870 C.3       2 GLC5        0.0000 
     43 CA        -22.9400   -9.3960   57.7150 C.3       6 GLL5        0.0000 
     44 CA        -26.5100  -10.3472   57.9188 C.3       2 GLC5        0.0000 
     45 CA        -28.5350  -10.7150   57.3440 C.3       4 GLP5        0.0000 
     46 CA        -24.0315  -11.2622   57.0817 C.3       2 GLC5        0.0000 
     47 CA        -24.6720  -10.4200   59.0060 C.3       6 GLL5        0.0000 
     48 CA        -23.2982  -11.7905   57.6033 C.3       2 GLC5        0.0000 
     49 CA        -23.6910  -11.1340   59.6970 C.3       6 GLL5        0.0000 
     50 CA        -23.3754   -9.2892   60.3059 C.3       2 GLC5        0.0000 
     51 CA        -22.3460  -10.9380   59.3760 C.3       6 GLL5        0.0000 
     52 CA        -23.4870   -7.7210   61.2480 C.3       4 GLP5        0.0000 
     53 CA        -17.4430   -7.2720   58.7597 C.3       2 GLC5        0.0000 
     54 CA        -16.7480   -7.2870   60.7850 C.3       4 GLP5        0.0000 
     55 CA        -19.8328   -8.4310   53.2112 C.3       2 GLC5        0.0000 
     56 CA        -19.1800   -8.8400   55.0670 C.3       6 GLL5        0.0000 
     57 CA        -15.9503   -5.7428   55.6767 C.3       2 GLC5        0.0000 
     58 CA        -17.2160   -7.4490   55.1530 C.3       6 GLL5        0.0000 
     59 CA        -14.5130   -4.2530   55.5590 C.3       4 GLP5        0.0000 
     60 CA        -17.5503   -5.5198   54.6608 C.3       2 GLC5        0.0000 
     61 CA        -17.7130   -3.8070   53.5270 C.3       4 GLP5        0.0000 
     62 CA        -17.3039   -9.2617   53.4649 C.3       2 GLC5        0.0000 
     63 CA        -16.7010  -10.4990   51.9700 C.3       4 GLP5        0.0000 
     64 CA        -16.1991   -8.8066   55.7159 C.3       2 GLC5        0.0000 
     65 CA        -14.8110  -10.1530   55.8090 C.3       4 GLP5        0.0000 
@<TRIPOS>BOND
@<TRIPOS>SUBSTRUCTURE
     1 SEC2        1 GROUP        1 X    SEC  0     ROOT SEC X 2
     2 GLC5        4 GROUP        1 X    GLC  0     **** GLC X 6
     3 SEP2        3 GROUP        1 Y    SEP  0     ROOT SEP Y 9
     4 GLP5        6 GROUP        1 Y    GLP  0     **** GLP Y 13
     5 SEL2        2 GROUP        1 Z    SEL  0     ROOT SEL Z 16
     6 GLL5        5 GROUP        1 Z    GLL  0     **** GLL Z 20
@<TRIPOS>SET

