#    Name: 4ibm_IR1_2_ligand
#    Modification time : Tue Mar 25 03:41:28 2014

@<TRIPOS>MOLECULE
4ibm_IR1_2_ligand
   35    39     1     0     0
SMALL
NO_CHARGES


@<TRIPOS>ATOM
      1 O28       -20.9920   -4.6240   52.6240 O.2       1 IR11301     0.0000 
      2 C27       -22.3440   -5.0390   52.9560 C.2       1 IR11301     0.0000 
      3 N26       -23.4190   -4.5510   52.3230 N.2       1 IR11301     0.0000 
      4 N25       -24.5260   -5.1820   52.9220 N.2       1 IR11301     0.0000 
      5 C15       -24.1520   -6.0400   53.8960 C.ar      1 IR11301     0.0000 
      6 N14       -24.8410   -6.8450   54.7350 N.ar      1 IR11301     0.0000 
      7 C16       -22.6820   -6.0210   53.9960 C.ar      1 IR11301     0.0000 
      8 C17       -21.9860   -6.8040   54.9120 C.ar      1 IR11301     0.0000 
      9 C18       -22.7720   -7.6200   55.7470 C.ar      1 IR11301     0.0000 
     10 N13       -24.1270   -7.6300   55.6510 N.ar      1 IR11301     0.0000 
     11 C24       -22.1800   -8.5490   56.7610 C.2       1 IR11301     0.0000 
     12 C12       -22.9400   -9.3960   57.7150 C.2       1 IR11301     0.0000 
     13 C11       -24.2980   -9.5390   57.9810 C.2       1 IR11301     0.0000 
     14 C10       -24.6720  -10.4200   59.0060 C.2       1 IR11301     0.0000 
     15 C9        -23.6910  -11.1340   59.6970 C.2       1 IR11301     0.0000 
     16 C8        -22.3460  -10.9380   59.3760 C.2       1 IR11301     0.0000 
     17 C23       -20.7450   -8.9140   57.0070 C.2       1 IR11301     0.0000 
     18 N22       -20.6960   -9.8270   58.0090 N.2       1 IR11301     0.0000 
     19 N7        -22.0160  -10.0740   58.3890 N.pl3     1 IR11301     0.0000 
     20 C6        -19.5210   -8.3970   56.3390 C.ar      1 IR11301     0.0000 
     21 C1        -18.7170   -7.4980   57.0330 C.ar      1 IR11301     0.0000 
     22 C5        -19.1800   -8.8400   55.0670 C.ar      1 IR11301     0.0000 
     23 C4        -18.0150   -8.3600   54.4660 C.ar      1 IR11301     0.0000 
     24 C3        -17.2160   -7.4490   55.1530 C.ar      1 IR11301     0.0000 
     25 C2        -17.5590   -7.0160   56.4360 C.ar      1 IR11301     0.0000 
     26 H         -20.9913   -6.7931   54.9788 H         1 IR11301     0.0000 
     27 H         -24.9945   -9.0284   57.4571 H         1 IR11301     0.0000 
     28 H         -25.6602  -10.5372   59.2444 H         1 IR11301     0.0000 
     29 H         -23.9548  -11.7944   60.4313 H         1 IR11301     0.0000 
     30 H         -21.6256  -11.4570   59.8987 H         1 IR11301     0.0000 
     31 H         -18.9778   -7.1948   57.9762 H         1 IR11301     0.0000 
     32 H         -19.7741   -9.5105   54.5738 H         1 IR11301     0.0000 
     33 H         -17.7516   -8.6754   53.5292 H         1 IR11301     0.0000 
     34 H         -16.3559   -7.0869   54.7082 H         1 IR11301     0.0000 
     35 H         -16.9595   -6.3488   56.9294 H         1 IR11301     0.0000 
@<TRIPOS>BOND
     1    2    1 2    
     2    3    2 1    
     3    7    2 1    
     4    4    3 2    
     5    5    4 1    
     6    6    5 ar   
     7    7    5 ar   
     8   10    6 ar   
     9    8    7 ar   
    10    9    8 ar   
    11   26    8 1    
    12   10    9 ar   
    13   11    9 1    
    14   12   11 2    
    15   17   11 1    
    16   13   12 1    
    17   19   12 1    
    18   14   13 2    
    19   27   13 1    
    20   15   14 1    
    21   28   14 1    
    22   16   15 2    
    23   29   15 1    
    24   19   16 1    
    25   30   16 1    
    26   18   17 2    
    27   20   17 1    
    28   19   18 1    
    29   21   20 ar   
    30   22   20 ar   
    31   25   21 ar   
    32   31   21 1    
    33   23   22 ar   
    34   32   22 1    
    35   24   23 ar   
    36   33   23 1    
    37   25   24 ar   
    38   34   24 1    
    39   35   25 1    
@<TRIPOS>SUBSTRUCTURE
     1 IR11301     1 GROUP   
@<TRIPOS>SET

