#    Name: 1GPN_1_CAVITY_N1_ALL.mol2
#    Modification time : Tue Mar 11 02:17:37 2014

@<TRIPOS>MOLECULE
1GPN_1_CAVITY_N1_ALL.mol2
  131     0     6     0     0
SMALL
NO_CHARGES


@<TRIPOS>ATOM
      1 N           1.6747   63.5927   75.9469 N.2       2 ALA2        0.0000 
      2 N          -0.2866   64.0869   75.3074 N.2       2 ALA2        0.0000 
      3 N           1.9897   63.0696   74.5768 N.2       2 ALA2        0.0000 
      4 OG         -0.6150   64.7739   73.3274 O.2       1 SER1        0.0000 
      5 OG          0.0284   63.5639   73.9373 O.2       1 SER1        0.0000 
      6 DU          0.6718   62.3539   74.5471 H         6 CUB7        0.0000 
      7 NZ          0.3744   66.1765   71.3771 N.2       3 LYS4        0.0000 
      8 CZ          1.6612   63.7566   72.5968 C.ar      4 PHE5        0.0000 
      9 CA          2.3046   62.5466   73.2067 C.3       5 GLY6        0.0000 
     10 CZ         -0.9435   65.4608   71.3474 C.ar      4 PHE5        0.0000 
     11 OG         -0.3001   64.2508   71.9573 O.2       1 SER1        0.0000 
     12 OG          0.3433   63.0408   72.5671 O.2       1 SER1        0.0000 
     13 DU          0.9868   61.8308   73.1770 H         6 CUB7        0.0000 
     14 N           1.6302   60.6208   73.7868 N.2       2 ALA2        0.0000 
     15 N           2.2736   59.4108   74.3967 N.2       2 ALA2        0.0000 
     16 OG         -0.9745   62.3250   72.5375 O.2       1 SER1        0.0000 
     17 DU         -0.3311   61.1150   73.1473 H         6 CUB7        0.0000 
     18 DU          0.3123   59.9051   73.7572 H         6 CUB7        0.0000 
     19 CA         -1.6490   60.3993   73.1176 C.3       5 GLY6        0.0000 
     20 NZ          1.3638   67.5792   69.4269 N.2       3 LYS4        0.0000 
     21 CZ          2.0072   66.3692   70.0367 C.ar      4 PHE5        0.0000 
     22 CZ          2.6506   65.1592   70.6466 C.ar      4 PHE5        0.0000 
     23 CA          3.2941   63.9492   71.2564 C.3       5 GLY6        0.0000 
     24 CA          0.0459   66.8635   69.3972 C.3       5 GLY6        0.0000 
     25 CZ          0.6893   65.6535   70.0070 C.ar      4 PHE5        0.0000 
     26 CZ          1.3328   64.4435   70.6169 C.ar      4 PHE5        0.0000 
     27 CZ          1.9762   63.2335   71.2267 C.ar      4 PHE5        0.0000 
     28 CA          2.6196   62.0235   71.8366 C.3       5 GLY6        0.0000 
     29 N           3.2630   60.8135   72.4464 N.2       2 ALA2        0.0000 
     30 N           3.9064   59.6035   73.0563 N.2       2 ALA2        0.0000 
     31 CZ         -0.6286   64.9377   69.9773 C.ar      4 PHE5        0.0000 
     32 CZ          0.0149   63.7277   70.5872 C.ar      4 PHE5        0.0000 
     33 DU          0.6583   62.5177   71.1970 H         6 CUB7        0.0000 
     34 DU          1.3017   61.3077   71.8069 H         6 CUB7        0.0000 
     35 DU          1.9451   60.0977   72.4167 H         6 CUB7        0.0000 
     36 DU          2.5886   58.8877   73.0266 H         6 CUB7        0.0000 
     37 CZ         -0.6596   61.8020   71.1673 C.ar      4 PHE5        0.0000 
     38 CZ         -0.0162   60.5920   71.7772 C.ar      4 PHE5        0.0000 
     39 CZ          0.6272   59.3820   72.3870 C.ar      4 PHE5        0.0000 
     40 CZ          1.2707   58.1720   72.9969 C.ar      4 PHE5        0.0000 
     41 CZ         -0.6906   58.6662   72.3574 C.ar      4 PHE5        0.0000 
     42 CZ         -0.0472   57.4562   72.9672 C.ar      4 PHE5        0.0000 
     43 CZ          2.3532   68.9819   67.4766 C.ar      4 PHE5        0.0000 
     44 CA          0.3919   69.4761   66.8371 C.3       5 GLY6        0.0000 
     45 NZ          1.0353   68.2661   67.4469 N.2       3 LYS4        0.0000 
     46 CZ          1.6787   67.0562   68.0568 C.ar      4 PHE5        0.0000 
     47 CZ          2.3222   65.8462   68.6666 C.ar      4 PHE5        0.0000 
     48 CZ          2.9656   64.6362   69.2765 C.ar      4 PHE5        0.0000 
     49 CZ          3.6090   63.4262   69.8863 C.ar      4 PHE5        0.0000 
     50 CA          4.2524   62.2162   70.4962 C.3       5 GLY6        0.0000 
     51 N           4.8958   61.0062   71.1060 N.2       2 ALA2        0.0000 
     52 CA          5.5393   59.7962   71.7159 C.3       5 GLY6        0.0000 
     53 N          -0.9260   68.7604   66.8074 N.2       2 ALA2        0.0000 
     54 CA         -0.2826   67.5504   67.4172 C.3       5 GLY6        0.0000 
     55 OG          0.3609   66.3404   68.0271 O.2       1 SER1        0.0000 
     56 OG          1.6477   63.9204   69.2468 O.2       1 SER1        0.0000 
     57 OG          2.2911   62.7104   69.8566 O.2       1 SER1        0.0000 
     58 DU          2.9345   61.5004   70.4665 H         6 CUB7        0.0000 
     59 N           3.5780   60.2904   71.0763 N.2       2 ALA2        0.0000 
     60 CA          4.2214   59.0804   71.6862 C.3       5 GLY6        0.0000 
     61 N          -2.2439   68.0446   66.7777 N.2       2 ALA2        0.0000 
     62 CA         -1.6004   66.8346   67.3875 C.3       5 GLY6        0.0000 
     63 CZ         -0.9570   65.6246   67.9974 C.ar      4 PHE5        0.0000 
     64 CZ          0.9732   61.9947   69.8269 C.ar      4 PHE5        0.0000 
     65 CZ          1.6167   60.7847   70.4368 C.ar      4 PHE5        0.0000 
     66 CZ          2.2601   59.5747   71.0466 C.ar      4 PHE5        0.0000 
     67 N           2.9035   58.3647   71.6565 N.2       2 ALA2        0.0000 
     68 CZ          1.5856   57.6489   71.6268 C.ar      4 PHE5        0.0000 
     69 CZ          3.9860   69.1746   66.1362 C.ar      4 PHE5        0.0000 
     70 CZ          2.6682   68.4588   66.1065 C.ar      4 PHE5        0.0000 
     71 CZ          3.3116   67.2488   66.7163 C.ar      4 PHE5        0.0000 
     72 CA          0.7068   68.9531   65.4669 C.3       5 GLY6        0.0000 
     73 DU          1.3503   67.7431   66.0768 H         6 CUB7        0.0000 
     74 OG          1.9937   66.5331   66.6866 O.2       1 SER1        0.0000 
     75 OG          3.2805   64.1131   67.9063 O.2       1 SER1        0.0000 
     76 CZ          3.9240   62.9031   68.5162 C.ar      4 PHE5        0.0000 
     77 CZ          4.5674   61.6931   69.1260 C.ar      4 PHE5        0.0000 
     78 CZ          5.2108   60.4831   69.7359 C.ar      4 PHE5        0.0000 
     79 OG         -0.6110   68.2373   65.4373 O.2       1 SER1        0.0000 
     80 OG          0.0324   67.0273   66.0471 O.2       1 SER1        0.0000 
     81 OG          2.6061   62.1873   68.4865 O.2       1 SER1        0.0000 
     82 CZ          3.2495   60.9773   69.0964 C.ar      4 PHE5        0.0000 
     83 O           3.8929   59.7673   69.7062 O.2       2 ALA2        0.0000 
     84 O           4.5363   58.5573   70.3161 O.2       2 ALA2        0.0000 
     85 OG         -1.9289   67.5216   65.4076 O.2       1 SER1        0.0000 
     86 CZ          2.5750   59.0516   69.6765 C.ar      4 PHE5        0.0000 
     87 N           3.2185   57.8416   70.2864 N.2       2 ALA2        0.0000 
     88 N           5.6189   69.3673   64.7958 N.2       2 ALA2        0.0000 
     89 N           6.2623   68.1573   65.4056 N.2       2 ALA2        0.0000 
     90 CZ          4.3010   68.6515   64.7661 C.ar      4 PHE5        0.0000 
     91 CZ          4.9444   67.4415   65.3759 C.ar      4 PHE5        0.0000 
     92 CZ          5.5878   66.2315   65.9858 C.ar      4 PHE5        0.0000 
     93 CA          2.3397   69.1458   64.1265 C.3       5 GLY6        0.0000 
     94 DU          2.9831   67.9358   64.7364 H         6 CUB7        0.0000 
     95 CZ          3.6265   66.7258   65.3462 C.ar      4 PHE5        0.0000 
     96 CZ          4.2699   65.5158   65.9561 C.ar      4 PHE5        0.0000 
     97 CA          0.3784   69.6400   63.4870 C.3       5 GLY6        0.0000 
     98 CA          1.0218   68.4300   64.0968 C.3       5 GLY6        0.0000 
     99 OG          1.6652   67.2200   64.7067 O.2       1 SER1        0.0000 
    100 OG          2.3086   66.0100   65.3165 O.2       1 SER1        0.0000 
    101 N          -0.9395   68.9242   63.4573 N.2       2 ALA2        0.0000 
    102 OG         -0.2961   67.7142   64.0671 O.2       1 SER1        0.0000 
    103 CZ          5.2904   70.0542   62.8158 C.ar      4 PHE5        0.0000 
    104 N           5.9338   68.8442   63.4256 N.2       2 ALA2        0.0000 
    105 CA          6.5772   67.6342   64.0355 C.3       5 GLY6        0.0000 
    106 CZ          3.9725   69.3384   62.7861 C.ar      4 PHE5        0.0000 
    107 DU          4.6159   68.1284   63.3960 H         6 CUB7        0.0000 
    108 CA          5.2594   66.9184   64.0058 C.3       5 GLY6        0.0000 
    109 CA          5.9028   65.7084   64.6157 C.3       5 GLY6        0.0000 
    110 CZ          2.6546   68.6227   62.7564 C.ar      4 PHE5        0.0000 
    111 CA          3.2981   67.4127   63.3663 C.3       5 GLY6        0.0000 
    112 CA          3.9415   66.2027   63.9761 C.3       5 GLY6        0.0000 
    113 CZ          4.5849   64.9927   64.5860 C.ar      4 PHE5        0.0000 
    114 CZ          0.6933   69.1169   62.1169 C.ar      4 PHE5        0.0000 
    115 CA          1.3367   67.9069   62.7267 C.3       5 GLY6        0.0000 
    116 CA          1.9802   66.6969   63.3366 C.3       5 GLY6        0.0000 
    117 CA          2.6236   65.4869   63.9464 C.3       5 GLY6        0.0000 
    118 OG          3.2670   64.2769   64.5563 O.2       1 SER1        0.0000 
    119 CA         -0.6246   68.4012   62.0872 C.3       5 GLY6        0.0000 
    120 OG          0.0189   67.1912   62.6970 O.2       1 SER1        0.0000 
    121 NZ          6.2488   68.3211   62.0555 N.2       3 LYS4        0.0000 
    122 CZ          4.2875   68.8154   61.4160 C.ar      4 PHE5        0.0000 
    123 NZ          4.9309   67.6054   62.0258 N.2       3 LYS4        0.0000 
    124 CA          5.5743   66.3954   62.6357 C.3       5 GLY6        0.0000 
    125 OG          2.3262   69.3096   60.7765 O.2       1 SER1        0.0000 
    126 O           2.9696   68.0996   61.3863 O.2       2 ALA2        0.0000 
    127 CA          3.6130   66.8896   61.9962 C.3       5 GLY6        0.0000 
    128 N           4.2564   65.6796   62.6060 N.2       2 ALA2        0.0000 
    129 OG          1.0083   68.5939   60.7468 O.2       1 SER1        0.0000 
    130 CA          1.6517   67.3839   61.3566 C.3       5 GLY6        0.0000 
    131 N           3.2845   67.5765   60.0162 N.2       2 ALA2        0.0000 
@<TRIPOS>BOND
@<TRIPOS>SUBSTRUCTURE
     1 SER1        4 GROUP   
     2 ALA2        1 GROUP   
     3 LYS4        7 GROUP   
     4 PHE5        8 GROUP   
     5 GLY6        9 GROUP   
     6 CUB7        6 GROUP   
@<TRIPOS>SET

