#    Name: 1GPN_1_CAVITY_N1_6.mol2
#    Modification time : Tue Mar 11 02:17:37 2014

@<TRIPOS>MOLECULE
1GPN_1_CAVITY_N1_6.mol2
   78     0     6     0     0
SMALL
NO_CHARGES


@<TRIPOS>ATOM
      1 NZ          1.3638   67.5792   69.4269 N.2       3 LYS4        0.0000 
      2 CZ          2.0072   66.3692   70.0367 C.ar      4 PHE5        0.0000 
      3 CZ          2.6506   65.1592   70.6466 C.ar      4 PHE5        0.0000 
      4 CA          0.0459   66.8635   69.3972 C.3       5 GLY6        0.0000 
      5 CZ          0.6893   65.6535   70.0070 C.ar      4 PHE5        0.0000 
      6 CZ          2.3532   68.9819   67.4766 C.ar      4 PHE5        0.0000 
      7 CA          0.3919   69.4761   66.8371 C.3       5 GLY6        0.0000 
      8 NZ          1.0353   68.2661   67.4469 N.2       3 LYS4        0.0000 
      9 CZ          1.6787   67.0562   68.0568 C.ar      4 PHE5        0.0000 
     10 CZ          2.3222   65.8462   68.6666 C.ar      4 PHE5        0.0000 
     11 CZ          2.9656   64.6362   69.2765 C.ar      4 PHE5        0.0000 
     12 CZ          3.6090   63.4262   69.8863 C.ar      4 PHE5        0.0000 
     13 N          -0.9260   68.7604   66.8074 N.2       2 ALA2        0.0000 
     14 CA         -0.2826   67.5504   67.4172 C.3       5 GLY6        0.0000 
     15 OG          0.3609   66.3404   68.0271 O.2       1 SER1        0.0000 
     16 OG          1.6477   63.9204   69.2468 O.2       1 SER1        0.0000 
     17 OG          2.2911   62.7104   69.8566 O.2       1 SER1        0.0000 
     18 N          -2.2439   68.0446   66.7777 N.2       2 ALA2        0.0000 
     19 CA         -1.6004   66.8346   67.3875 C.3       5 GLY6        0.0000 
     20 CZ         -0.9570   65.6246   67.9974 C.ar      4 PHE5        0.0000 
     21 CZ          3.9860   69.1746   66.1362 C.ar      4 PHE5        0.0000 
     22 CZ          2.6682   68.4588   66.1065 C.ar      4 PHE5        0.0000 
     23 CZ          3.3116   67.2488   66.7163 C.ar      4 PHE5        0.0000 
     24 CA          0.7068   68.9531   65.4669 C.3       5 GLY6        0.0000 
     25 DU          1.3503   67.7431   66.0768 H         6 CUB7        0.0000 
     26 OG          1.9937   66.5331   66.6866 O.2       1 SER1        0.0000 
     27 OG          3.2805   64.1131   67.9063 O.2       1 SER1        0.0000 
     28 CZ          3.9240   62.9031   68.5162 C.ar      4 PHE5        0.0000 
     29 CZ          4.5674   61.6931   69.1260 C.ar      4 PHE5        0.0000 
     30 OG         -0.6110   68.2373   65.4373 O.2       1 SER1        0.0000 
     31 OG          0.0324   67.0273   66.0471 O.2       1 SER1        0.0000 
     32 OG          2.6061   62.1873   68.4865 O.2       1 SER1        0.0000 
     33 CZ          3.2495   60.9773   69.0964 C.ar      4 PHE5        0.0000 
     34 OG         -1.9289   67.5216   65.4076 O.2       1 SER1        0.0000 
     35 N           5.6189   69.3673   64.7958 N.2       2 ALA2        0.0000 
     36 N           6.2623   68.1573   65.4056 N.2       2 ALA2        0.0000 
     37 CZ          4.3010   68.6515   64.7661 C.ar      4 PHE5        0.0000 
     38 CZ          4.9444   67.4415   65.3759 C.ar      4 PHE5        0.0000 
     39 CZ          5.5878   66.2315   65.9858 C.ar      4 PHE5        0.0000 
     40 CA          2.3397   69.1458   64.1265 C.3       5 GLY6        0.0000 
     41 DU          2.9831   67.9358   64.7364 H         6 CUB7        0.0000 
     42 CZ          3.6265   66.7258   65.3462 C.ar      4 PHE5        0.0000 
     43 CZ          4.2699   65.5158   65.9561 C.ar      4 PHE5        0.0000 
     44 CA          0.3784   69.6400   63.4870 C.3       5 GLY6        0.0000 
     45 CA          1.0218   68.4300   64.0968 C.3       5 GLY6        0.0000 
     46 OG          1.6652   67.2200   64.7067 O.2       1 SER1        0.0000 
     47 OG          2.3086   66.0100   65.3165 O.2       1 SER1        0.0000 
     48 N          -0.9395   68.9242   63.4573 N.2       2 ALA2        0.0000 
     49 OG         -0.2961   67.7142   64.0671 O.2       1 SER1        0.0000 
     50 CZ          5.2904   70.0542   62.8158 C.ar      4 PHE5        0.0000 
     51 N           5.9338   68.8442   63.4256 N.2       2 ALA2        0.0000 
     52 CA          6.5772   67.6342   64.0355 C.3       5 GLY6        0.0000 
     53 CZ          3.9725   69.3384   62.7861 C.ar      4 PHE5        0.0000 
     54 DU          4.6159   68.1284   63.3960 H         6 CUB7        0.0000 
     55 CA          5.2594   66.9184   64.0058 C.3       5 GLY6        0.0000 
     56 CA          5.9028   65.7084   64.6157 C.3       5 GLY6        0.0000 
     57 CZ          2.6546   68.6227   62.7564 C.ar      4 PHE5        0.0000 
     58 CA          3.2981   67.4127   63.3663 C.3       5 GLY6        0.0000 
     59 CA          3.9415   66.2027   63.9761 C.3       5 GLY6        0.0000 
     60 CZ          4.5849   64.9927   64.5860 C.ar      4 PHE5        0.0000 
     61 CZ          0.6933   69.1169   62.1169 C.ar      4 PHE5        0.0000 
     62 CA          1.3367   67.9069   62.7267 C.3       5 GLY6        0.0000 
     63 CA          1.9802   66.6969   63.3366 C.3       5 GLY6        0.0000 
     64 CA          2.6236   65.4869   63.9464 C.3       5 GLY6        0.0000 
     65 OG          3.2670   64.2769   64.5563 O.2       1 SER1        0.0000 
     66 CA         -0.6246   68.4012   62.0872 C.3       5 GLY6        0.0000 
     67 OG          0.0189   67.1912   62.6970 O.2       1 SER1        0.0000 
     68 NZ          6.2488   68.3211   62.0555 N.2       3 LYS4        0.0000 
     69 CZ          4.2875   68.8154   61.4160 C.ar      4 PHE5        0.0000 
     70 NZ          4.9309   67.6054   62.0258 N.2       3 LYS4        0.0000 
     71 CA          5.5743   66.3954   62.6357 C.3       5 GLY6        0.0000 
     72 OG          2.3262   69.3096   60.7765 O.2       1 SER1        0.0000 
     73 O           2.9696   68.0996   61.3863 O.2       2 ALA2        0.0000 
     74 CA          3.6130   66.8896   61.9962 C.3       5 GLY6        0.0000 
     75 N           4.2564   65.6796   62.6060 N.2       2 ALA2        0.0000 
     76 OG          1.0083   68.5939   60.7468 O.2       1 SER1        0.0000 
     77 CA          1.6517   67.3839   61.3566 C.3       5 GLY6        0.0000 
     78 N           3.2845   67.5765   60.0162 N.2       2 ALA2        0.0000 
@<TRIPOS>BOND
@<TRIPOS>SUBSTRUCTURE
     1 SER1       15 GROUP   
     2 ALA2       13 GROUP   
     3 LYS4        1 GROUP   
     4 PHE5        2 GROUP   
     5 GLY6        4 GROUP   
     6 CUB7       25 GROUP   
@<TRIPOS>SET

