#    Name: 1gpn_HUB_1_INTS_M
#    Modification time : Tue Mar 25 03:27:19 2014

@<TRIPOS>MOLECULE
1gpn_HUB_1_INTS_M
   54     0     9     0     0
SMALL
NO_CHARGES


@<TRIPOS>ATOM
      1 N           1.2785   69.9165   59.4000 N.am      2 SEC2        0.0000 
      2 N           0.4400   69.2080   60.1960 N.am      8 SEL2        0.0000 
      3 N           2.1170   70.6250   58.6040 N.am      5 SEP2        0.0000 
      4 O           2.9820   68.3415   59.6345 O.2       1 ALC1        0.0000 
      5 O           2.3530   68.2650   60.9830 O.2       7 ALL1        0.0000 
      6 O           3.6110   68.4180   58.2860 O.2       4 ALP1        0.0000 
      7 CA         -1.0555   68.2745   61.3030 C.3       3 GLC5        0.0000 
      8 CA          0.5440   68.7450   62.5170 C.3       9 GLL5        0.0000 
      9 CA         -2.6550   67.8040   60.0890 C.3       6 GLP5        0.0000 
     10 CA          2.8475   66.0495   61.5415 C.3       3 GLC5        0.0000 
     11 CA          4.5200   67.2110   61.6300 C.3       9 GLL5        0.0000 
     12 CA          1.1750   64.8880   61.4530 C.3       6 GLP5        0.0000 
     13 CA          5.1980   68.8840   67.3215 C.3       3 GLC5        0.0000 
     14 CA          5.1250   69.4560   65.4310 C.3       9 GLL5        0.0000 
     15 CA          5.2710   68.3120   69.2120 C.3       6 GLP5        0.0000 
     16 CA          1.5780   64.2385   65.4810 C.3       3 GLC5        0.0000 
     17 CA          3.1120   65.6420   64.7490 C.3       9 GLL5        0.0000 
     18 CA          0.0440   62.8350   66.2130 C.3       6 GLP5        0.0000 
     19 CA          2.3200   64.0510   62.7700 C.3       3 GLC5        0.0000 
     20 CA          3.4650   63.2140   64.0870 C.3       9 GLL5        0.0000 
     21 CA          2.7395   62.1795   62.8935 C.3       3 GLC5        0.0000 
     22 CA          2.0140   61.1450   61.7000 C.3       6 GLP5        0.0000 
     23 CA          1.9510   62.4795   64.7685 C.3       3 GLC5        0.0000 
     24 CA          0.4370   61.7450   65.4500 C.3       6 GLP5        0.0000 
     25 CA          3.9515   61.5110   64.4765 C.3       3 GLC5        0.0000 
     26 CA          4.4380   59.8080   64.8660 C.3       6 GLP5        0.0000 
     27 CA          4.9230   62.8060   65.4675 C.3       3 GLC5        0.0000 
     28 CA          6.3810   62.3980   66.8480 C.3       6 GLP5        0.0000 
     29 CA          2.9100   70.7995   65.3895 C.3       3 GLC5        0.0000 
     30 CA          3.6510   69.3860   65.8010 C.3       9 GLL5        0.0000 
     31 CA          2.1690   72.2130   64.9780 C.3       6 GLP5        0.0000 
     32 CA          4.0650   68.2990   67.3710 C.3       3 GLC5        0.0000 
     33 CA          4.4790   67.2120   68.9410 C.3       6 GLP5        0.0000 
     34 CA          0.8465   70.1145   64.0445 C.3       3 GLC5        0.0000 
     35 CA          1.3020   68.2450   63.5450 C.3       9 GLL5        0.0000 
     36 CA          0.7700   71.7340   65.0580 C.3       6 GLP5        0.0000 
     37 CA          1.0490   66.6915   62.2420 C.3       3 GLC5        0.0000 
     38 CA          2.0335   66.3095   62.0688 C.3       3 GLC5        0.0000 
     39 CA          2.6350   67.7280   63.3560 C.3       9 GLL5        0.0000 
     40 CA          5.7227   65.2519   60.9977 C.3       3 GLC5        0.0000 
     41 CA          4.8890   65.0460   63.0240 C.3       9 GLL5        0.0000 
     42 CA          6.5430   64.5460   59.3630 C.3       6 GLP5        0.0000 
     43 CA          5.7735   64.0115   64.7070 C.3       3 GLC5        0.0000 
     44 CA          7.1590   63.1760   65.9560 C.3       6 GLP5        0.0000 
     45 CA          4.7568   70.9565   64.4792 C.3       3 GLC5        0.0000 
     46 CA          5.4320   68.7380   64.1060 C.3       9 GLL5        0.0000 
     47 CA          4.2350   72.8160   64.1900 C.3       6 GLP5        0.0000 
     48 CA          6.8151   65.9587   63.3522 C.3       3 GLC5        0.0000 
     49 CA          5.0240   67.2560   64.1870 C.3       9 GLL5        0.0000 
     50 CA          8.5680   65.3960   63.1420 C.3       6 GLP5        0.0000 
     51 CA          4.1825   66.1968   66.6230 C.3       3 GLC5        0.0000 
     52 CA          3.5160   67.1410   64.5690 C.3       9 GLL5        0.0000 
     53 CA          5.0510   66.0020   68.5870 C.3       6 GLP5        0.0000 
     54 CA          2.4625   65.0662   62.7782 C.3       3 GLC5        0.0000 
@<TRIPOS>BOND
@<TRIPOS>SUBSTRUCTURE
     1 ALC1        4 GROUP        1 X    ALC  0     ROOT ALC X 1
     2 SEC2        1 GROUP        1 X    SEC  0     **** SEC X 2
     3 GLC5        7 GROUP        1 X    GLC  0     **** GLC X 6
     4 ALP1        6 GROUP        1 Y    ALP  0     ROOT ALP Y 8
     5 SEP2        3 GROUP        1 Y    SEP  0     **** SEP Y 9
     6 GLP5        9 GROUP        1 Y    GLP  0     **** GLP Y 13
     7 ALL1        5 GROUP        1 Z    ALL  0     ROOT ALL Z 15
     8 SEL2        2 GROUP        1 Z    SEL  0     **** SEL Z 16
     9 GLL5        8 GROUP        1 Z    GLL  0     **** GLL Z 20
@<TRIPOS>SET

