#    Name: 1gpn_HUB_1_ligand
#    Modification time : Tue Mar 25 03:27:20 2014

@<TRIPOS>MOLECULE
1gpn_HUB_1_ligand
   38    41     1     0     0
SMALL
NO_CHARGES


@<TRIPOS>ATOM
      1 C1          1.0680   68.7710   61.1630 C.2       1 HUB1538     0.0000 
      2 O1          0.4400   69.2080   60.1960 O.2       1 HUB1538     0.0000 
      3 N1          2.3530   68.2650   60.9830 N.am      1 HUB1538     0.0000 
      4 C2          0.5440   68.7450   62.5170 C.2       1 HUB1538     0.0000 
      5 C3          1.3020   68.2450   63.5450 C.2       1 HUB1538     0.0000 
      6 C4          2.6350   67.7280   63.3560 C.2       1 HUB1538     0.0000 
      7 C5          3.1490   67.7340   62.0130 C.2       1 HUB1538     0.0000 
      8 C6          4.5200   67.2110   61.6300 C.3       1 HUB1538     0.0000 
      9 C7          5.3120   66.5280   62.8520 C.3       1 HUB1538     0.0000 
     10 C8          4.8890   65.0460   63.0240 C.2       1 HUB1538     0.0000 
     11 C9          5.1250   69.4560   65.4310 C.3       1 HUB1538     0.0000 
     12 C10         5.4320   68.7380   64.1060 C.3       1 HUB1538     0.0000 
     13 C11         5.0240   67.2560   64.1870 C.3       1 HUB1538     0.0000 
     14 C12         3.5160   67.1410   64.5690 C.3       1 HUB1538     0.0000 
     15 N2          3.2390   67.8790   65.8580 N.4       1 HUB1538     0.0000 
     16 C13         3.1120   65.6420   64.7490 C.3       1 HUB1538     0.0000 
     17 C14         3.8870   64.6480   63.8920 C.2       1 HUB1538     0.0000 
     18 C15         3.4650   63.2140   64.0870 C.3       1 HUB1538     0.0000 
     19 C90         3.6510   69.3860   65.8010 C.3       1 HUB1538     0.0000 
     20 H           2.7619   68.2788   60.0087 H         1 HUB1538     0.0000 
     21 H          -0.4011   69.1104   62.6688 H         1 HUB1538     0.0000 
     22 H           0.9236   68.2250   64.5178 H         1 HUB1538     0.0000 
     23 H           5.1501   68.0237   61.2573 H         1 HUB1538     0.0000 
     24 H           4.4363   66.4555   60.8435 H         1 HUB1538     0.0000 
     25 H           6.3540   66.5716   62.6433 H         1 HUB1538     0.0000 
     26 H           5.4143   64.3854   62.4404 H         1 HUB1538     0.0000 
     27 H           5.4285   70.5045   65.3418 H         1 HUB1538     0.0000 
     28 H           5.7221   68.9975   66.2265 H         1 HUB1538     0.0000 
     29 H           6.4958   68.8042   63.9017 H         1 HUB1538     0.0000 
     30 H           4.8795   69.2165   63.3038 H         1 HUB1538     0.0000 
     31 H           5.6015   66.7827   64.9688 H         1 HUB1538     0.0000 
     32 H           2.0322   65.5527   64.5288 H         1 HUB1538     0.0000 
     33 H           3.2376   65.3825   65.8164 H         1 HUB1538     0.0000 
     34 H           3.0564   69.8745   65.0522 H         1 HUB1538     0.0000 
     35 H           3.4900   69.8209   66.7694 H         1 HUB1538     0.0000 
     36 H           4.2203   62.6457   64.4135 H         1 HUB1538     0.0000 
     37 H           2.7261   63.1320   64.7558 H         1 HUB1538     0.0000 
     38 H           3.1367   62.8044   63.2358 H         1 HUB1538     0.0000 
@<TRIPOS>BOND
     1    2    1 2    
     2    3    1 am   
     3    4    1 1    
     4    7    3 1    
     5   20    3 1    
     6    5    4 2    
     7   21    4 1    
     8    6    5 1    
     9   22    5 1    
    10    7    6 2    
    11   14    6 1    
    12    8    7 1    
    13    9    8 1    
    14   23    8 1    
    15   24    8 1    
    16   10    9 1    
    17   13    9 1    
    18   25    9 1    
    19   17   10 2    
    20   26   10 1    
    21   12   11 1    
    22   19   11 1    
    23   27   11 1    
    24   28   11 1    
    25   13   12 1    
    26   29   12 1    
    27   30   12 1    
    28   14   13 1    
    29   31   13 1    
    30   15   14 1    
    31   16   14 1    
    32   19   15 1    
    33   17   16 1    
    34   32   16 1    
    35   33   16 1    
    36   18   17 1    
    37   36   18 1    
    38   37   18 1    
    39   38   18 1    
    40   34   19 1    
    41   35   19 1    
@<TRIPOS>SUBSTRUCTURE
     1 HUB1538     1 GROUP   
@<TRIPOS>SET

