#    Name: 4a5y_G7X_1_INTS_M
#    Modification time : Tue Mar 25 05:01:32 2014

@<TRIPOS>MOLECULE
4a5y_G7X_1_INTS_M
   84     0     9     0     0
SMALL
NO_CHARGES


@<TRIPOS>ATOM
      1 CA          6.9780   44.2795   49.0640 C.3       3 GLC5        0.0000 
      2 CA          8.5430   43.7870   47.9900 C.3       9 GLL5        0.0000 
      3 CA          5.4130   44.7720   50.1380 C.3       6 GLP5        0.0000 
      4 CA          7.2050   44.2285   46.6080 C.3       3 GLC5        0.0000 
      5 CA          5.8670   44.6700   45.2260 C.3       6 GLP5        0.0000 
      6 OD1        15.9935   45.6875   42.1420 O.co2     2 ASC3        0.0000 
      7 OD1        16.3200   46.3890   43.3570 O.co2     8 ASL3        0.0000 
      8 OD1        15.6670   44.9860   40.9270 O.co2     5 ASP3        0.0000 
      9 O          15.9935   45.6875   42.1420 O.2       1 ALC1        0.0000 
     10 O          16.3200   46.3890   43.3570 O.2       7 ALL1        0.0000 
     11 O          15.6670   44.9860   40.9270 O.2       4 ALP1        0.0000 
     12 CA         14.1130   39.4385   48.7405 C.3       3 GLC5        0.0000 
     13 CA         15.0580   40.4750   47.4760 C.3       9 GLL5        0.0000 
     14 CA         13.1680   38.4020   50.0050 C.3       6 GLP5        0.0000 
     15 CA         16.4795   39.2430   47.9235 C.3       3 GLC5        0.0000 
     16 CA         17.9010   38.0110   48.3710 C.3       6 GLP5        0.0000 
     17 CA         12.7530   38.4145   47.0260 C.3       3 GLC5        0.0000 
     18 CA         13.8910   39.1890   45.6780 C.3       9 GLL5        0.0000 
     19 CA         11.6150   37.6400   48.3740 C.3       6 GLP5        0.0000 
     20 CA         14.2795   38.3685   44.0320 C.3       3 GLC5        0.0000 
     21 CA         14.6680   37.5480   42.3860 C.3       6 GLP5        0.0000 
     22 CA         18.2370   41.0720   42.8150 C.3       3 GLC5        0.0000 
     23 CA         16.8280   41.0360   41.4230 C.3       9 GLL5        0.0000 
     24 CA         19.6460   41.1080   44.2070 C.3       6 GLP5        0.0000 
     25 CA         20.1035   40.4685   37.7995 C.3       3 GLC5        0.0000 
     26 CA         18.6190   40.6420   39.4680 C.3       9 GLL5        0.0000 
     27 CA         21.5880   40.2950   36.1310 C.3       6 GLP5        0.0000 
     28 CA         19.5780   38.9555   40.3885 C.3       3 GLC5        0.0000 
     29 CA         20.5370   37.2690   41.3090 C.3       6 GLP5        0.0000 
     30 CA         19.6145   40.6230   41.2935 C.3       3 GLC5        0.0000 
     31 CA         20.6100   40.6040   43.1190 C.3       6 GLP5        0.0000 
     32 CA         19.9345   42.1860   39.0330 C.3       3 GLC5        0.0000 
     33 CA         21.2500   43.7300   38.5980 C.3       6 GLP5        0.0000 
     34 CA         16.9400   40.3450   37.9375 C.3       3 GLC5        0.0000 
     35 CA         15.9690   41.3560   39.1650 C.3       9 GLL5        0.0000 
     36 CA         17.9110   39.3340   36.7100 C.3       6 GLP5        0.0000 
     37 CA         13.2100   41.9855   38.3245 C.3       3 GLC5        0.0000 
     38 CA         14.7520   41.6690   39.7060 C.3       9 GLL5        0.0000 
     39 CA         11.6680   42.3020   36.9430 C.3       6 GLP5        0.0000 
     40 CA         13.6035   39.7445   40.9815 C.3       3 GLC5        0.0000 
     41 CA         14.5730   41.6610   41.0890 C.3       9 GLL5        0.0000 
     42 CA         12.6340   37.8280   40.8740 C.3       6 GLP5        0.0000 
     43 CA         12.3870   44.0270   42.2840 C.3       3 GLC5        0.0000 
     44 CA         11.8970   42.3240   43.6360 C.3       9 GLL5        0.0000 
     45 CA         12.8770   45.7300   40.9320 C.3       6 GLP5        0.0000 
     46 CA          9.9510   42.5270   43.2105 C.3       3 GLC5        0.0000 
     47 CA          8.0050   42.7300   42.7850 C.3       6 GLP5        0.0000 
     48 CA          8.9830   40.1635   47.3160 C.3       3 GLC5        0.0000 
     49 CA         10.1110   39.8190   45.7860 C.3       9 GLL5        0.0000 
     50 CA          7.8550   40.5080   48.8460 C.3       6 GLP5        0.0000 
     51 CA         10.1520   36.9900   42.8175 C.3       3 GLC5        0.0000 
     52 CA         10.1710   38.9670   43.5320 C.3       9 GLL5        0.0000 
     53 CA         10.1330   35.0130   42.1030 C.3       6 GLP5        0.0000 
     54 CA         10.5495   40.2905   41.0110 C.3       3 GLC5        0.0000 
     55 CA         10.8660   40.1140   43.1390 C.3       9 GLL5        0.0000 
     56 CA         10.2330   40.4670   38.8830 C.3       6 GLP5        0.0000 
     57 CA         11.7595   44.4875   49.6842 C.3       3 GLC5        0.0000 
     58 CA         12.2920   43.1380   48.1380 C.3       9 GLL5        0.0000 
     59 CA         11.9080   45.8540   51.0760 C.3       6 GLP5        0.0000 
     60 CA          8.6831   42.0644   48.4321 C.3       3 GLC5        0.0000 
     61 CA         11.2325   46.4345   46.7192 C.3       3 GLC5        0.0000 
     62 CA         10.4790   44.5450   46.5560 C.3       9 GLL5        0.0000 
     63 CA         11.3110   48.3010   47.0380 C.3       6 GLP5        0.0000 
     64 CA         10.3332   45.3948   48.7725 C.3       3 GLC5        0.0000 
     65 CA         10.7840   46.6190   50.3580 C.3       6 GLP5        0.0000 
     66 CA         17.9733   42.3702   44.5757 C.3       3 GLC5        0.0000 
     67 CA         16.2100   43.1330   45.5350 C.3       9 GLL5        0.0000 
     68 CA         16.1097   38.6670   45.8217 C.3       3 GLC5        0.0000 
     69 CA         14.7940   40.3890   45.9670 C.3       9 GLL5        0.0000 
     70 CA         17.8770   37.5450   45.8210 C.3       6 GLP5        0.0000 
     71 CA         15.4402   39.3690   42.0388 C.3       3 GLC5        0.0000 
     72 CA         15.5970   41.3440   41.9600 C.3       9 GLL5        0.0000 
     73 CA         17.8652   40.0880   38.2327 C.3       3 GLC5        0.0000 
     74 CA         17.0200   41.0420   40.0430 C.3       9 GLL5        0.0000 
     75 CA         14.1197   43.4450   40.0263 C.3       3 GLC5        0.0000 
     76 CA         13.5770   45.2250   39.6550 C.3       6 GLP5        0.0000 
     77 CA         15.2186   39.4170   39.7445 C.3       3 GLC5        0.0000 
     78 CA         14.8140   37.4000   39.8340 C.3       6 GLP5        0.0000 
     79 CA          9.2565   41.1937   43.9965 C.3       3 GLC5        0.0000 
     80 CA         11.1740   41.0950   44.0760 C.3       9 GLL5        0.0000 
     81 CA          7.5330   41.3550   43.2570 C.3       6 GLP5        0.0000 
     82 CA          8.7447   40.3392   44.2908 C.3       3 GLC5        0.0000 
     83 CA          9.0258   40.4477   43.2963 C.3       3 GLC5        0.0000 
     84 CA         11.5762   38.6843   42.1048 C.3       3 GLC5        0.0000 
@<TRIPOS>BOND
@<TRIPOS>SUBSTRUCTURE
     1 ALC1        9 GROUP        1 X    ALC  0     ROOT ALC X 1
     2 ASC3        6 GROUP        1 X    ASC  0     **** ASC X 3
     3 GLC5        1 GROUP        1 X    GLC  0     **** GLC X 6
     4 ALP1       11 GROUP        1 Y    ALP  0     ROOT ALP Y 8
     5 ASP3        8 GROUP        1 Y    ASP  0     **** ASP Y 10
     6 GLP5        3 GROUP        1 Y    GLP  0     **** GLP Y 13
     7 ALL1       10 GROUP        1 Z    ALL  0     ROOT ALL Z 15
     8 ASL3        7 GROUP        1 Z    ASL  0     **** ASL Z 17
     9 GLL5        2 GROUP        1 Z    GLL  0     **** GLL Z 20
@<TRIPOS>SET

