#    Name: 4a5y_G7X_1_ligand
#    Modification time : Tue Mar 25 05:01:32 2014

@<TRIPOS>MOLECULE
4a5y_G7X_1_ligand
   71    74     1     0     0
SMALL
NO_CHARGES


@<TRIPOS>ATOM
      1 CAN        12.2920   43.1380   48.1380 C.ar      1 G7X1365     0.0000 
      2 CAO        10.9300   43.1040   48.4470 C.ar      1 G7X1365     0.0000 
      3 CAY        10.0290   43.8050   47.6460 C.ar      1 G7X1365     0.0000 
      4 CAZ         8.5430   43.7870   47.9900 C.3       1 G7X1365     0.0000 
      5 CAX        10.4790   44.5450   46.5560 C.ar      1 G7X1365     0.0000 
      6 CAW        11.8290   44.5910   46.2450 C.ar      1 G7X1365     0.0000 
      7 CAM        12.7310   43.8590   47.0270 C.ar      1 G7X1365     0.0000 
      8 CAL        14.2130   43.9240   46.6480 C.2       1 G7X1365     0.0000 
      9 OAV        14.8360   44.9190   47.0150 O.2       1 G7X1365     0.0000 
     10 NAK        14.7920   42.9410   45.8950 N.am      1 G7X1365     0.0000 
     11 CAU        16.2100   43.1330   45.5350 C.3       1 G7X1365     0.0000 
     12 CBC        16.3910   44.1320   44.3540 C.3       1 G7X1365     0.0000 
     13 CBD        16.0370   45.6150   44.5950 C.3       1 G7X1365     0.0000 
     14 NBE        16.3200   46.3890   43.3570 N.4       1 G7X1365     0.0000 
     15 CAJ        14.1510   41.6630   45.3950 C.3       1 G7X1365     0.0000 
     16 CAB        14.7940   40.3890   45.9670 C.3       1 G7X1365     0.0000 
     17 CAA        15.0580   40.4750   47.4760 C.3       1 G7X1365     0.0000 
     18 CAC        13.8910   39.1890   45.6780 C.3       1 G7X1365     0.0000 
     19 CAI        14.2600   41.6430   43.8850 C.2       1 G7X1365     0.0000 
     20 NAH        15.4230   41.3340   43.3080 N.2       1 G7X1365     0.0000 
     21 CAG        15.5970   41.3440   41.9600 C.ar      1 G7X1365     0.0000 
     22 CAF        16.8280   41.0360   41.4230 C.ar      1 G7X1365     0.0000 
     23 CAE        17.0200   41.0420   40.0430 C.ar      1 G7X1365     0.0000 
     24 CLD        18.6190   40.6420   39.4680 Cl        1 G7X1365     0.0000 
     25 CAP        15.9690   41.3560   39.1650 C.ar      1 G7X1365     0.0000 
     26 CAQ        14.7520   41.6690   39.7060 C.ar      1 G7X1365     0.0000 
     27 CAR        14.5730   41.6610   41.0890 C.ar      1 G7X1365     0.0000 
     28 CAS        13.3560   41.9840   41.6410 C.2       1 G7X1365     0.0000 
     29 OBA        12.4210   42.2830   40.9100 O.2       1 G7X1365     0.0000 
     30 NAT        13.1900   41.9690   43.0410 N.am      1 G7X1365     0.0000 
     31 CBB        11.8970   42.3240   43.6360 C.3       1 G7X1365     0.0000 
     32 CBG        11.1740   41.0950   44.0760 C.ar      1 G7X1365     0.0000 
     33 CBH        10.7860   40.9700   45.3960 C.ar      1 G7X1365     0.0000 
     34 CBK        10.1110   39.8190   45.7860 C.ar      1 G7X1365     0.0000 
     35 CBJ         9.8020   38.8280   44.8630 C.ar      1 G7X1365     0.0000 
     36 CBI        10.1710   38.9670   43.5320 C.ar      1 G7X1365     0.0000 
     37 CBF        10.8660   40.1140   43.1390 C.ar      1 G7X1365     0.0000 
     38 H          12.9647   42.6357   48.7248 H         1 G7X1365     0.0000 
     39 H          10.5981   42.5700   49.2529 H         1 G7X1365     0.0000 
     40 H           9.7995   45.0629   45.9762 H         1 G7X1365     0.0000 
     41 H          12.1669   45.1478   45.4595 H         1 G7X1365     0.0000 
     42 H          16.6693   42.1809   45.2369 H         1 G7X1365     0.0000 
     43 H          16.7801   43.5228   46.3890 H         1 G7X1365     0.0000 
     44 H          15.7872   43.7592   43.4919 H         1 G7X1365     0.0000 
     45 H          17.4521   44.0722   44.0118 H         1 G7X1365     0.0000 
     46 H          16.6376   45.9804   45.4205 H         1 G7X1365     0.0000 
     47 H          14.9860   45.6782   44.8540 H         1 G7X1365     0.0000 
     48 H          13.1005   41.6686   45.6537 H         1 G7X1365     0.0000 
     49 H          15.7387   40.2219   45.4594 H         1 G7X1365     0.0000 
     50 H          17.6199   40.7976   42.0433 H         1 G7X1365     0.0000 
     51 H          16.1255   41.3461   38.1614 H         1 G7X1365     0.0000 
     52 H          13.9538   41.9143   39.0966 H         1 G7X1365     0.0000 
     53 H          11.2797   42.8640   42.9069 H         1 G7X1365     0.0000 
     54 H          12.0458   42.9838   44.5002 H         1 G7X1365     0.0000 
     55 H          10.9888   41.7052   46.0739 H         1 G7X1365     0.0000 
     56 H           9.8357   39.6995   46.7758 H         1 G7X1365     0.0000 
     57 H           9.2948   37.9830   45.1691 H         1 G7X1365     0.0000 
     58 H           9.9405   38.2458   42.8483 H         1 G7X1365     0.0000 
     59 H          11.1479   40.2299   42.1585 H         1 G7X1365     0.0000 
     60 H           8.3682   44.1597   48.9013 H         1 G7X1365     0.0000 
     61 H           8.0056   44.3288   47.3437 H         1 G7X1365     0.0000 
     62 H           8.1698   42.8594   47.9762 H         1 G7X1365     0.0000 
     63 H          17.2842   46.3347   43.0973 H         1 G7X1365     0.0000 
     64 H          15.7877   46.0538   42.5796 H         1 G7X1365     0.0000 
     65 H          16.1001   47.3584   43.4666 H         1 G7X1365     0.0000 
     66 H          15.4781   39.6385   47.8278 H         1 G7X1365     0.0000 
     67 H          15.6734   41.2299   47.7029 H         1 G7X1365     0.0000 
     68 H          14.2143   40.6191   47.9930 H         1 G7X1365     0.0000 
     69 H          13.7540   39.0552   44.6965 H         1 G7X1365     0.0000 
     70 H          14.2756   38.3394   46.0388 H         1 G7X1365     0.0000 
     71 H          12.9855   39.2983   46.0881 H         1 G7X1365     0.0000 
@<TRIPOS>BOND
     1    2    1 ar   
     2    7    1 ar   
     3   38    1 1    
     4    3    2 ar   
     5   39    2 1    
     6    4    3 1    
     7    5    3 ar   
     8   60    4 1    
     9   61    4 1    
    10   62    4 1    
    11    6    5 ar   
    12   40    5 1    
    13    7    6 ar   
    14   41    6 1    
    15    8    7 1    
    16    9    8 2    
    17   10    8 am   
    18   11   10 1    
    19   15   10 1    
    20   12   11 1    
    21   42   11 1    
    22   43   11 1    
    23   13   12 1    
    24   44   12 1    
    25   45   12 1    
    26   14   13 1    
    27   46   13 1    
    28   47   13 1    
    29   63   14 1    
    30   64   14 1    
    31   65   14 1    
    32   16   15 1    
    33   19   15 1    
    34   48   15 1    
    35   17   16 1    
    36   18   16 1    
    37   49   16 1    
    38   66   17 1    
    39   67   17 1    
    40   68   17 1    
    41   69   18 1    
    42   70   18 1    
    43   71   18 1    
    44   20   19 2    
    45   30   19 1    
    46   21   20 1    
    47   22   21 ar   
    48   27   21 ar   
    49   23   22 ar   
    50   50   22 1    
    51   24   23 1    
    52   25   23 ar   
    53   26   25 ar   
    54   51   25 1    
    55   27   26 ar   
    56   52   26 1    
    57   28   27 1    
    58   29   28 2    
    59   30   28 am   
    60   31   30 1    
    61   32   31 1    
    62   53   31 1    
    63   54   31 1    
    64   33   32 ar   
    65   37   32 ar   
    66   34   33 ar   
    67   55   33 1    
    68   35   34 ar   
    69   56   34 1    
    70   36   35 ar   
    71   57   35 1    
    72   37   36 ar   
    73   58   36 1    
    74   59   37 1    
@<TRIPOS>SUBSTRUCTURE
     1 G7X1365     1 GROUP   
@<TRIPOS>SET

