#    Name: 1iy0_ANP_1_INTS_M
#    Modification time : Tue Mar 25 08:16:36 2014

@<TRIPOS>MOLECULE
1iy0_ANP_1_INTS_M
   55     0    12     0     0
SMALL
NO_CHARGES


@<TRIPOS>ATOM
      1 NZ         34.0545   18.8220   53.5630 N.4       3 LYC4        0.0000 
      2 NZ         35.3540   18.9010   54.2820 N.4      11 LYL4        0.0000 
      3 NZ         32.7550   18.7430   52.8440 N.4       7 LYP4        0.0000 
      4 N          36.1250   17.5350   54.0470 N.am      2 SEC2        0.0000 
      5 N          35.3540   18.9010   54.2820 N.am     10 SEL2        0.0000 
      6 N          36.8960   16.1690   53.8120 N.am      6 SEP2        0.0000 
      7 N          36.8500   18.6925   53.5320 N.am      2 SEC2        0.0000 
      8 N          38.3460   18.4840   52.7820 N.am      6 SEP2        0.0000 
      9 N          34.0545   18.8220   53.5630 N.am      2 SEC2        0.0000 
     10 N          32.7550   18.7430   52.8440 N.am      6 SEP2        0.0000 
     11 N          35.8815   21.3195   55.5770 N.am      2 SEC2        0.0000 
     12 N          35.2750   20.1590   56.4920 N.am     10 SEL2        0.0000 
     13 N          36.4880   22.4800   54.6620 N.am      6 SEP2        0.0000 
     14 N          35.2455   21.8010   56.7030 N.am      2 SEC2        0.0000 
     15 N          35.2160   23.4430   56.9140 N.am      6 SEP2        0.0000 
     16 N          34.7390   21.0710   57.7885 N.am      2 SEC2        0.0000 
     17 N          34.2030   21.9830   59.0850 N.am      6 SEP2        0.0000 
     18 NZ         33.5395   18.2980   54.5875 N.4       3 LYC4        0.0000 
     19 NZ         34.3240   17.8530   56.3310 N.4      11 LYL4        0.0000 
     20 N          37.6570   23.6330   57.9620 N.am      2 SEC2        0.0000 
     21 N          37.9960   22.4520   58.0250 N.am     10 SEL2        0.0000 
     22 N          37.3180   24.8140   57.8990 N.am      6 SEP2        0.0000 
     23 CA         44.5225   20.5045   56.0415 C.3       4 GLC5        0.0000 
     24 CA         43.8540   21.7170   57.3850 C.3      12 GLL5        0.0000 
     25 CA         45.1910   19.2920   54.6980 C.3       8 GLP5        0.0000 
     26 CA         45.2525   25.2370   51.9195 C.3       4 GLC5        0.0000 
     27 CA         43.7540   24.2260   53.0660 C.3      12 GLL5        0.0000 
     28 CA         46.7510   26.2480   50.7730 C.3       8 GLP5        0.0000 
     29 CA         45.2150   23.4860   52.0125 C.3       4 GLC5        0.0000 
     30 CA         46.6760   22.7460   50.9590 C.3       8 GLP5        0.0000 
     31 O          43.5475   25.0720   50.7720 O.2       1 ALC1        0.0000 
     32 O          43.0730   24.2790   51.8810 O.2       9 ALL1        0.0000 
     33 O          44.0220   25.8650   49.6630 O.2       5 ALP1        0.0000 
     34 N          44.9420   26.3370   52.6190 N.am      2 SEC2        0.0000 
     35 N          44.8250   25.0920   53.3340 N.am     10 SEL2        0.0000 
     36 N          45.0590   27.5820   51.9040 N.am      6 SEP2        0.0000 
     37 CA         44.5760   26.8925   54.0130 C.3       4 GLC5        0.0000 
     38 CA         45.4580   24.9600   54.5580 C.3      12 GLL5        0.0000 
     39 CA         43.6940   28.8250   53.4680 C.3       8 GLP5        0.0000 
     40 CA         46.1045   25.6040   52.6655 C.3       4 GLC5        0.0000 
     41 CA         43.6735   25.5750   55.6095 C.3       4 GLC5        0.0000 
     42 CA         41.8890   26.1900   56.6610 C.3       8 GLP5        0.0000 
     43 CA         46.0670   23.8530   52.7585 C.3       4 GLC5        0.0000 
     44 CA         46.9930   23.9460   54.8145 C.3       4 GLC5        0.0000 
     45 CA         48.5280   22.9320   55.0710 C.3       8 GLP5        0.0000 
     46 CA         46.2920   23.0515   55.1865 C.3       4 GLC5        0.0000 
     47 CA         44.0560   23.1710   55.3020 C.3      12 GLL5        0.0000 
     48 CA         42.1158   24.1303   58.2587 C.3       4 GLC5        0.0000 
     49 CA         42.7410   22.3030   59.4800 C.3      12 GLL5        0.0000 
     50 CA         41.0060   25.7190   57.5780 C.3       8 GLP5        0.0000 
     51 CA         42.8005   24.7007   55.6748 C.3       4 GLC5        0.0000 
     52 CA         44.4515   21.2518   54.6932 C.3       4 GLC5        0.0000 
     53 CA         44.9189   21.6457   59.5039 C.3       4 GLC5        0.0000 
     54 CA         43.7100   22.7800   58.3990 C.3      12 GLL5        0.0000 
     55 CA         46.6390   21.3790   60.3810 C.3       8 GLP5        0.0000 
@<TRIPOS>BOND
@<TRIPOS>SUBSTRUCTURE
     1 ALC1       31 GROUP        1 X    ALC  0     ROOT ALC X 1
     2 SEC2        4 GROUP        1 X    SEC  0     **** SEC X 2
     3 LYC4        1 GROUP        1 X    LYC  0     **** LYC X 4
     4 GLC5       23 GROUP        1 X    GLC  0     **** GLC X 6
     5 ALP1       33 GROUP        1 Y    ALP  0     ROOT ALP Y 8
     6 SEP2        6 GROUP        1 Y    SEP  0     **** SEP Y 9
     7 LYP4        3 GROUP        1 Y    LYP  0     **** LYP Y 11
     8 GLP5       25 GROUP        1 Y    GLP  0     **** GLP Y 13
     9 ALL1       32 GROUP        1 Z    ALL  0     ROOT ALL Z 15
    10 SEL2        5 GROUP        1 Z    SEL  0     **** SEL Z 16
    11 LYL4        2 GROUP        1 Z    LYL  0     **** LYL Z 18
    12 GLL5       24 GROUP        1 Z    GLL  0     **** GLL Z 20
@<TRIPOS>SET

