#    Name: 1iy0_ANP_1_ligand
#    Modification time : Tue Mar 25 08:16:36 2014

@<TRIPOS>MOLECULE
1iy0_ANP_1_ligand
   43    45     1     0     0
SMALL
NO_CHARGES


@<TRIPOS>ATOM
      1 PG         35.3700   18.8260   55.7940 P.3       1 ANP1        0.0000 
      2 O1G        35.3540   18.9010   54.2820 O.co2     1 ANP1        0.0000 
      3 O2G        35.2750   20.1590   56.4920 O.co2     1 ANP1        0.0000 
      4 O3G        34.3240   17.8530   56.3310 O.co2     1 ANP1        0.0000 
      5 PB         37.9900   18.4780   57.3430 P.3       1 ANP1        0.0000 
      6 O1B        39.2080   17.7190   56.8860 O.co2     1 ANP1        0.0000 
      7 O2B        37.6210   18.1340   58.7180 O.co2     1 ANP1        0.0000 
      8 N3B        36.9020   18.1560   56.1880 N.4       1 ANP1        0.0000 
      9 PA         38.6590   21.2120   58.5700 P.3       1 ANP1        0.0000 
     10 O1A        37.9960   22.4520   58.0250 O.co2     1 ANP1        0.0000 
     11 O2A        38.0660   20.7470   59.8890 O.co2     1 ANP1        0.0000 
     12 O3A        38.5570   20.0350   57.4880 O.3       1 ANP1        0.0000 
     13 O5'        40.2420   21.4850   58.6670 O.3       1 ANP1        0.0000 
     14 C5'        41.0110   20.3850   59.1710 C.3       1 ANP1        0.0000 
     15 C4'        42.4900   20.8500   59.2430 C.3       1 ANP1        0.0000 
     16 O4'        43.0930   20.6630   57.9720 O.3       1 ANP1        0.0000 
     17 C3'        42.7410   22.3030   59.4800 C.3       1 ANP1        0.0000 
     18 O3'        43.3860   22.3760   60.7360 O.3       1 ANP1        0.0000 
     19 C2'        43.7100   22.7800   58.3990 C.3       1 ANP1        0.0000 
     20 O2'        45.0070   23.1570   58.7900 O.3       1 ANP1        0.0000 
     21 C1'        43.8540   21.7170   57.3850 C.3       1 ANP1        0.0000 
     22 N9         43.4550   22.1800   55.9910 N.pl3     1 ANP1        0.0000 
     23 C8         42.4500   21.6890   55.2180 C.2       1 ANP1        0.0000 
     24 N7         42.3840   22.3340   54.0410 N.2       1 ANP1        0.0000 
     25 C5         43.3680   23.2520   54.0750 C.ar      1 ANP1        0.0000 
     26 C6         43.7540   24.2260   53.0660 C.ar      1 ANP1        0.0000 
     27 N6         43.0730   24.2790   51.8810 N.pl3     1 ANP1        0.0000 
     28 N1         44.8250   25.0920   53.3340 N.ar      1 ANP1        0.0000 
     29 C2         45.4580   24.9600   54.5580 C.ar      1 ANP1        0.0000 
     30 N3         45.1020   24.0470   55.5020 N.ar      1 ANP1        0.0000 
     31 C4         44.0560   23.1710   55.3020 C.ar      1 ANP1        0.0000 
     32 H          40.9726   19.5229   58.5163 H         1 ANP1        0.0000 
     33 H          40.7111   20.0985   60.1717 H         1 ANP1        0.0000 
     34 H          43.0139   20.2712   59.9777 H         1 ANP1        0.0000 
     35 H          41.8533   22.8400   59.4311 H         1 ANP1        0.0000 
     36 H          43.2090   23.6286   57.8725 H         1 ANP1        0.0000 
     37 H          44.9166   21.4342   57.3800 H         1 ANP1        0.0000 
     38 H          41.8543   20.9575   55.4922 H         1 ANP1        0.0000 
     39 H          43.5986   24.5779   51.0845 H         1 ANP1        0.0000 
     40 H          42.1093   24.0142   51.9151 H         1 ANP1        0.0000 
     41 H          46.2683   25.6145   54.7632 H         1 ANP1        0.0000 
     42 H          44.3363   22.6058   60.5258 H         1 ANP1        0.0000 
     43 H          45.2524   23.9105   58.1800 H         1 ANP1        0.0000 
@<TRIPOS>BOND
     1    2    1 ar   
     2    3    1 ar   
     3    4    1 ar   
     4    8    1 1    
     5    6    5 ar   
     6    7    5 ar   
     7    8    5 1    
     8   12    5 1    
     9   10    9 ar   
    10   11    9 ar   
    11   12    9 1    
    12   13    9 1    
    13   14   13 1    
    14   15   14 1    
    15   32   14 1    
    16   33   14 1    
    17   16   15 1    
    18   17   15 1    
    19   34   15 1    
    20   21   16 1    
    21   18   17 1    
    22   19   17 1    
    23   35   17 1    
    24   42   18 1    
    25   20   19 1    
    26   21   19 1    
    27   36   19 1    
    28   43   20 1    
    29   22   21 1    
    30   37   21 1    
    31   23   22 1    
    32   31   22 1    
    33   24   23 2    
    34   38   23 1    
    35   25   24 1    
    36   26   25 ar   
    37   31   25 ar   
    38   27   26 1    
    39   28   26 ar   
    40   39   27 1    
    41   40   27 1    
    42   29   28 ar   
    43   30   29 ar   
    44   41   29 1    
    45   31   30 ar   
@<TRIPOS>SUBSTRUCTURE
     1 ANP1        1 GROUP   
@<TRIPOS>SET

