#    Name: 4nk9_2K5_2_INTS_M
#    Modification time : Tue Mar 25 13:13:30 2014

@<TRIPOS>MOLECULE
4nk9_2K5_2_INTS_M
   84     0     9     0     0
SMALL
NO_CHARGES


@<TRIPOS>ATOM
      1 CA         26.2660    8.3410   14.1760 C.3       3 GLC5        0.0000 
      2 CA         27.0520    6.2820   14.0530 C.3       9 GLL5        0.0000 
      3 CA         25.4800   10.4000   14.2990 C.3       6 GLP5        0.0000 
      4 CA         25.0800    6.3790   13.9100 C.3       3 GLC5        0.0000 
      5 CA         23.1080    6.4760   13.7670 C.3       6 GLP5        0.0000 
      6 CA         28.7140    6.8795   14.3325 C.3       3 GLC5        0.0000 
      7 CA         30.3760    7.4770   14.6120 C.3       6 GLP5        0.0000 
      8 CA         26.9475    5.2760   12.5545 C.3       3 GLC5        0.0000 
      9 CA         26.8430    4.2700   11.0560 C.3       6 GLP5        0.0000 
     10 N          28.7450    5.6485   14.9360 N.am      2 SEC2        0.0000 
     11 N          27.2590    5.2610   15.0400 N.am      8 SEL2        0.0000 
     12 N          30.2310    6.0360   14.8320 N.am      5 SEP2        0.0000 
     13 CA         28.5705    6.4550   15.4665 C.3       3 GLC5        0.0000 
     14 CA         26.7650    5.4330   16.3210 C.3       9 GLL5        0.0000 
     15 CA         29.2800    4.0720   16.9425 C.3       3 GLC5        0.0000 
     16 CA         27.3850    4.6690   17.3150 C.3       9 GLL5        0.0000 
     17 CA         31.1750    3.4750   16.5700 C.3       6 GLP5        0.0000 
     18 CA         24.3980    6.3820   15.1905 C.3       3 GLC5        0.0000 
     19 CA         25.6880    6.2880   16.6140 C.3       9 GLL5        0.0000 
     20 CA         24.5870    9.1115   18.8925 C.3       3 GLC5        0.0000 
     21 CA         23.8470    8.3640   17.4890 C.3       9 GLL5        0.0000 
     22 CA         25.3270    9.8590   20.2960 C.3       6 GLP5        0.0000 
     23 CA         23.4740   10.3260   18.3180 C.3       3 GLC5        0.0000 
     24 CA         23.1010   12.2880   19.1470 C.3       6 GLP5        0.0000 
     25 CA         24.6635    9.3820   15.8940 C.3       3 GLC5        0.0000 
     26 CA         23.4775    7.4200   15.6280 C.3       3 GLC5        0.0000 
     27 CA         21.9620    8.2430   17.4765 C.3       3 GLC5        0.0000 
     28 CA         20.0770    8.1220   17.4640 C.3       6 GLP5        0.0000 
     29 CA         22.8880    6.4230   17.5740 C.3       3 GLC5        0.0000 
     30 CA         21.9290    4.4820   17.6590 C.3       6 GLP5        0.0000 
     31 CA         29.3060    2.6530   19.4955 C.3       3 GLC5        0.0000 
     32 CA         27.6570    3.9480   19.6870 C.3       9 GLL5        0.0000 
     33 CA         30.9550    1.3580   19.3040 C.3       6 GLP5        0.0000 
     34 CA         24.9175    3.2960   20.0525 C.3       3 GLC5        0.0000 
     35 CA         26.6780    3.4640   20.7460 C.3       9 GLL5        0.0000 
     36 CA         23.1570    3.1280   19.3590 C.3       6 GLP5        0.0000 
     37 CA         27.0660    1.6325   24.3995 C.3       3 GLC5        0.0000 
     38 CA         27.9150    2.0130   22.5000 C.3       9 GLL5        0.0000 
     39 CA         26.2170    1.2520   26.2990 C.3       6 GLP5        0.0000 
     40 O          25.4005    0.3395   20.3285 O.2       1 ALC1        0.0000 
     41 O          26.6220    1.0390   20.9280 O.2       7 ALL1        0.0000 
     42 O          24.1790   -0.3600   19.7290 O.2       4 ALP1        0.0000 
     43 N          26.9765   -1.4530   21.6300 N.am      2 SEC2        0.0000 
     44 N          27.1600    0.1230   21.7650 N.am      8 SEL2        0.0000 
     45 N          26.7930   -3.0290   21.4950 N.am      5 SEP2        0.0000 
     46 O          28.9745   -1.5530   23.4425 O.2       1 ALC1        0.0000 
     47 O          28.6480   -0.1270   23.6520 O.2       7 ALL1        0.0000 
     48 O          29.3010   -2.9790   23.2330 O.2       4 ALP1        0.0000 
     49 CA         29.5095    2.2520   26.4410 C.3       3 GLC5        0.0000 
     50 CA         31.0240    1.9290   25.4150 C.3       9 GLL5        0.0000 
     51 CA         27.9950    2.5750   27.4670 C.3       6 GLP5        0.0000 
     52 CA         29.2255    3.4220   26.1535 C.3       3 GLC5        0.0000 
     53 CA         30.4560    4.2690   24.8400 C.3       9 GLL5        0.0000 
     54 CA         30.5725    5.2690   26.6135 C.3       3 GLC5        0.0000 
     55 CA         30.6890    6.2690   28.3870 C.3       6 GLP5        0.0000 
     56 CA         28.6055    5.1845   24.7725 C.3       3 GLC5        0.0000 
     57 CA         26.7550    6.1000   24.7050 C.3       6 GLP5        0.0000 
     58 CA         31.8055    2.9800   19.7695 C.3       3 GLC5        0.0000 
     59 CA         32.6560    4.6020   20.2350 C.3       9 GLL5        0.0000 
     60 CA         31.9155    4.0385   18.4025 C.3       3 GLC5        0.0000 
     61 CA         26.2535    3.4170   16.6990 C.3       3 GLC5        0.0000 
     62 CA         25.4320    1.7830   16.5800 C.3       6 GLP5        0.0000 
     63 CA         23.6942    5.4097   17.4662 C.3       3 GLC5        0.0000 
     64 CA         26.0512    7.5237   19.4093 C.3       3 GLC5        0.0000 
     65 CA         25.2310    6.3870   17.9330 C.3       9 GLL5        0.0000 
     66 CA         26.5670    9.0340   20.3680 C.3       6 GLP5        0.0000 
     67 CA         24.7745    4.1683   19.0830 C.3       3 GLC5        0.0000 
     68 CA         25.8400    5.6400   18.9680 C.3       9 GLL5        0.0000 
     69 CA         26.3663    3.0728   17.8732 C.3       3 GLC5        0.0000 
     70 CA         26.9440    4.7770   18.6460 C.3       9 GLL5        0.0000 
     71 CA         29.2270    1.7353   20.6220 C.3       3 GLC5        0.0000 
     72 CA         27.0830    2.2120   21.3800 C.3       9 GLL5        0.0000 
     73 CA         26.7879    3.5663   23.1148 C.3       3 GLC5        0.0000 
     74 CA         26.1780    4.7070   24.4480 C.3       6 GLP5        0.0000 
     75 CA         25.5549    2.0423   22.2207 C.3       3 GLC5        0.0000 
     76 CA         23.7120    1.6590   22.6600 C.3       6 GLP5        0.0000 
     77 CA         30.9233   -0.1752   23.0102 C.3       3 GLC5        0.0000 
     78 CA         30.4010   -0.7230   25.3100 C.3       9 GLL5        0.0000 
     79 CA         31.7970   -0.1020   21.1060 C.3       6 GLP5        0.0000 
     80 CA         32.2495   -1.5125   24.8390 C.3       3 GLC5        0.0000 
     81 CA         33.5930   -2.5560   23.9490 C.3       6 GLP5        0.0000 
     82 CA         29.2146   -0.0649   26.7651 C.3       3 GLC5        0.0000 
     83 CA         31.4110   -0.2150   26.1480 C.3       9 GLL5        0.0000 
     84 CA         27.6990    0.1020   27.9990 C.3       6 GLP5        0.0000 
@<TRIPOS>BOND
@<TRIPOS>SUBSTRUCTURE
     1 ALC1       40 GROUP        1 X    ALC  0     ROOT ALC X 1
     2 SEC2       10 GROUP        1 X    SEC  0     **** SEC X 2
     3 GLC5        1 GROUP        1 X    GLC  0     **** GLC X 6
     4 ALP1       42 GROUP        1 Y    ALP  0     ROOT ALP Y 8
     5 SEP2       12 GROUP        1 Y    SEP  0     **** SEP Y 9
     6 GLP5        3 GROUP        1 Y    GLP  0     **** GLP Y 13
     7 ALL1       41 GROUP        1 Z    ALL  0     ROOT ALL Z 15
     8 SEL2       11 GROUP        1 Z    SEL  0     **** SEL Z 16
     9 GLL5        2 GROUP        1 Z    GLL  0     **** GLL Z 20
@<TRIPOS>SET

