#    Name: 4nk9_2K5_2_ligand
#    Modification time : Tue Mar 25 13:13:30 2014

@<TRIPOS>MOLECULE
4nk9_2K5_2_ligand
   57    60     1     0     0
SMALL
NO_CHARGES


@<TRIPOS>ATOM
      1 C21        27.0520    6.2820   14.0530 C.3       1 2K5802      0.0000 
      2 O2         27.2590    5.2610   15.0400 O.3       1 2K5802      0.0000 
      3 C16        26.7650    5.4330   16.3210 C.ar      1 2K5802      0.0000 
      4 C15        27.3850    4.6690   17.3150 C.ar      1 2K5802      0.0000 
      5 C17        25.6880    6.2880   16.6140 C.ar      1 2K5802      0.0000 
      6 C18        25.2310    6.3870   17.9330 C.ar      1 2K5802      0.0000 
      7 O1         24.1380    7.1970   18.2720 O.3       1 2K5802      0.0000 
      8 C20        23.8470    8.3640   17.4890 C.3       1 2K5802      0.0000 
      9 C19        25.8400    5.6400   18.9680 C.ar      1 2K5802      0.0000 
     10 C14        26.9440    4.7770   18.6460 C.ar      1 2K5802      0.0000 
     11 C13        27.6570    3.9480   19.6870 C.3       1 2K5802      0.0000 
     12 C12        26.6780    3.4640   20.7460 C.3       1 2K5802      0.0000 
     13 C11        27.0830    2.2120   21.3800 C.2       1 2K5802      0.0000 
     14 C10        27.9150    2.0130   22.5000 C.2       1 2K5802      0.0000 
     15 N5         26.6220    1.0390   20.9280 N.pl3     1 2K5802      0.0000 
     16 N6         27.1600    0.1230   21.7650 N.2       1 2K5802      0.0000 
     17 C9         27.9430    0.6540   22.7060 C.2       1 2K5802      0.0000 
     18 N4         28.6480   -0.1270   23.6520 N.pl3     1 2K5802      0.0000 
     19 C8         29.6980    0.2260   24.5190 C.ar      1 2K5802      0.0000 
     20 C7         30.4010   -0.7230   25.3100 C.ar      1 2K5802      0.0000 
     21 C6         31.4110   -0.2150   26.1480 C.ar      1 2K5802      0.0000 
     22 N2         31.7340    1.1160   26.2100 N.ar      1 2K5802      0.0000 
     23 N3         30.0260    1.5780   24.5700 N.ar      1 2K5802      0.0000 
     24 C5         31.0240    1.9290   25.4150 C.ar      1 2K5802      0.0000 
     25 N1         31.3020    3.2420   25.4590 N.pl3     1 2K5802      0.0000 
     26 C4         30.4560    4.2690   24.8400 C.3       1 2K5802      0.0000 
     27 C3         30.8740    4.5180   23.4250 C.2       1 2K5802      0.0000 
     28 C2         31.9430    4.1280   22.7110 C.2       1 2K5802      0.0000 
     29 O          30.0630    5.3200   22.6620 O.3       1 2K5802      0.0000 
     30 N          30.6740    5.4070   21.3900 N.2       1 2K5802      0.0000 
     31 C1         31.7650    4.7060   21.4450 C.2       1 2K5802      0.0000 
     32 C          32.6560    4.6020   20.2350 C.3       1 2K5802      0.0000 
     33 H          28.1513    4.0374   17.0799 H         1 2K5802      0.0000 
     34 H          25.2466    6.8290   15.8712 H         1 2K5802      0.0000 
     35 H          25.5130    5.7042   19.9202 H         1 2K5802      0.0000 
     36 H          28.4327    4.5475   20.1641 H         1 2K5802      0.0000 
     37 H          28.1245    3.0857   19.2111 H         1 2K5802      0.0000 
     38 H          25.6839    3.3527   20.2694 H         1 2K5802      0.0000 
     39 H          26.5691    4.2645   21.5044 H         1 2K5802      0.0000 
     40 H          28.3475    2.6793   22.9865 H         1 2K5802      0.0000 
     41 H          26.0527    0.8792   20.1953 H         1 2K5802      0.0000 
     42 H          28.3226   -1.1714   23.7175 H         1 2K5802      0.0000 
     43 H          30.1853   -1.6937   25.2685 H         1 2K5802      0.0000 
     44 H          31.9338   -0.9005   26.7490 H         1 2K5802      0.0000 
     45 H          32.1564    3.6040   25.9490 H         1 2K5802      0.0000 
     46 H          30.5250    5.2087   25.4050 H         1 2K5802      0.0000 
     47 H          29.4040    3.9524   24.8528 H         1 2K5802      0.0000 
     48 H          32.6647    3.5914   22.9667 H         1 2K5802      0.0000 
     49 H          27.4549    7.1541   14.3306 H         1 2K5802      0.0000 
     50 H          27.4607    6.0370   13.1738 H         1 2K5802      0.0000 
     51 H          26.0797    6.4476   13.8883 H         1 2K5802      0.0000 
     52 H          24.6088    9.0118   17.4906 H         1 2K5802      0.0000 
     53 H          23.6603    8.1334   16.5340 H         1 2K5802      0.0000 
     54 H          23.0459    8.8528   17.8345 H         1 2K5802      0.0000 
     55 H          33.5734    4.9554   20.4179 H         1 2K5802      0.0000 
     56 H          32.7617    3.6549   19.9319 H         1 2K5802      0.0000 
     57 H          32.2919    5.1188   19.4602 H         1 2K5802      0.0000 
@<TRIPOS>BOND
     1    2    1 1    
     2   49    1 1    
     3   50    1 1    
     4   51    1 1    
     5    3    2 1    
     6    4    3 ar   
     7    5    3 ar   
     8   10    4 ar   
     9   33    4 1    
    10    6    5 ar   
    11   34    5 1    
    12    7    6 1    
    13    9    6 ar   
    14    8    7 1    
    15   52    8 1    
    16   53    8 1    
    17   54    8 1    
    18   10    9 ar   
    19   35    9 1    
    20   11   10 1    
    21   12   11 1    
    22   36   11 1    
    23   37   11 1    
    24   13   12 1    
    25   38   12 1    
    26   39   12 1    
    27   14   13 2    
    28   15   13 1    
    29   17   14 1    
    30   40   14 1    
    31   16   15 1    
    32   41   15 1    
    33   17   16 2    
    34   18   17 1    
    35   19   18 1    
    36   42   18 1    
    37   20   19 ar   
    38   23   19 ar   
    39   21   20 ar   
    40   43   20 1    
    41   22   21 ar   
    42   44   21 1    
    43   24   22 ar   
    44   24   23 ar   
    45   25   24 1    
    46   26   25 1    
    47   45   25 1    
    48   27   26 1    
    49   46   26 1    
    50   47   26 1    
    51   28   27 2    
    52   29   27 1    
    53   31   28 1    
    54   48   28 1    
    55   30   29 1    
    56   31   30 2    
    57   32   31 1    
    58   55   32 1    
    59   56   32 1    
    60   57   32 1    
@<TRIPOS>SUBSTRUCTURE
     1 2K5802      1 GROUP   
@<TRIPOS>SET

