#    Name: 2o1s_TDP_2_INTS_M
#    Modification time : Tue Mar 25 21:49:27 2014

@<TRIPOS>MOLECULE
2o1s_TDP_2_INTS_M
   64     0    15     0     0
SMALL
NO_CHARGES


@<TRIPOS>ATOM
      1 CA         33.9765   53.6450   49.3730 C.3       5 GLC5        0.0000 
      2 CA         34.1110   54.8410   47.4800 C.3      15 GLL5        0.0000 
      3 CA         33.8420   52.4490   51.2660 C.3      10 GLP5        0.0000 
      4 CA         35.9900   54.5315   48.4620 C.3       5 GLC5        0.0000 
      5 CA         37.8690   54.2220   49.4440 C.3      10 GLP5        0.0000 
      6 CA         33.3515   54.7740   50.0965 C.3       5 GLC5        0.0000 
      7 CA         33.8280   56.0390   48.3890 C.3      15 GLL5        0.0000 
      8 CA         32.8750   53.5090   51.8040 C.3      10 GLP5        0.0000 
      9 CA         32.3070   54.6960   47.7030 C.3       5 GLC5        0.0000 
     10 CA         30.7860   53.3530   47.0170 C.3      10 GLP5        0.0000 
     11 CA         33.1160   57.8880   49.1315 C.3       5 GLC5        0.0000 
     12 CA         32.4040   59.7370   49.8740 C.3      10 GLP5        0.0000 
     13 N          35.2055   53.6835   49.3270 N.am      2 SEC2        0.0000 
     14 N          34.5660   53.6910   47.9990 N.am     12 SEL2        0.0000 
     15 N          35.8450   53.6760   50.6550 N.am      7 SEP2        0.0000 
     16 CA         34.3320   52.5405   49.2410 C.3       5 GLC5        0.0000 
     17 CA         34.8220   52.6320   47.2160 C.3      15 GLL5        0.0000 
     18 CA         36.3455   53.4270   48.3300 C.3       5 GLC5        0.0000 
     19 O          35.1260   50.7850   49.1545 O.2       1 ALC1        0.0000 
     20 O          35.2340   51.4900   47.7600 O.2      11 ALL1        0.0000 
     21 O          35.0180   50.0800   50.5490 O.2       6 ALP1        0.0000 
     22 CA         35.4570   55.4775   45.6240 C.3       5 GLC5        0.0000 
     23 CA         34.1480   53.9280   45.3480 C.3      15 GLL5        0.0000 
     24 CA         36.7660   57.0270   45.9000 C.3      10 GLP5        0.0000 
     25 CA         34.8155   51.3355   43.0115 C.3       5 GLC5        0.0000 
     26 CA         34.8960   51.5970   44.8360 C.3      15 GLL5        0.0000 
     27 CA         34.7350   51.0740   41.1870 C.3      10 GLP5        0.0000 
     28 CA         33.3340   51.5220   45.3910 C.3       5 GLC5        0.0000 
     29 CA         31.7720   51.4470   45.9460 C.3      10 GLP5        0.0000 
     30 CA         38.4305   49.4160   47.4140 C.3       5 GLC5        0.0000 
     31 CA         38.2930   49.6850   45.2640 C.3      15 GLL5        0.0000 
     32 CA         38.5680   49.1470   49.5640 C.3      10 GLP5        0.0000 
     33 CA         37.2955   54.5160   42.0940 C.3       5 GLC5        0.0000 
     34 CA         37.0800   53.0140   43.4100 C.3      15 GLL5        0.0000 
     35 CA         37.5110   56.0180   40.7780 C.3      10 GLP5        0.0000 
     36 Zn         45.4215   52.2770   43.9535 Zn        4 ZIC7        0.0000 
     37 Zn         44.7430   52.4470   44.8660 Zn       14 ZIL7        0.0000 
     38 Zn         46.1000   52.1070   43.0410 Zn        9 ZIP7        0.0000 
     39 N          44.6445   53.9105   45.0270 N.am      2 SEC2        0.0000 
     40 N          44.7430   52.4470   44.8660 N.am     12 SEL2        0.0000 
     41 N          44.5460   55.3740   45.1880 N.am      7 SEP2        0.0000 
     42 N          42.9055   54.0425   46.9905 N.am      2 SEC2        0.0000 
     43 N          43.3710   52.4550   47.0340 N.am     12 SEL2        0.0000 
     44 N          42.4400   55.6300   46.9470 N.am      7 SEP2        0.0000 
     45 N          43.1880   47.5900   45.7075 N.am      2 SEC2        0.0000 
     46 N          44.1380   47.9670   44.7420 N.am     12 SEL2        0.0000 
     47 N          42.2380   47.2130   46.6730 N.am      7 SEP2        0.0000 
     48 N          41.7495   48.6715   43.4405 N.am      2 SEC2        0.0000 
     49 N          42.6940   49.5740   43.3540 N.am     12 SEL2        0.0000 
     50 N          40.8050   47.7690   43.5270 N.am      7 SEP2        0.0000 
     51 NZ         45.6100   50.1140   41.9040 N.4       3 LYC4        0.0000 
     52 NZ         45.1970   50.0400   43.6730 N.4      13 LYL4        0.0000 
     53 NZ         46.0230   50.1880   40.1350 N.4       8 LYP4        0.0000 
     54 Zn         45.6485   51.0735   43.3570 Zn        4 ZIC7        0.0000 
     55 Zn         45.1970   50.0400   43.6730 Zn       14 ZIL7        0.0000 
     56 N          46.4995   49.3770   43.8450 N.am      2 SEC2        0.0000 
     57 N          45.1970   50.0400   43.6730 N.am     12 SEL2        0.0000 
     58 N          47.8020   48.7140   44.0170 N.am      7 SEP2        0.0000 
     59 CA         35.3678   56.2335   46.9172 C.3       5 GLC5        0.0000 
     60 CA         35.9600   51.7330   42.5152 C.3       5 GLC5        0.0000 
     61 CA         38.3235   53.8535   44.5277 C.3       5 GLC5        0.0000 
     62 CA         39.1470   55.4560   45.1680 C.3      10 GLP5        0.0000 
     63 CA         39.7722   53.6165   44.8872 C.3       5 GLC5        0.0000 
     64 CA         39.9250   51.7110   44.0080 C.3      15 GLL5        0.0000 
@<TRIPOS>BOND
@<TRIPOS>SUBSTRUCTURE
     1 ALC1       19 GROUP        1 X    ALC  0     ROOT ALC X 1
     2 SEC2       13 GROUP        1 X    SEC  0     **** SEC X 2
     3 LYC4       51 GROUP        1 X    LYC  0     **** LYC X 4
     4 ZIC7       36 GROUP        1 X    ZIC  0     **** ZIC X 5
     5 GLC5        1 GROUP        1 X    GLC  0     **** GLC X 6
     6 ALP1       21 GROUP        1 Y    ALP  0     ROOT ALP Y 8
     7 SEP2       15 GROUP        1 Y    SEP  0     **** SEP Y 9
     8 LYP4       53 GROUP        1 Y    LYP  0     **** LYP Y 11
     9 ZIP7       38 GROUP        1 Y    ZIP  0     **** ZIP Y 12
    10 GLP5        3 GROUP        1 Y    GLP  0     **** GLP Y 13
    11 ALL1       20 GROUP        1 Z    ALL  0     ROOT ALL Z 15
    12 SEL2       14 GROUP        1 Z    SEL  0     **** SEL Z 16
    13 LYL4       52 GROUP        1 Z    LYL  0     **** LYL Z 18
    14 ZIL7       37 GROUP        1 Z    ZIL  0     **** ZIL Z 19
    15 GLL5        2 GROUP        1 Z    GLL  0     **** GLL Z 20
@<TRIPOS>SET

