#    Name: 2o1s_TDP_2_ligand
#    Modification time : Tue Mar 25 21:49:28 2014

@<TRIPOS>MOLECULE
2o1s_TDP_2_ligand
   42    43     1     0     0
SMALL
NO_CHARGES


@<TRIPOS>ATOM
      1 N1'        33.9060   54.9430   46.1590 N.ar      1 TDP3002     0.0000 
      2 C2'        34.1110   54.8410   47.4800 C.ar      1 TDP3002     0.0000 
      3 C2A        33.8280   56.0390   48.3890 C.3       1 TDP3002     0.0000 
      4 N3'        34.5660   53.6910   47.9990 N.ar      1 TDP3002     0.0000 
      5 C4'        34.8220   52.6320   47.2160 C.ar      1 TDP3002     0.0000 
      6 N4'        35.2340   51.4900   47.7600 N.pl3     1 TDP3002     0.0000 
      7 C5'        34.6230   52.7190   45.8420 C.ar      1 TDP3002     0.0000 
      8 C6'        34.1480   53.9280   45.3480 C.ar      1 TDP3002     0.0000 
      9 C35        34.8960   51.5970   44.8360 C.3       1 TDP3002     0.0000 
     10 N3         36.2930   51.1450   44.9150 N.pl3     1 TDP3002     0.0000 
     11 C2         36.6170   50.0420   45.5930 C.2       1 TDP3002     0.0000 
     12 S1         38.2930   49.6850   45.2640 S.3       1 TDP3002     0.0000 
     13 C5         38.5500   51.2060   44.4530 C.2       1 TDP3002     0.0000 
     14 C4         37.2900   51.7700   44.2770 C.2       1 TDP3002     0.0000 
     15 C4A        37.0800   53.0140   43.4100 C.3       1 TDP3002     0.0000 
     16 C5A        39.9250   51.7110   44.0080 C.3       1 TDP3002     0.0000 
     17 C5B        40.8700   51.8430   45.2050 C.3       1 TDP3002     0.0000 
     18 O5G        42.1660   52.2470   44.7550 O.3       1 TDP3002     0.0000 
     19 P1         43.4530   51.9070   45.6610 P.3       1 TDP3002     0.0000 
     20 O11        43.5700   50.3020   45.6660 O.3       1 TDP3002     0.0000 
     21 O12        44.7430   52.4470   44.8660 O.co2     1 TDP3002     0.0000 
     22 O13        43.3710   52.4550   47.0340 O.co2     1 TDP3002     0.0000 
     23 P2         43.9770   49.5130   44.3240 P.3       1 TDP3002     0.0000 
     24 O21        44.1380   47.9670   44.7420 O.co2     1 TDP3002     0.0000 
     25 O22        42.6940   49.5740   43.3540 O.co2     1 TDP3002     0.0000 
     26 O23        45.1970   50.0400   43.6730 O.co2     1 TDP3002     0.0000 
     27 H          34.9433   51.3212   48.7018 H         1 TDP3002     0.0000 
     28 H          35.7971   50.9034   47.1780 H         1 TDP3002     0.0000 
     29 H          33.9898   54.0054   44.3168 H         1 TDP3002     0.0000 
     30 H          34.6674   51.9733   43.8324 H         1 TDP3002     0.0000 
     31 H          34.2092   50.7702   45.0500 H         1 TDP3002     0.0000 
     32 H          36.2297   49.4450   46.1563 H         1 TDP3002     0.0000 
     33 H          39.8129   52.6824   43.5308 H         1 TDP3002     0.0000 
     34 H          40.3495   51.0107   43.2916 H         1 TDP3002     0.0000 
     35 H          40.9006   50.8735   45.7142 H         1 TDP3002     0.0000 
     36 H          40.4336   52.5732   45.8954 H         1 TDP3002     0.0000 
     37 H          34.0202   55.8311   49.3481 H         1 TDP3002     0.0000 
     38 H          34.3861   56.8316   48.1434 H         1 TDP3002     0.0000 
     39 H          32.8716   56.3266   48.3374 H         1 TDP3002     0.0000 
     40 H          37.9385   53.3402   43.0144 H         1 TDP3002     0.0000 
     41 H          36.4559   52.8355   42.6493 H         1 TDP3002     0.0000 
     42 H          36.6927   53.7717   43.9353 H         1 TDP3002     0.0000 
@<TRIPOS>BOND
     1    2    1 ar   
     2    8    1 ar   
     3    3    2 1    
     4    4    2 ar   
     5   37    3 1    
     6   38    3 1    
     7   39    3 1    
     8    5    4 ar   
     9    6    5 1    
    10    7    5 ar   
    11   27    6 1    
    12   28    6 1    
    13    8    7 ar   
    14    9    7 1    
    15   29    8 1    
    16   10    9 1    
    17   30    9 1    
    18   31    9 1    
    19   11   10 2    
    20   14   10 1    
    21   12   11 1    
    22   32   11 1    
    23   13   12 1    
    24   14   13 2    
    25   16   13 1    
    26   15   14 1    
    27   40   15 1    
    28   41   15 1    
    29   42   15 1    
    30   17   16 1    
    31   33   16 1    
    32   34   16 1    
    33   18   17 1    
    34   35   17 1    
    35   36   17 1    
    36   19   18 1    
    37   20   19 1    
    38   21   19 ar   
    39   22   19 ar   
    40   23   20 1    
    41   24   23 ar   
    42   25   23 ar   
    43   26   23 ar   
@<TRIPOS>SUBSTRUCTURE
     1 TDP3002     1 GROUP   
@<TRIPOS>SET

