#    Name: 3d3e_D3E_2_INTS_M
#    Modification time : Mon Mar 24 22:37:15 2014

@<TRIPOS>MOLECULE
3d3e_D3E_2_INTS_M
   65     0     6     0     0
SMALL
NO_CHARGES


@<TRIPOS>ATOM
      1 CA        -25.5030   -3.0560   17.9505 C.3       2 GLC5        0.0000 
      2 CA        -26.5290   -1.2000   17.5500 C.3       6 GLL5        0.0000 
      3 CA        -24.4770   -4.9120   18.3510 C.3       4 GLP5        0.0000 
      4 CA        -29.2790   -3.2925   15.5245 C.3       2 GLC5        0.0000 
      5 CA        -28.2170   -2.4690   17.1000 C.3       6 GLL5        0.0000 
      6 CA        -30.3410   -4.1160   13.9490 C.3       4 GLP5        0.0000 
      7 CA        -25.2890   -3.6355   13.6315 C.3       2 GLC5        0.0000 
      8 CA        -26.4670   -2.7480   14.8950 C.3       6 GLL5        0.0000 
      9 CA        -24.1110   -4.5230   12.3680 C.3       4 GLP5        0.0000 
     10 CA        -23.5485    1.2500   17.2695 C.3       2 GLC5        0.0000 
     11 CA        -24.1890    0.9170   15.1720 C.3       6 GLL5        0.0000 
     12 CA        -22.9080    1.5830   19.3670 C.3       4 GLP5        0.0000 
     13 CA        -28.5250    1.0685   13.1410 C.3       2 GLC5        0.0000 
     14 CA        -26.7160    0.7890   14.0680 C.3       6 GLL5        0.0000 
     15 CA        -30.3340    1.3480   12.2140 C.3       4 GLP5        0.0000 
     16 N         -22.2515    1.2545   12.8420 N.am      1 SEC2        0.0000 
     17 N         -22.7420    2.8110   13.3060 N.am      5 SEL2        0.0000 
     18 N         -21.7610   -0.3020   12.3780 N.am      3 SEP2        0.0000 
     19 CA        -24.4540    4.0175   11.9820 C.3       2 GLC5        0.0000 
     20 CA        -24.0950    5.4290   13.6380 C.3       6 GLL5        0.0000 
     21 CA        -24.8130    2.6060   10.3260 C.3       4 GLP5        0.0000 
     22 CA        -21.4860    4.2810   12.1005 C.3       2 GLC5        0.0000 
     23 CA        -22.8890    5.4950   12.7470 C.3       6 GLL5        0.0000 
     24 CA        -20.0830    3.0670   11.4540 C.3       4 GLP5        0.0000 
     25 CA        -23.4760    6.5155   11.0535 C.3       2 GLC5        0.0000 
     26 CA        -24.0630    7.5360    9.3600 C.3       4 GLP5        0.0000 
     27 CA        -23.1650    4.0165   11.4345 C.3       2 GLC5        0.0000 
     28 CA        -23.4410    2.5380   10.1220 C.3       4 GLP5        0.0000 
     29 CA        -21.1950    5.0595   14.7695 C.3       2 GLC5        0.0000 
     30 CA        -22.8710    6.2010   14.0400 C.3       6 GLL5        0.0000 
     31 CA        -19.5190    3.9180   15.4990 C.3       4 GLP5        0.0000 
     32 CA        -21.9455    7.5290   14.9835 C.3       2 GLC5        0.0000 
     33 CA        -21.0200    8.8570   15.9270 C.3       4 GLP5        0.0000 
     34 CA        -23.2815    7.3645   18.1820 C.3       2 GLC5        0.0000 
     35 CA        -24.7860    6.2170   18.2000 C.3       6 GLL5        0.0000 
     36 CA        -21.7770    8.5120   18.1640 C.3       4 GLP5        0.0000 
     37 CA        -22.3685    5.8280   18.9740 C.3       2 GLC5        0.0000 
     38 CA        -23.9330    4.9480   18.3050 C.3       6 GLL5        0.0000 
     39 CA        -20.8040    6.7080   19.6430 C.3       4 GLP5        0.0000 
     40 CA        -21.4570    4.2565   16.2075 C.3       2 GLC5        0.0000 
     41 CA        -23.3950    4.5950   16.9160 C.3       6 GLL5        0.0000 
     42 CA        -22.1300    6.0355   17.6280 C.3       2 GLC5        0.0000 
     43 CA        -20.8650    7.4760   18.3400 C.3       4 GLP5        0.0000 
     44 CA        -23.0320    6.6920   19.5935 C.3       2 GLC5        0.0000 
     45 CA        -25.2600    6.6760   19.5440 C.3       6 GLL5        0.0000 
     46 CA        -25.0565    4.4570   21.9735 C.3       2 GLC5        0.0000 
     47 CA        -25.8280    5.7610   20.4130 C.3       6 GLL5        0.0000 
     48 CA        -24.2850    3.1530   23.5340 C.3       4 GLP5        0.0000 
     49 CA        -27.2084    0.2836   18.3635 C.3       2 GLC5        0.0000 
     50 CA        -28.3720   -0.3190   16.9320 C.3       6 GLL5        0.0000 
     51 CA        -26.7040    1.3670   19.6820 C.3       4 GLP5        0.0000 
     52 CA        -27.6196   -2.5589   18.9215 C.3       2 GLC5        0.0000 
     53 CA        -27.6040   -3.2430   20.7140 C.3       4 GLP5        0.0000 
     54 CA        -29.5720   -1.0652   17.3498 C.3       2 GLC5        0.0000 
     55 CA        -31.0480   -0.4760   17.7250 C.3       4 GLP5        0.0000 
     56 CA        -28.5783   -3.1033   14.5150 C.3       2 GLC5        0.0000 
     57 CA        -27.1640   -1.4330   15.2670 C.3       6 GLL5        0.0000 
     58 CA        -21.4455    6.8795   12.8052 C.3       2 GLC5        0.0000 
     59 CA        -20.0110    7.9110   12.2170 C.3       4 GLP5        0.0000 
     60 CA        -23.2860    3.1772   18.4887 C.3       2 GLC5        0.0000 
     61 CA        -27.2837    4.4730   20.6765 C.3       2 GLC5        0.0000 
     62 CA        -28.5280    2.9610   20.3190 C.3       4 GLP5        0.0000 
     63 CA        -25.4292    5.5332   23.1913 C.3       2 GLC5        0.0000 
     64 CA        -26.2510    6.2090   21.6550 C.3       6 GLL5        0.0000 
     65 CA        -24.6880    4.1850   24.5690 C.3       4 GLP5        0.0000 
@<TRIPOS>BOND
@<TRIPOS>SUBSTRUCTURE
     1 SEC2       16 GROUP        1 X    SEC  0     ROOT SEC X 2
     2 GLC5        1 GROUP        1 X    GLC  0     **** GLC X 6
     3 SEP2       18 GROUP        1 Y    SEP  0     ROOT SEP Y 9
     4 GLP5        3 GROUP        1 Y    GLP  0     **** GLP Y 13
     5 SEL2       17 GROUP        1 Z    SEL  0     ROOT SEL Z 16
     6 GLL5        2 GROUP        1 Z    GLL  0     **** GLL Z 20
@<TRIPOS>SET

