#    Name: 3d3e_D3E_2_ligand
#    Modification time : Mon Mar 24 22:37:15 2014

@<TRIPOS>MOLECULE
3d3e_D3E_2_ligand
   58    61     1     0     0
SMALL
NO_CHARGES


@<TRIPOS>ATOM
      1 F25       -26.5290   -1.2000   17.5500 F         1 D3E293      0.0000 
      2 C21       -27.5780   -1.3610   16.7660 C.3       1 D3E293      0.0000 
      3 F23       -28.3720   -0.3190   16.9320 F         1 D3E293      0.0000 
      4 F24       -28.2170   -2.4690   17.1000 F         1 D3E293      0.0000 
      5 C2        -27.1640   -1.4330   15.2670 C.3       1 D3E293      0.0000 
      6 C1        -26.4670   -2.7480   14.8950 C.3       1 D3E293      0.0000 
      7 O22       -28.3860   -1.4270   14.5540 O.3       1 D3E293      0.0000 
      8 C3        -26.2960   -0.2360   14.9180 C.ar      1 D3E293      0.0000 
      9 C8        -25.0200   -0.1500   15.4650 C.ar      1 D3E293      0.0000 
     10 C7        -24.1890    0.9170   15.1720 C.ar      1 D3E293      0.0000 
     11 C6        -24.6170    1.9300   14.3330 C.ar      1 D3E293      0.0000 
     12 C5        -25.8830    1.8640   13.7740 C.ar      1 D3E293      0.0000 
     13 C4        -26.7160    0.7890   14.0680 C.ar      1 D3E293      0.0000 
     14 C9        -23.7170    3.0370   14.0150 C.2       1 D3E293      0.0000 
     15 O11       -22.7420    2.8110   13.3060 O.2       1 D3E293      0.0000 
     16 N10       -23.9760    4.2980   14.5190 N.am      1 D3E293      0.0000 
     17 C12       -24.0950    5.4290   13.6380 C.3       1 D3E293      0.0000 
     18 C14       -22.8890    5.4950   12.7470 C.3       1 D3E293      0.0000 
     19 C13       -22.8710    6.2010   14.0400 C.3       1 D3E293      0.0000 
     20 C15       -24.5220    4.4260   15.8860 C.3       1 D3E293      0.0000 
     21 C20       -25.4810    5.6340   15.8870 C.3       1 D3E293      0.0000 
     22 C19       -25.9810    5.9470   17.2980 C.3       1 D3E293      0.0000 
     23 C18       -24.7860    6.2170   18.2000 C.3       1 D3E293      0.0000 
     24 C17       -23.9330    4.9480   18.3050 C.3       1 D3E293      0.0000 
     25 C16       -23.3950    4.5950   16.9160 C.3       1 D3E293      0.0000 
     26 C26       -25.2600    6.6760   19.5440 C.ar      1 D3E293      0.0000 
     27 C31       -25.8280    5.7610   20.4130 C.ar      1 D3E293      0.0000 
     28 C30       -26.2510    6.2090   21.6550 C.ar      1 D3E293      0.0000 
     29 C29       -26.0900    7.5540   21.9720 C.ar      1 D3E293      0.0000 
     30 N28       -25.5470    8.4540   21.1440 N.ar      1 D3E293      0.0000 
     31 C27       -25.1410    8.0070   19.9490 C.ar      1 D3E293      0.0000 
     32 H         -24.6894   -0.8982   16.1015 H         1 D3E293      0.0000 
     33 H         -23.2412    0.9571   15.5834 H         1 D3E293      0.0000 
     34 H         -26.2090    2.6071   13.1424 H         1 D3E293      0.0000 
     35 H         -27.6620    0.7466   13.6512 H         1 D3E293      0.0000 
     36 H         -24.7313    5.9542   13.4014 H         1 D3E293      0.0000 
     37 H         -23.0682    6.1209   12.0488 H         1 D3E293      0.0000 
     38 H         -22.4114    4.6726   12.8305 H         1 D3E293      0.0000 
     39 H         -22.3867    5.6801   14.6765 H         1 D3E293      0.0000 
     40 H         -23.0434    7.1284   13.8948 H         1 D3E293      0.0000 
     41 H         -25.0957    3.5477   16.1321 H         1 D3E293      0.0000 
     42 H         -26.3307    5.4102   15.2433 H         1 D3E293      0.0000 
     43 H         -24.9561    6.5012   15.4884 H         1 D3E293      0.0000 
     44 H         -26.5373    5.0997   17.6762 H         1 D3E293      0.0000 
     45 H         -26.6168    6.8217   17.2660 H         1 D3E293      0.0000 
     46 H         -24.1867    6.9929   17.7427 H         1 D3E293      0.0000 
     47 H         -24.5430    4.1357   18.6714 H         1 D3E293      0.0000 
     48 H         -23.1060    5.1268   18.9761 H         1 D3E293      0.0000 
     49 H         -22.7216    5.3873   16.5795 H         1 D3E293      0.0000 
     50 H         -22.8264    3.6636   16.9769 H         1 D3E293      0.0000 
     51 H         -25.9331    4.7834   20.1482 H         1 D3E293      0.0000 
     52 H         -26.6728    5.5660   22.3255 H         1 D3E293      0.0000 
     53 H         -26.4247    7.8632   22.9330 H         1 D3E293      0.0000 
     54 H         -24.7031    8.6805   19.2571 H         1 D3E293      0.0000 
     55 H         -26.2075   -2.7706   13.9295 H         1 D3E293      0.0000 
     56 H         -25.6317   -2.8889   15.4264 H         1 D3E293      0.0000 
     57 H         -27.0556   -3.5396   15.0589 H         1 D3E293      0.0000 
     58 H         -28.1404   -1.1608   13.6219 H         1 D3E293      0.0000 
@<TRIPOS>BOND
     1    2    1 1    
     2    3    2 1    
     3    4    2 1    
     4    5    2 1    
     5    6    5 1    
     6    7    5 1    
     7    8    5 1    
     8   55    6 1    
     9   56    6 1    
    10   57    6 1    
    11   58    7 1    
    12    9    8 ar   
    13   13    8 ar   
    14   10    9 ar   
    15   32    9 1    
    16   11   10 ar   
    17   33   10 1    
    18   12   11 ar   
    19   14   11 1    
    20   13   12 ar   
    21   34   12 1    
    22   35   13 1    
    23   15   14 2    
    24   16   14 am   
    25   17   16 1    
    26   20   16 1    
    27   18   17 1    
    28   19   17 1    
    29   36   17 1    
    30   19   18 1    
    31   37   18 1    
    32   38   18 1    
    33   39   19 1    
    34   40   19 1    
    35   21   20 1    
    36   25   20 1    
    37   41   20 1    
    38   22   21 1    
    39   42   21 1    
    40   43   21 1    
    41   23   22 1    
    42   44   22 1    
    43   45   22 1    
    44   24   23 1    
    45   26   23 1    
    46   46   23 1    
    47   25   24 1    
    48   47   24 1    
    49   48   24 1    
    50   49   25 1    
    51   50   25 1    
    52   27   26 ar   
    53   31   26 ar   
    54   28   27 ar   
    55   51   27 1    
    56   29   28 ar   
    57   52   28 1    
    58   30   29 ar   
    59   53   29 1    
    60   31   30 ar   
    61   54   31 1    
@<TRIPOS>SUBSTRUCTURE
     1 D3E293      1 GROUP   
@<TRIPOS>SET

