#    Name: 4jty_1NV_2_INTS_M
#    Modification time : Tue Mar 25 06:20:27 2014

@<TRIPOS>MOLECULE
4jty_1NV_2_INTS_M
   81     0     6     0     0
SMALL
NO_CHARGES


@<TRIPOS>ATOM
      1 CA        -19.8390  -19.7295  -16.7365 C.3       2 GLC5        0.0000 
      2 CA        -18.6400  -20.9120  -15.4170 C.3       6 GLL5        0.0000 
      3 CA        -21.0380  -18.5470  -18.0560 C.3       4 GLP5        0.0000 
      4 N         -20.8735  -23.8625   -8.6760 N.am      1 SEC2        0.0000 
      5 N         -21.3640  -24.1790   -9.9310 N.am      5 SEL2        0.0000 
      6 N         -20.3830  -23.5460   -7.4210 N.am      3 SEP2        0.0000 
      7 CA        -24.5995  -22.9645  -10.7295 C.3       2 GLC5        0.0000 
      8 CA        -22.9540  -23.8740  -11.8660 C.3       6 GLL5        0.0000 
      9 CA        -26.2450  -22.0550   -9.5930 C.3       4 GLP5        0.0000 
     10 N         -23.2875  -23.1360   -8.2925 N.am      1 SEC2        0.0000 
     11 N         -23.6910  -24.0520   -9.5810 N.am      5 SEL2        0.0000 
     12 N         -22.8840  -22.2200   -7.0040 N.am      3 SEP2        0.0000 
     13 CA        -29.0090  -20.9180  -17.1585 C.3       2 GLC5        0.0000 
     14 CA        -27.0120  -21.2400  -17.5800 C.3       6 GLL5        0.0000 
     15 CA        -31.0060  -20.5960  -16.7370 C.3       4 GLP5        0.0000 
     16 CA        -27.6080  -20.6035  -18.9535 C.3       2 GLC5        0.0000 
     17 CA        -28.2040  -19.9670  -20.3270 C.3       4 GLP5        0.0000 
     18 CA        -18.9615  -18.1245  -16.7340 C.3       2 GLC5        0.0000 
     19 CA        -17.9260  -18.6940  -14.8970 C.3       6 GLL5        0.0000 
     20 CA        -19.9970  -17.5550  -18.5710 C.3       4 GLP5        0.0000 
     21 CA        -16.5430  -19.4925  -15.7115 C.3       2 GLC5        0.0000 
     22 CA        -15.1600  -20.2910  -16.5260 C.3       4 GLP5        0.0000 
     23 CA        -24.7930  -20.8875  -14.4460 C.3       2 GLC5        0.0000 
     24 CA        -25.2120  -21.6210  -16.4610 C.3       6 GLL5        0.0000 
     25 CA        -24.3740  -20.1540  -12.4310 C.3       4 GLP5        0.0000 
     26 CA        -23.9880  -21.1455  -17.4390 C.3       2 GLC5        0.0000 
     27 CA        -22.7640  -20.6700  -18.4170 C.3       4 GLP5        0.0000 
     28 CA        -24.3255  -22.6865  -17.8200 C.3       2 GLC5        0.0000 
     29 CA        -23.4390  -23.7520  -19.1790 C.3       4 GLP5        0.0000 
     30 CA        -25.7655  -20.6955  -13.9240 C.3       2 GLC5        0.0000 
     31 CA        -27.1570  -21.2370  -15.4170 C.3       6 GLL5        0.0000 
     32 CA        -27.5565  -22.3410  -13.5785 C.3       2 GLC5        0.0000 
     33 CA        -27.9560  -23.4450  -11.7400 C.3       4 GLP5        0.0000 
     34 CA        -29.1235  -21.6145  -15.7705 C.3       2 GLC5        0.0000 
     35 CA        -31.0900  -21.9920  -16.1240 C.3       4 GLP5        0.0000 
     36 CA        -18.3355  -22.0410   -9.7125 C.3       2 GLC5        0.0000 
     37 CA        -18.1970  -21.8550  -11.2830 C.3       6 GLL5        0.0000 
     38 CA        -18.4740  -22.2270   -8.1420 C.3       4 GLP5        0.0000 
     39 CA        -19.5580  -20.8500  -10.5905 C.3       2 GLC5        0.0000 
     40 CA        -20.9190  -19.8450   -9.8980 C.3       4 GLP5        0.0000 
     41 CA        -18.0710  -22.2245  -17.0990 C.3       2 GLC5        0.0000 
     42 CA        -19.3590  -23.1370  -15.9020 C.3       6 GLL5        0.0000 
     43 CA        -16.7830  -21.3120  -18.2960 C.3       4 GLP5        0.0000 
     44 N         -26.0710  -23.5650  -20.5130 N.am      1 SEC2        0.0000 
     45 N         -27.3130  -23.7390  -19.8480 N.am      5 SEL2        0.0000 
     46 N         -24.8290  -23.3910  -21.1780 N.am      3 SEP2        0.0000 
     47 CA        -20.1013  -20.4657  -13.0403 C.3       2 GLC5        0.0000 
     48 CA        -18.3500  -21.5790  -12.6250 C.3       6 GLL5        0.0000 
     49 CA        -22.0030  -20.0180  -13.2270 C.3       4 GLP5        0.0000 
     50 CA        -16.5682  -21.1588  -14.1963 C.3       2 GLC5        0.0000 
     51 CA        -18.0490  -20.2480  -13.0820 C.3       6 GLL5        0.0000 
     52 CA        -14.9370  -21.4040  -15.5390 C.3       4 GLP5        0.0000 
     53 CA        -20.2110  -20.2182  -14.0862 C.3       2 GLC5        0.0000 
     54 CA        -18.1980  -19.9250  -14.4740 C.3       6 GLL5        0.0000 
     55 CA        -18.0965  -17.4657  -14.9632 C.3       2 GLC5        0.0000 
     56 CA        -18.1310  -15.6220  -15.2410 C.3       4 GLP5        0.0000 
     57 CA        -20.4383  -21.2225  -13.7420 C.3       2 GLC5        0.0000 
     58 CA        -18.9410  -22.2420  -14.9680 C.3       6 GLL5        0.0000 
     59 CA        -16.8085  -21.3671  -15.2479 C.3       2 GLC5        0.0000 
     60 CA        -26.1898  -23.5430  -12.3953 C.3       2 GLC5        0.0000 
     61 CA        -24.3060  -23.7220  -12.3490 C.3       6 GLL5        0.0000 
     62 CA        -24.2298  -21.9165  -12.6804 C.3       2 GLC5        0.0000 
     63 CA        -24.5410  -23.5600  -13.7520 C.3       6 GLL5        0.0000 
     64 CA        -22.3409  -21.8413  -13.6499 C.3       2 GLC5        0.0000 
     65 CA        -23.4250  -23.5470  -14.6720 C.3       6 GLL5        0.0000 
     66 CA        -22.8293  -24.6047  -15.9930 C.3       2 GLC5        0.0000 
     67 CA        -22.0880  -23.7000  -14.1740 C.3       6 GLL5        0.0000 
     68 CA        -22.9020  -25.5860  -17.5630 C.3       4 GLP5        0.0000 
     69 CA        -25.5140  -20.7500  -18.0832 C.3       2 GLC5        0.0000 
     70 CA        -26.5640  -21.9140  -16.4590 C.3       6 GLL5        0.0000 
     71 CA        -24.2400  -19.9230  -19.1470 C.3       4 GLP5        0.0000 
     72 CA        -27.2948  -24.1702  -13.4085 C.3       2 GLC5        0.0000 
     73 CA        -26.5050  -24.1710  -15.1590 C.3       6 GLL5        0.0000 
     74 CA        -26.1390  -25.9742  -17.9630 C.3       2 GLC5        0.0000 
     75 CA        -27.3800  -26.3780  -16.0190 C.3       6 GLL5        0.0000 
     76 CA        -24.7040  -25.8910  -19.3000 C.3       4 GLP5        0.0000 
     77 CA        -29.1527  -22.9322  -16.5317 C.3       2 GLC5        0.0000 
     78 CA        -27.5490  -24.3000  -17.4770 C.3       6 GLL5        0.0000 
     79 CA        -25.9597  -24.8818  -18.1197 C.3       2 GLC5        0.0000 
     80 CA        -26.9803  -19.5975  -15.8783 C.3       2 GLC5        0.0000 
     81 CA        -27.3820  -17.7770  -15.6780 C.3       4 GLP5        0.0000 
@<TRIPOS>BOND
@<TRIPOS>SUBSTRUCTURE
     1 SEC2        4 GROUP        1 X    SEC  0     ROOT SEC X 2
     2 GLC5        1 GROUP        1 X    GLC  0     **** GLC X 6
     3 SEP2        6 GROUP        1 Y    SEP  0     ROOT SEP Y 9
     4 GLP5        3 GROUP        1 Y    GLP  0     **** GLP Y 13
     5 SEL2        5 GROUP        1 Z    SEL  0     ROOT SEL Z 16
     6 GLL5        2 GROUP        1 Z    GLL  0     **** GLL Z 20
@<TRIPOS>SET

