#    Name: 4jty_1NV_2_ligand
#    Modification time : Tue Mar 25 06:20:27 2014

@<TRIPOS>MOLECULE
4jty_1NV_2_ligand
   48    51     1     0     0
SMALL
NO_CHARGES


@<TRIPOS>ATOM
      1 C1        -18.3500  -21.5790  -12.6250 C.ar      1 1NV602      0.0000 
      2 C2        -18.0490  -20.2480  -13.0820 C.ar      1 1NV602      0.0000 
      3 C3        -18.1980  -19.9250  -14.4740 C.ar      1 1NV602      0.0000 
      4 C4        -18.6400  -20.9120  -15.4170 C.ar      1 1NV602      0.0000 
      5 C5        -18.9410  -22.2420  -14.9680 C.ar      1 1NV602      0.0000 
      6 C6        -18.8060  -22.6120  -13.5460 C.ar      1 1NV602      0.0000 
      7 C7        -19.1300  -24.0140  -13.0350 C.3       1 1NV602      0.0000 
      8 N8        -21.3640  -24.1790   -9.9310 N.2       1 1NV602      0.0000 
      9 C9        -20.3560  -24.1620  -10.8070 C.2       1 1NV602      0.0000 
     10 N10       -20.4220  -24.0220  -12.2040 N.pl3     1 1NV602      0.0000 
     11 C11       -21.7770  -23.8640  -12.7730 C.ar      1 1NV602      0.0000 
     12 C12       -22.9540  -23.8740  -11.8660 C.ar      1 1NV602      0.0000 
     13 C13       -24.3060  -23.7220  -12.3490 C.ar      1 1NV602      0.0000 
     14 C14       -24.5410  -23.5600  -13.7520 C.ar      1 1NV602      0.0000 
     15 C15       -23.4250  -23.5470  -14.6720 C.ar      1 1NV602      0.0000 
     16 C16       -22.0880  -23.7000  -14.1740 C.ar      1 1NV602      0.0000 
     17 C17       -22.7060  -24.0400  -10.3850 C.2       1 1NV602      0.0000 
     18 O18       -23.6910  -24.0520   -9.5810 O.2       1 1NV602      0.0000 
     19 F19       -27.0120  -21.2400  -17.5800 F         1 1NV602      0.0000 
     20 O20       -25.8950  -23.4020  -14.1220 O.3       1 1NV602      0.0000 
     21 C21       -26.5050  -24.1710  -15.1590 C.ar      1 1NV602      0.0000 
     22 C22       -26.7620  -25.6200  -14.9950 C.ar      1 1NV602      0.0000 
     23 C23       -27.3800  -26.3780  -16.0190 C.ar      1 1NV602      0.0000 
     24 C24       -27.7680  -25.7370  -17.2330 C.ar      1 1NV602      0.0000 
     25 C25       -27.5490  -24.3000  -17.4770 C.ar      1 1NV602      0.0000 
     26 C26       -26.8820  -23.4450  -16.4020 C.ar      1 1NV602      0.0000 
     27 C27       -26.5640  -21.9140  -16.4590 C.3       1 1NV602      0.0000 
     28 F28       -17.9260  -18.6940  -14.8970 F         1 1NV602      0.0000 
     29 F29       -25.2120  -21.6210  -16.4610 F         1 1NV602      0.0000 
     30 F30       -27.1570  -21.2370  -15.4170 F         1 1NV602      0.0000 
     31 F31       -18.1970  -21.8550  -11.2830 F         1 1NV602      0.0000 
     32 F32       -19.3590  -23.1370  -15.9020 F         1 1NV602      0.0000 
     33 C33       -28.0510  -23.8790  -18.8340 C.2       1 1NV602      0.0000 
     34 O34       -27.3130  -23.7390  -19.8480 O.2       1 1NV602      0.0000 
     35 N35       -29.4210  -23.7000  -18.7310 N.am      1 1NV602      0.0000 
     36 H         -17.7351  -19.5462  -12.4276 H         1 1NV602      0.0000 
     37 H         -18.7393  -20.6720  -16.3947 H         1 1NV602      0.0000 
     38 H         -18.3074  -24.3720  -12.4155 H         1 1NV602      0.0000 
     39 H         -19.2491  -24.6891  -13.8827 H         1 1NV602      0.0000 
     40 H         -19.3422  -24.2686  -10.4134 H         1 1NV602      0.0000 
     41 H         -25.0770  -23.7306  -11.6975 H         1 1NV602      0.0000 
     42 H         -23.5916  -23.4302  -15.6616 H         1 1NV602      0.0000 
     43 H         -21.3032  -23.6930  -14.8506 H         1 1NV602      0.0000 
     44 H         -26.4784  -26.0546  -14.1181 H         1 1NV602      0.0000 
     45 H         -27.5479  -27.3713  -15.8947 H         1 1NV602      0.0000 
     46 H         -28.2193  -26.2815  -17.9785 H         1 1NV602      0.0000 
     47 H         -29.8230  -23.8867  -17.8346 H         1 1NV602      0.0000 
     48 H         -29.8892  -23.3996  -19.5620 H         1 1NV602      0.0000 
@<TRIPOS>BOND
     1    2    1 ar   
     2    6    1 ar   
     3   31    1 1    
     4    3    2 ar   
     5   36    2 1    
     6    4    3 ar   
     7   28    3 1    
     8    5    4 ar   
     9   37    4 1    
    10    6    5 ar   
    11   32    5 1    
    12    7    6 1    
    13   10    7 1    
    14   38    7 1    
    15   39    7 1    
    16    9    8 2    
    17   17    8 1    
    18   10    9 1    
    19   40    9 1    
    20   11   10 1    
    21   12   11 ar   
    22   16   11 ar   
    23   13   12 ar   
    24   17   12 1    
    25   14   13 ar   
    26   41   13 1    
    27   15   14 ar   
    28   20   14 1    
    29   16   15 ar   
    30   42   15 1    
    31   43   16 1    
    32   18   17 2    
    33   27   19 1    
    34   21   20 1    
    35   22   21 ar   
    36   26   21 ar   
    37   23   22 ar   
    38   44   22 1    
    39   24   23 ar   
    40   45   23 1    
    41   25   24 ar   
    42   46   24 1    
    43   26   25 ar   
    44   33   25 1    
    45   27   26 1    
    46   29   27 1    
    47   30   27 1    
    48   34   33 2    
    49   35   33 am   
    50   47   35 1    
    51   48   35 1    
@<TRIPOS>SUBSTRUCTURE
     1 1NV602      1 GROUP   
@<TRIPOS>SET

