#    Name: 3fqe_P5C_1_INTS_M
#    Modification time : Tue Mar 25 06:15:13 2014

@<TRIPOS>MOLECULE
3fqe_P5C_1_INTS_M
   69     0    12     0     0
SMALL
NO_CHARGES


@<TRIPOS>ATOM
      1 CA          3.1665    1.8990   11.5020 C.3       4 GLC5        0.0000 
      2 CA          3.5330    2.6840   13.5050 C.3      12 GLL5        0.0000 
      3 CA          2.8000    1.1140    9.4990 C.3       8 GLP5        0.0000 
      4 CA          4.9480    3.4700   12.1130 C.3       4 GLC5        0.0000 
      5 CA          6.3630    4.2560   10.7210 C.3       8 GLP5        0.0000 
      6 CA          2.9595    3.2250   15.4990 C.3       4 GLC5        0.0000 
      7 CA          2.3860    3.7660   17.4930 C.3       8 GLP5        0.0000 
      8 CA          5.9205    3.3195   15.9525 C.3       4 GLC5        0.0000 
      9 CA          5.3050    1.7830   14.7320 C.3      12 GLL5        0.0000 
     10 CA          6.5360    4.8560   17.1730 C.3       8 GLP5        0.0000 
     11 CA          3.1775   -0.2205   12.6760 C.3       4 GLC5        0.0000 
     12 CA          3.2540    0.5640   14.5730 C.3      12 GLL5        0.0000 
     13 CA          3.1010   -1.0050   10.7790 C.3       8 GLP5        0.0000 
     14 CA          2.4495    0.9745   15.9975 C.3       4 GLC5        0.0000 
     15 CA          1.6450    1.3850   17.4220 C.3       8 GLP5        0.0000 
     16 CA         -1.4500   -0.0505   11.2460 C.3       4 GLC5        0.0000 
     17 CA         -0.8150   -0.2850   13.2020 C.3      12 GLL5        0.0000 
     18 CA         -2.0850    0.1840    9.2900 C.3       8 GLP5        0.0000 
     19 CA         -1.4815   -1.9565   16.9490 C.3       4 GLC5        0.0000 
     20 CA         -1.5670   -3.1500   15.5790 C.3      12 GLL5        0.0000 
     21 CA         -1.3960   -0.7630   18.3190 C.3       8 GLP5        0.0000 
     22 N           4.5900   -2.3215   17.4840 N.am      2 SEC2        0.0000 
     23 N           4.5090   -1.4290   16.2270 N.am     10 SEL2        0.0000 
     24 N           4.6710   -3.2140   18.7410 N.am      6 SEP2        0.0000 
     25 O           7.2960   -1.4180   16.7845 O.2       1 ALC1        0.0000 
     26 O           6.4060   -0.2780   16.3260 O.2       9 ALL1        0.0000 
     27 O           8.1860   -2.5580   17.2430 O.2       5 ALP1        0.0000 
     28 O           3.6830    4.8765   12.7320 O.2       1 ALC1        0.0000 
     29 O           3.0250    3.6840   12.7430 O.2       9 ALL1        0.0000 
     30 O           4.3410    6.0690   12.7210 O.2       5 ALP1        0.0000 
     31 CA          1.5595    4.0820   15.4580 C.3       4 GLC5        0.0000 
     32 CA          0.7330    4.3980   13.4230 C.3      12 GLL5        0.0000 
     33 OD1         2.7570    5.9140   13.2130 O.co2     3 ASC3        0.0000 
     34 OD1         1.1730    5.7590   13.7050 O.co2    11 ASL3        0.0000 
     35 OD1         4.3410    6.0690   12.7210 O.co2     7 ASP3        0.0000 
     36 OD1         2.4120    5.9425   14.2540 O.co2     3 ASC3        0.0000 
     37 OD1         3.6510    6.1260   14.8030 O.co2     7 ASP3        0.0000 
     38 O           0.3740    6.0455   14.8755 O.2       1 ALC1        0.0000 
     39 O           1.1730    5.7590   13.7050 O.2       9 ALL1        0.0000 
     40 O          -0.4250    6.3320   16.0460 O.2       5 ALP1        0.0000 
     41 O           2.7570    5.9140   13.2130 O.2       1 ALC1        0.0000 
     42 O           2.4120    5.9425   14.2540 O.2       1 ALC1        0.0000 
     43 O           3.6510    6.1260   14.8030 O.2       5 ALP1        0.0000 
     44 CA         -1.8175    3.4455   14.4710 C.3       4 GLC5        0.0000 
     45 CA         -0.7270    4.4420   12.9710 C.3      12 GLL5        0.0000 
     46 CA         -2.9080    2.4490   15.9710 C.3       8 GLP5        0.0000 
     47 CA          2.5285    4.2340    9.1895 C.3       4 GLC5        0.0000 
     48 CA          1.4930    4.4390   10.9860 C.3      12 GLL5        0.0000 
     49 CA          3.5640    4.0290    7.3930 C.3       8 GLP5        0.0000 
     50 CA          6.4863    0.9858   13.7312 C.3       4 GLC5        0.0000 
     51 CA          8.0450    0.7540   12.5680 C.3       8 GLP5        0.0000 
     52 CA          3.8213    1.7812   16.4093 C.3       4 GLC5        0.0000 
     53 CA          2.7150    2.3450   17.9240 C.3       8 GLP5        0.0000 
     54 CA          4.8585   -1.1490   14.1585 C.3       4 GLC5        0.0000 
     55 CA          4.5500    0.6520   15.0570 C.3      12 GLL5        0.0000 
     56 CA          5.8150   -2.9060   13.5020 C.3       8 GLP5        0.0000 
     57 CA          1.9773   -0.6975   12.4005 C.3       4 GLC5        0.0000 
     58 CA          1.1870   -0.7550   14.5180 C.3      12 GLL5        0.0000 
     59 CA         -0.9571   -2.3790   12.4612 C.3       4 GLC5        0.0000 
     60 CA         -0.8390   -2.0390   14.8610 C.3      12 GLL5        0.0000 
     61 CA         -0.9230   -3.7800   11.1370 C.3       8 GLP5        0.0000 
     62 CA         -0.8671   -1.2403   16.5472 C.3       4 GLC5        0.0000 
     63 CA         -1.4960   -1.3030   13.8770 C.3      12 GLL5        0.0000 
     64 CA          1.1586    0.1540   16.0120 C.3       4 GLC5        0.0000 
     65 CA          0.4910   -1.7640   15.1820 C.3      12 GLL5        0.0000 
     66 CA          2.1790    2.6008   10.5828 C.3       4 GLC5        0.0000 
     67 CA          1.6230    3.7360   12.3470 C.3      12 GLL5        0.0000 
     68 CA         -1.1567    0.1133   15.3284 C.3       4 GLC5        0.0000 
     69 CA         -2.1540    1.2540   16.4630 C.3       8 GLP5        0.0000 
@<TRIPOS>BOND
@<TRIPOS>SUBSTRUCTURE
     1 ALC1       25 GROUP        1 X    ALC  0     ROOT ALC X 1
     2 SEC2       22 GROUP        1 X    SEC  0     **** SEC X 2
     3 ASC3       33 GROUP        1 X    ASC  0     **** ASC X 3
     4 GLC5        1 GROUP        1 X    GLC  0     **** GLC X 6
     5 ALP1       27 GROUP        1 Y    ALP  0     ROOT ALP Y 8
     6 SEP2       24 GROUP        1 Y    SEP  0     **** SEP Y 9
     7 ASP3       35 GROUP        1 Y    ASP  0     **** ASP Y 10
     8 GLP5        3 GROUP        1 Y    GLP  0     **** GLP Y 13
     9 ALL1       26 GROUP        1 Z    ALL  0     ROOT ALL Z 15
    10 SEL2       23 GROUP        1 Z    SEL  0     **** SEL Z 16
    11 ASL3       34 GROUP        1 Z    ASL  0     **** ASL Z 17
    12 GLL5        2 GROUP        1 Z    GLL  0     **** GLL Z 20
@<TRIPOS>SET

