#    Name: 3fqe_P5C_1_ligand
#    Modification time : Tue Mar 25 06:15:13 2014

@<TRIPOS>MOLECULE
3fqe_P5C_1_ligand
   50    52     1     0     0
SMALL
NO_CHARGES


@<TRIPOS>ATOM
      1 C2          3.5330    2.6840   13.5050 C.ar      1 P5C1        0.0000 
      2 C3          5.3050    1.7830   14.7320 C.ar      1 P5C1        0.0000 
      3 N1          2.7880    1.5910   13.8060 N.ar      1 P5C1        0.0000 
      4 C4          4.5500    0.6520   15.0570 C.ar      1 P5C1        0.0000 
      5 C6          3.2540    0.5640   14.5730 C.ar      1 P5C1        0.0000 
      6 C8          5.1530   -0.4330   15.9140 C.2       1 P5C1        0.0000 
      7 C12         1.1870   -0.7550   14.5180 C.ar      1 P5C1        0.0000 
      8 C13         0.5200   -0.0250   13.5260 C.ar      1 P5C1        0.0000 
      9 C14        -1.4960   -1.3030   13.8770 C.ar      1 P5C1        0.0000 
     10 C15        -0.8390   -2.0390   14.8610 C.ar      1 P5C1        0.0000 
     11 C16        -0.8150   -0.2850   13.2020 C.ar      1 P5C1        0.0000 
     12 C17         0.4910   -1.7640   15.1820 C.ar      1 P5C1        0.0000 
     13 C18        -1.5670   -3.1500   15.5790 C.3       1 P5C1        0.0000 
     14 O10         4.5090   -1.4290   16.2270 O.2       1 P5C1        0.0000 
     15 N9          6.4060   -0.2780   16.3260 N.am      1 P5C1        0.0000 
     16 N11         2.4880   -0.5280   14.8710 N.pl3     1 P5C1        0.0000 
     17 N5          4.7960    2.7720   13.9710 N.ar      1 P5C1        0.0000 
     18 N7          3.0250    3.6840   12.7430 N.pl3     1 P5C1        0.0000 
     19 C19         1.6230    3.7360   12.3470 C.3       1 P5C1        0.0000 
     20 C24         0.7330    4.3980   13.4230 C.3       1 P5C1        0.0000 
     21 N25         1.1730    5.7590   13.7050 N.4       1 P5C1        0.0000 
     22 C23        -0.7270    4.4420   12.9710 C.3       1 P5C1        0.0000 
     23 C22        -0.8880    5.1070   11.5950 C.3       1 P5C1        0.0000 
     24 C21         0.0330    4.5180   10.5260 C.3       1 P5C1        0.0000 
     25 C20         1.4930    4.4390   10.9860 C.3       1 P5C1        0.0000 
     26 H           6.2814    1.8421   15.0971 H         1 P5C1        0.0000 
     27 H           1.0279    0.7237   13.0220 H         1 P5C1        0.0000 
     28 H          -2.4738   -1.5050   13.6473 H         1 P5C1        0.0000 
     29 H          -1.2871    0.2617   12.4813 H         1 P5C1        0.0000 
     30 H           0.9624   -2.3123   15.9169 H         1 P5C1        0.0000 
     31 H           6.8631    0.5633   16.0376 H         1 P5C1        0.0000 
     32 H           6.7791   -1.0166   16.8874 H         1 P5C1        0.0000 
     33 H           2.9703   -1.3084   15.4582 H         1 P5C1        0.0000 
     34 H           3.6261    4.4662   12.4056 H         1 P5C1        0.0000 
     35 H           1.2489    2.7065   12.2070 H         1 P5C1        0.0000 
     36 H           0.7856    3.7944   14.3205 H         1 P5C1        0.0000 
     37 H          -1.3149    4.9994   13.7053 H         1 P5C1        0.0000 
     38 H          -1.1194    3.4227   12.9205 H         1 P5C1        0.0000 
     39 H          -0.6821    6.1814   11.6947 H         1 P5C1        0.0000 
     40 H          -1.9317    4.9992   11.2696 H         1 P5C1        0.0000 
     41 H          -0.0232    5.1363    9.6233 H         1 P5C1        0.0000 
     42 H          -0.3142    3.5115   10.2678 H         1 P5C1        0.0000 
     43 H           2.0736    3.8885   10.2445 H         1 P5C1        0.0000 
     44 H           1.8989    5.4483   11.0669 H         1 P5C1        0.0000 
     45 H          -0.9846   -3.5981   16.2572 H         1 P5C1        0.0000 
     46 H          -2.3745   -2.8128   16.0631 H         1 P5C1        0.0000 
     47 H          -1.8792   -3.8589   14.9466 H         1 P5C1        0.0000 
     48 H           0.7173    6.4263   13.1158 H         1 P5C1        0.0000 
     49 H           0.9809    6.0231   14.6502 H         1 P5C1        0.0000 
     50 H           2.1571    5.8678   13.5646 H         1 P5C1        0.0000 
@<TRIPOS>BOND
     1    3    1 ar   
     2   17    1 ar   
     3   18    1 1    
     4    4    2 ar   
     5   17    2 ar   
     6   26    2 1    
     7    5    3 ar   
     8    5    4 ar   
     9    6    4 1    
    10   16    5 1    
    11   14    6 2    
    12   15    6 am   
    13    8    7 ar   
    14   12    7 ar   
    15   16    7 1    
    16   11    8 ar   
    17   27    8 1    
    18   10    9 ar   
    19   11    9 ar   
    20   28    9 1    
    21   12   10 ar   
    22   13   10 1    
    23   29   11 1    
    24   30   12 1    
    25   45   13 1    
    26   46   13 1    
    27   47   13 1    
    28   31   15 1    
    29   32   15 1    
    30   33   16 1    
    31   19   18 1    
    32   34   18 1    
    33   20   19 1    
    34   25   19 1    
    35   35   19 1    
    36   21   20 1    
    37   22   20 1    
    38   36   20 1    
    39   48   21 1    
    40   49   21 1    
    41   50   21 1    
    42   23   22 1    
    43   37   22 1    
    44   38   22 1    
    45   24   23 1    
    46   39   23 1    
    47   40   23 1    
    48   25   24 1    
    49   41   24 1    
    50   42   24 1    
    51   43   25 1    
    52   44   25 1    
@<TRIPOS>SUBSTRUCTURE
     1 P5C1        1 GROUP   
@<TRIPOS>SET

