#    Name: 2D5W_1_CAVITY_N1_6.mol2
#    Modification time : Tue Mar 11 08:19:17 2014

@<TRIPOS>MOLECULE
2D5W_1_CAVITY_N1_6.mol2
   89     0     6     0     0
SMALL
NO_CHARGES


@<TRIPOS>ATOM
      1 N          24.4237   42.1710   45.7776 N.2       2 ALA2        0.0000 
      2 NZ         26.4680   40.1146   45.0082 N.2       3 LYS4        0.0000 
      3 N          27.4902   39.0864   44.6235 N.2       2 ALA2        0.0000 
      4 N          24.2011   42.4916   44.3292 N.2       2 ALA2        0.0000 
      5 DU         25.2233   41.4634   43.9445 H         6 CUB7        0.0000 
      6 N          26.2454   40.4352   43.5598 N.2       2 ALA2        0.0000 
      7 N          27.2676   39.4070   43.1751 N.2       2 ALA2        0.0000 
      8 O          21.9342   44.8686   43.6503 O.2       2 ALA2        0.0000 
      9 N          22.9564   43.8404   43.2656 N.2       2 ALA2        0.0000 
     10 OG         23.9785   42.8122   42.8809 O.2       1 SER1        0.0000 
     11 N          25.0007   41.7840   42.4962 N.2       2 ALA2        0.0000 
     12 N          26.0228   40.7558   42.1115 N.2       2 ALA2        0.0000 
     13 O          21.7116   45.1893   42.2020 O.2       2 ALA2        0.0000 
     14 CZ         24.7781   42.1047   41.0479 C.ar      4 PHE5        0.0000 
     15 CA         24.3180   38.0265   44.8763 C.3       5 GLY6        0.0000 
     16 N          22.0511   40.4036   44.1974 N.2       2 ALA2        0.0000 
     17 CA         23.0732   39.3754   43.8127 C.3       5 GLY6        0.0000 
     18 OG         24.0954   38.3472   43.4280 O.2       1 SER1        0.0000 
     19 O          20.8063   41.7524   43.1338 O.2       2 ALA2        0.0000 
     20 N          21.8285   40.7242   42.7491 N.2       2 ALA2        0.0000 
     21 N          22.8507   39.6960   42.3644 N.2       2 ALA2        0.0000 
     22 O          20.5838   42.0730   41.6854 O.2       2 ALA2        0.0000 
     23 N          24.6991   43.9226   47.6765 N.2       2 ALA2        0.0000 
     24 N          24.4765   44.2432   46.2282 N.2       2 ALA2        0.0000 
     25 OG         25.4987   43.2150   45.8435 O.2       1 SER1        0.0000 
     26 OG         26.5209   42.1868   45.4588 O.2       1 SER1        0.0000 
     27 N          27.5430   41.1586   45.0741 N.2       2 ALA2        0.0000 
     28 N          23.2318   45.5921   45.1645 N.2       2 ALA2        0.0000 
     29 N          24.2540   44.5639   44.7798 N.2       2 ALA2        0.0000 
     30 N          25.2761   43.5357   44.3951 N.2       2 ALA2        0.0000 
     31 N          26.2983   42.5075   44.0104 N.2       2 ALA2        0.0000 
     32 N          27.3204   41.4793   43.6257 N.2       2 ALA2        0.0000 
     33 CA         23.0092   45.9127   43.7162 C.3       5 GLY6        0.0000 
     34 OG         24.0314   44.8845   43.3315 O.2       1 SER1        0.0000 
     35 OG         25.0535   43.8563   42.9468 O.2       1 SER1        0.0000 
     36 O          26.0757   42.8281   42.5621 O.2       2 ALA2        0.0000 
     37 CA         21.7645   47.2615   42.6526 C.3       5 GLY6        0.0000 
     38 OG         22.7866   46.2333   42.2679 O.2       1 SER1        0.0000 
     39 CZ         20.7535   39.6801   42.6832 C.ar      4 PHE5        0.0000 
     40 CA         24.3708   40.0988   45.3270 C.3       5 GLY6        0.0000 
     41 CA         25.3930   39.0706   44.9423 C.3       5 GLY6        0.0000 
     42 NZ         26.4152   38.0424   44.5576 N.2       3 LYS4        0.0000 
     43 N          23.1261   41.4476   44.2633 N.2       2 ALA2        0.0000 
     44 DU         24.1483   40.4194   43.8786 H         6 CUB7        0.0000 
     45 OG         25.1704   39.3912   43.4939 O.2       1 SER1        0.0000 
     46 OG         26.1926   38.3630   43.1092 O.2       1 SER1        0.0000 
     47 O          21.8814   42.7964   43.1997 O.2       2 ALA2        0.0000 
     48 N          22.9035   41.7682   42.8150 N.2       2 ALA2        0.0000 
     49 N          23.9257   40.7400   42.4303 N.2       2 ALA2        0.0000 
     50 OG         24.9478   39.7118   42.0456 O.2       1 SER1        0.0000 
     51 O          21.6588   43.1170   41.7514 O.2       2 ALA2        0.0000 
     52 CZ         22.6809   42.0888   41.3667 C.ar      4 PHE5        0.0000 
     53 CZ         23.7031   41.0606   40.9820 C.ar      4 PHE5        0.0000 
     54 OG         26.7963   43.9385   47.3577 O.2       1 SER1        0.0000 
     55 CA         25.5515   45.2873   46.2941 C.3       5 GLY6        0.0000 
     56 CA         26.5737   44.2591   45.9094 C.3       5 GLY6        0.0000 
     57 NZ         27.5959   43.2309   45.5247 N.2       3 LYS4        0.0000 
     58 N          25.3290   45.6079   44.8458 N.2       2 ALA2        0.0000 
     59 DU         26.3511   44.5797   44.4611 H         6 CUB7        0.0000 
     60 N          27.3733   43.5515   44.0764 N.2       2 ALA2        0.0000 
     61 N          23.0621   47.9849   44.1668 N.2       2 ALA2        0.0000 
     62 N          24.0842   46.9567   43.7821 N.2       2 ALA2        0.0000 
     63 N          25.1064   45.9285   43.3974 N.2       2 ALA2        0.0000 
     64 OG         26.1285   44.9003   43.0127 O.2       1 SER1        0.0000 
     65 O          27.1507   43.8721   42.6280 O.2       2 ALA2        0.0000 
     66 CA         22.8395   48.3055   42.7185 C.3       5 GLY6        0.0000 
     67 OG         23.8616   47.2773   42.3338 O.2       1 SER1        0.0000 
     68 OG         24.8838   46.2491   41.9491 O.2       1 SER1        0.0000 
     69 OG         25.9060   45.2209   41.5644 O.2       1 SER1        0.0000 
     70 O          23.6391   47.5980   40.8855 O.2       2 ALA2        0.0000 
     71 OG         24.4386   46.8904   39.0524 O.2       1 SER1        0.0000 
     72 CZ         24.2161   47.2110   37.6041 C.ar      4 PHE5        0.0000 
     73 O          23.9935   47.5316   36.1558 O.2       2 ALA2        0.0000 
     74 CZ         25.0156   46.5034   35.7711 C.ar      4 PHE5        0.0000 
     75 N          26.4040   46.6519   44.9117 N.2       2 ALA2        0.0000 
     76 DU         27.4261   45.6237   44.5270 H         6 CUB7        0.0000 
     77 N          28.4483   44.5955   44.1423 N.2       2 ALA2        0.0000 
     78 N          25.1592   48.0008   43.8480 N.2       2 ALA2        0.0000 
     79 N          26.1814   46.9726   43.4633 N.2       2 ALA2        0.0000 
     80 N          23.9145   49.3496   42.7844 N.2       2 ALA2        0.0000 
     81 N          24.9367   48.3214   42.3997 N.2       2 ALA2        0.0000 
     82 DU         25.9588   47.2932   42.0150 H         6 CUB7        0.0000 
     83 N          26.9810   46.2650   41.6303 N.2       2 ALA2        0.0000 
     84 O          23.6919   49.6702   41.3361 O.2       2 ALA2        0.0000 
     85 O          24.7141   48.6420   40.9514 O.2       2 ALA2        0.0000 
     86 OG         25.7362   47.6138   40.5667 O.2       1 SER1        0.0000 
     87 O          26.7584   46.5856   40.1820 O.2       2 ALA2        0.0000 
     88 OG         25.5137   47.9344   39.1183 O.2       1 SER1        0.0000 
     89 O          26.5358   46.9062   38.7336 O.2       2 ALA2        0.0000 
@<TRIPOS>BOND
@<TRIPOS>SUBSTRUCTURE
     1 SER1       10 GROUP   
     2 ALA2        1 GROUP   
     3 LYS4        2 GROUP   
     4 PHE5       14 GROUP   
     5 GLY6       15 GROUP   
     6 CUB7        5 GROUP   
@<TRIPOS>SET

