#    Name: 2d5w_ALA_SER_LYS_PRO_LYS_1_INTS_M
#    Modification time : Tue Mar 25 09:43:40 2014

@<TRIPOS>MOLECULE
2d5w_ALA_SER_LYS_PRO_LYS_1_INTS_M
  106     0     9     0     0
SMALL
NO_CHARGES


@<TRIPOS>ATOM
      1 N          23.1965   44.0390   40.8760 N.am      2 SEC2        0.0000 
      2 N          22.5660   43.5170   41.9710 N.am      8 SEL2        0.0000 
      3 N          23.8270   44.5610   39.7810 N.am      5 SEP2        0.0000 
      4 CA         21.5385   46.2905   44.4930 C.3       3 GLC5        0.0000 
      5 CA         23.1510   45.1790   44.1720 C.3       9 GLL5        0.0000 
      6 CA         19.9260   47.4020   44.8140 C.3       6 GLP5        0.0000 
      7 CA         22.8925   41.6230   40.5180 C.3       3 GLC5        0.0000 
      8 CA         22.2030   40.7950   42.3500 C.3       9 GLL5        0.0000 
      9 CA         23.5820   42.4510   38.6860 C.3       6 GLP5        0.0000 
     10 N          20.0945   42.4465   44.3135 N.am      2 SEC2        0.0000 
     11 N          20.2570   42.0680   42.9270 N.am      8 SEL2        0.0000 
     12 N          19.9320   42.8250   45.7000 N.am      5 SEP2        0.0000 
     13 CA         23.2470   38.7500   41.1715 C.3       3 GLC5        0.0000 
     14 CA         22.1040   39.4060   42.9820 C.3       9 GLL5        0.0000 
     15 CA         24.3900   38.0940   39.3610 C.3       6 GLP5        0.0000 
     16 CA         22.3115   37.9415   44.5620 C.3       3 GLC5        0.0000 
     17 CA         22.5190   36.4770   46.1420 C.3       6 GLP5        0.0000 
     18 O          23.8300   37.8430   42.3880 O.2       1 ALC1        0.0000 
     19 O          23.3820   38.9370   43.3770 O.2       7 ALL1        0.0000 
     20 O          24.2780   36.7490   41.3990 O.2       4 ALP1        0.0000 
     21 O          21.0495   40.0965   40.1875 O.2       1 ALC1        0.0000 
     22 O          20.2320   41.0100   40.9430 O.2       7 ALL1        0.0000 
     23 O          21.8670   39.1830   39.4320 O.2       4 ALP1        0.0000 
     24 CA         18.7805   40.1090   42.2740 C.3       3 GLC5        0.0000 
     25 CA         18.8970   41.4820   40.5890 C.3       9 GLL5        0.0000 
     26 CA         18.6640   38.7360   43.9590 C.3       6 GLP5        0.0000 
     27 N          19.1070   38.1790   39.9285 N.am      2 SEC2        0.0000 
     28 N          18.2590   39.1930   40.2560 N.am      8 SEL2        0.0000 
     29 N          19.9550   37.1650   39.6010 N.am      5 SEP2        0.0000 
     30 CA         17.5875   42.3635   37.8395 C.3       3 GLC5        0.0000 
     31 CA         18.9320   42.1710   39.2250 C.3       9 GLL5        0.0000 
     32 CA         16.2430   42.5560   36.4540 C.3       6 GLP5        0.0000 
     33 CA         21.7230   43.6240   38.9045 C.3       3 GLC5        0.0000 
     34 CA         19.8110   43.4150   39.1810 C.3       9 GLL5        0.0000 
     35 CA         23.6350   43.8330   38.6280 C.3       6 GLP5        0.0000 
     36 CA         21.5750   44.3295   37.6430 C.3       3 GLC5        0.0000 
     37 CA         19.6590   44.1670   37.8680 C.3       9 GLL5        0.0000 
     38 CA         23.4910   44.4920   37.4180 C.3       6 GLP5        0.0000 
     39 CA         21.7175   43.5575   36.4650 C.3       3 GLC5        0.0000 
     40 CA         20.1460   43.3600   36.6750 C.3       9 GLL5        0.0000 
     41 CA         23.2890   43.7550   36.2550 C.3       6 GLP5        0.0000 
     42 CA         20.1945   43.4385   34.7970 C.3       3 GLC5        0.0000 
     43 CA         20.2430   43.5170   32.9190 C.3       6 GLP5        0.0000 
     44 CA         17.1345   39.1395   42.4415 C.3       3 GLC5        0.0000 
     45 CA         15.6050   39.5430   40.9240 C.3       9 GLL5        0.0000 
     46 N          14.9265   41.5495   38.2830 N.am      2 SEC2        0.0000 
     47 N          14.4760   40.3610   38.9620 N.am      8 SEL2        0.0000 
     48 N          15.3770   42.7380   37.6040 N.am      5 SEP2        0.0000 
     49 CA         12.9110   39.8470   42.6670 C.3       3 GLC5        0.0000 
     50 CA         14.6970   39.9330   42.0960 C.3       9 GLL5        0.0000 
     51 CA         11.1250   39.7610   43.2380 C.3       6 GLP5        0.0000 
     52 CA         14.4680   40.5280   44.7460 C.3       3 GLC5        0.0000 
     53 CA         15.4920   40.9270   42.8870 C.3       9 GLL5        0.0000 
     54 CA         13.4440   40.1290   46.6050 C.3       6 GLP5        0.0000 
     55 CA         16.5990   43.6835   42.3380 C.3       3 GLC5        0.0000 
     56 CA         16.2330   41.6800   41.8230 C.3       9 GLL5        0.0000 
     57 CA         16.9650   45.6870   42.8530 C.3       6 GLP5        0.0000 
     58 CA         15.1730   42.8480   40.5210 C.3       3 GLC5        0.0000 
     59 CA         14.1130   44.0160   39.2190 C.3       6 GLP5        0.0000 
     60 O          15.3510   37.1540   40.0380 O.2       1 ALC1        0.0000 
     61 O          14.3890   38.1500   39.3930 O.2       7 ALL1        0.0000 
     62 O          16.3130   36.1580   40.6830 O.2       4 ALP1        0.0000 
     63 CA         12.1400   38.3990   39.4320 C.3       3 GLC5        0.0000 
     64 CA         13.5360   37.8260   38.2610 C.3       9 GLL5        0.0000 
     65 CA         10.7440   38.9720   40.6030 C.3       6 GLP5        0.0000 
     66 N          10.8165   36.8710   37.1320 N.am      2 SEC2        0.0000 
     67 N          11.7510   36.2820   37.9560 N.am      8 SEL2        0.0000 
     68 N           9.8820   37.4600   36.3080 N.am      5 SEP2        0.0000 
     69 N          11.0240   35.1610   38.4090 N.am      2 SEC2        0.0000 
     70 N          10.2970   34.0400   38.8620 N.am      5 SEP2        0.0000 
     71 N          12.0830   34.7155   38.4530 N.am      2 SEC2        0.0000 
     72 N          12.4150   33.1490   38.9500 N.am      5 SEP2        0.0000 
     73 CA         15.4025   39.3530   36.5820 C.3       3 GLC5        0.0000 
     74 CA         14.3590   37.6380   36.9840 C.3       9 GLL5        0.0000 
     75 CA         16.4460   41.0680   36.1800 C.3       6 GLP5        0.0000 
     76 CA         14.2025   38.7115   35.1270 C.3       3 GLC5        0.0000 
     77 CA         14.0460   39.7850   33.2700 C.3       6 GLP5        0.0000 
     78 CA         15.6260   34.8365   38.1230 C.3       3 GLC5        0.0000 
     79 CA         15.1410   36.3420   36.9420 C.3       9 GLL5        0.0000 
     80 CA         16.1110   33.3310   39.3040 C.3       6 GLP5        0.0000 
     81 CA         17.4080   34.7095   35.9930 C.3       3 GLC5        0.0000 
     82 CA         16.1240   36.3020   35.7880 C.3       9 GLL5        0.0000 
     83 CA         18.6920   33.1170   36.1980 C.3       6 GLP5        0.0000 
     84 CA         14.7490   38.1610   33.8610 C.3       3 GLC5        0.0000 
     85 CA         15.4520   36.5370   34.4520 C.3       9 GLL5        0.0000 
     86 O          15.9135   36.6685   32.2635 O.2       1 ALC1        0.0000 
     87 O          16.4510   36.4650   33.3520 O.2       7 ALL1        0.0000 
     88 O          15.3760   36.8720   31.1750 O.2       4 ALP1        0.0000 
     89 N          11.7745   34.9200   39.1795 N.am      2 SEC2        0.0000 
     90 N          13.2520   35.8000   39.4970 N.am      8 SEL2        0.0000 
     91 N          12.8335   34.4745   39.2235 N.am      2 SEC2        0.0000 
     92 N          13.9445   34.8790   40.3245 N.am      2 SEC2        0.0000 
     93 N          14.6370   33.9580   41.1520 N.am      5 SEP2        0.0000 
     94 O          14.7825   35.9790   40.0900 O.2       1 ALC1        0.0000 
     95 O          13.2520   35.8000   39.4970 O.2       7 ALL1        0.0000 
     96 CA         20.4088   39.4183   43.3125 C.3       3 GLC5        0.0000 
     97 CA         18.0727   43.1598   36.8627 C.3       3 GLC5        0.0000 
     98 CA         19.3368   45.0662   36.4667 C.3       3 GLC5        0.0000 
     99 CA         18.7710   46.3690   35.6620 C.3       6 GLP5        0.0000 
    100 CA         14.7705   37.9565   42.5225 C.3       3 GLC5        0.0000 
    101 CA         14.3900   36.1750   43.5350 C.3       6 GLP5        0.0000 
    102 CA         16.8929   40.4050   43.4501 C.3       3 GLC5        0.0000 
    103 CA         18.1220   39.7550   44.7430 C.3       6 GLP5        0.0000 
    104 CA         16.7700   37.2375   36.9505 C.3       3 GLC5        0.0000 
    105 CA         18.7900   37.4850   36.9380 C.3       6 GLP5        0.0000 
    106 CA         17.2890   36.9522   36.0290 C.3       3 GLC5        0.0000 
@<TRIPOS>BOND
@<TRIPOS>SUBSTRUCTURE
     1 ALC1       18 GROUP        1 X    ALC  0     ROOT ALC X 1
     2 SEC2        1 GROUP        1 X    SEC  0     **** SEC X 2
     3 GLC5        4 GROUP        1 X    GLC  0     **** GLC X 6
     4 ALP1       20 GROUP        1 Y    ALP  0     ROOT ALP Y 8
     5 SEP2        3 GROUP        1 Y    SEP  0     **** SEP Y 9
     6 GLP5        6 GROUP        1 Y    GLP  0     **** GLP Y 13
     7 ALL1       19 GROUP        1 Z    ALL  0     ROOT ALL Z 15
     8 SEL2        2 GROUP        1 Z    SEL  0     **** SEL Z 16
     9 GLL5        5 GROUP        1 Z    GLL  0     **** GLL Z 20
@<TRIPOS>SET

