#    Name: 2d5w_ALA_SER_LYS_PRO_LYS_1_ligand
#    Modification time : Tue Mar 25 09:43:40 2014

@<TRIPOS>MOLECULE
2d5w_ALA_SER_LYS_PRO_LYS_1_ligand
   83    83     5     0     0
SMALL
NO_CHARGES


@<TRIPOS>ATOM
      1 N          25.2320   43.9900   43.5920 N.4       1 ALA1        0.0000
      2 CA         23.8100   43.8180   44.0020 C.3       1 ALA1        0.0000
      3 C          23.0400   42.9920   42.9790 C.2       1 ALA1        0.0000
      4 O          22.5660   43.5170   41.9710 O.2       1 ALA1        0.0000
      5 CB         23.1510   45.1790   44.1720 C.3       1 ALA1        0.0000
      6 HA         23.7700   43.3031   44.9560 H         1 ALA1        0.0000
      7 H          25.7475   44.5305   44.2569 H         1 ALA1        0.0000
      8 H          25.7013   43.1116   43.5015 H         1 ALA1        0.0000
      9 H          25.3107   44.4565   42.7110 H         1 ALA1        0.0000
     10 HB1        23.6077   45.7279   44.8720 H         1 ALA1        0.0000
     11 HB2        23.1705   45.7095   43.3246 H         1 ALA1        0.0000
     12 HB3        22.1922   45.0960   44.4439 H         1 ALA1        0.0000
     13 N          22.9200   41.6960   43.2440 N.am      2 SER2        0.0000
     14 CA         22.2030   40.7950   42.3500 C.3       2 SER2        0.0000
     15 C          20.8050   41.3480   42.0950 C.2       2 SER2        0.0000
     16 O          20.2570   42.0680   42.9270 O.2       2 SER2        0.0000
     17 CB         22.1040   39.4060   42.9820 C.3       2 SER2        0.0000
     18 OG         23.3820   38.9370   43.3770 O.3       2 SER2        0.0000
     19 HNCA       23.3279   41.2593   44.0963 H         2 SER2        0.0000
     20 HA         22.7130   40.7076   41.4090 H         2 SER2        0.0000
     21 HB2        21.6319   38.7394   42.2418 H         2 SER2        0.0000
     22 HB3        21.4112   39.4806   43.8361 H         2 SER2        0.0000
     23 HG         23.6152   38.2292   42.7103 H         2 SER2        0.0000
     24 N          20.2320   41.0100   40.9430 N.am      3 LYS3        0.0000
     25 CA         18.8970   41.4820   40.5890 C.3       3 LYS3        0.0000
     26 C          17.8980   40.3250   40.5650 C.2       3 LYS3        0.0000
     27 O          18.2590   39.1930   40.2560 O.2       3 LYS3        0.0000
     28 CB         18.9320   42.1710   39.2250 C.3       3 LYS3        0.0000
     29 CG         19.8110   43.4150   39.1810 C.3       3 LYS3        0.0000
     30 CD         19.6590   44.1670   37.8680 C.3       3 LYS3        0.0000
     31 CE         20.1460   43.3600   36.6750 C.3       3 LYS3        0.0000
     32 NZ         19.3580   42.1260   36.4130 N.4       3 LYS3        0.0000
     33 HNCA       20.6984   40.4001   40.2435 H         3 LYS3        0.0000
     34 HA         18.5513   42.2085   41.3181 H         3 LYS3        0.0000
     35 HB2        17.9032   42.4476   38.9394 H         3 LYS3        0.0000
     36 HB3        19.2912   41.4504   38.4712 H         3 LYS3        0.0000
     37 HG2        20.8567   43.1202   39.3092 H         3 LYS3        0.0000
     38 HG3        19.5390   44.0760   40.0092 H         3 LYS3        0.0000
     39 HD2        20.2256   45.1054   37.9232 H         3 LYS3        0.0000
     40 HD3        18.6022   44.4245   37.7211 H         3 LYS3        0.0000
     41 HE2        21.2096   43.0961   36.8415 H         3 LYS3        0.0000
     42 HE3        20.1271   44.0129   35.7795 H         3 LYS3        0.0000
     43 HZ1        19.7094   41.6214   35.6244 H         3 LYS3        0.0000
     44 HZ2        19.3767   41.5007   37.1932 H         3 LYS3        0.0000
     45 HZ3        18.3976   42.3315   36.2251 H         3 LYS3        0.0000
     46 N          16.6290   40.5930   40.9150 N.am      4 PRO4        0.0000
     47 CA         15.6050   39.5430   40.9240 C.3       4 PRO4        0.0000
     48 C          14.7770   39.3910   39.6590 C.2       4 PRO4        0.0000
     49 O          14.4760   40.3610   38.9620 O.2       4 PRO4        0.0000
     50 CB         14.6970   39.9330   42.0960 C.3       4 PRO4        0.0000
     51 CG         15.4920   40.9270   42.8870 C.3       4 PRO4        0.0000
     52 CD         16.2330   41.6800   41.8230 C.3       4 PRO4        0.0000
     53 HA         16.0515   38.5936   41.1912 H         4 PRO4        0.0000
     54 HB2        14.4907   39.0655   42.6831 H         4 PRO4        0.0000
     55 HB3        13.8069   40.3828   41.7150 H         4 PRO4        0.0000
     56 HG2        16.1777   40.4241   43.5247 H         4 PRO4        0.0000
     57 HG3        14.8410   41.5820   43.4132 H         4 PRO4        0.0000
     58 HD2        15.5757   42.3590   41.3392 H         4 PRO4        0.0000
     59 HD3        17.0851   42.1528   42.2444 H         4 PRO4        0.0000
     60 N          14.3890   38.1500   39.3930 N.am      5 LYS5        0.0000
     61 CA         13.5360   37.8260   38.2610 C.3       5 LYS5        0.0000
     62 C          12.7870   36.5400   38.5990 C.2       5 LYS5        0.0000
     63 O          11.7510   36.2820   37.9560 O.2       5 LYS5        0.0000
     64 CB         14.3590   37.6380   36.9840 C.3       5 LYS5        0.0000
     65 CG         15.1410   36.3420   36.9420 C.3       5 LYS5        0.0000
     66 CD         16.1240   36.3020   35.7880 C.3       5 LYS5        0.0000
     67 CE         15.4520   36.5370   34.4520 C.3       5 LYS5        0.0000
     68 NZ         16.4510   36.4650   33.3520 N.4       5 LYS5        0.0000
     69 OXT        13.2520   35.8000   39.4970 O.3       5 LYS5        0.0000
     70 HNCA       14.6787   37.3384   39.9872 H         5 LYS5        0.0000
     71 HA         12.8108   38.6022   38.0972 H         5 LYS5        0.0000
     72 HB2        15.0562   38.4876   36.8856 H         5 LYS5        0.0000
     73 HB3        13.6785   37.6813   36.1165 H         5 LYS5        0.0000
     74 HG2        14.4424   35.5006   36.8495 H         5 LYS5        0.0000
     75 HG3        15.6879   36.2185   37.8855 H         5 LYS5        0.0000
     76 HD2        16.6242   35.3247   35.7747 H         5 LYS5        0.0000
     77 HD3        16.8951   37.0676   35.9450 H         5 LYS5        0.0000
     78 HE2        14.9753   37.5201   34.4615 H         5 LYS5        0.0000
     79 HE3        14.6778   35.7802   34.3051 H         5 LYS5        0.0000
     80 HZ1        17.2038   35.8453   33.5739 H         5 LYS5        0.0000
     81 HZ2        16.0426   36.1367   32.5003 H         5 LYS5        0.0000
     82 HZ3        16.8548   37.3590   33.1579 H         5 LYS5        0.0000
     83 H          14.1968   36.1040   39.6192 H         5 LYS5        0.0000
@<TRIPOS>BOND
     1    2    1 1
     2    7    1 1
     3    8    1 1
     4    9    1 1
     5    3    2 1
     6    5    2 1
     7    6    2 1
     8    4    3 2
     9   10    5 1
    10   11    5 1
    11   12    5 1
    12   14   13 1
    13   19   13 1
    14   15   14 1
    15   17   14 1
    16   20   14 1
    17   16   15 2
    18   18   17 1
    19   21   17 1
    20   22   17 1
    21   23   18 1
    22   25   24 1
    23   33   24 1
    24   26   25 1
    25   28   25 1
    26   34   25 1
    27   27   26 2
    28   29   28 1
    29   35   28 1
    30   36   28 1
    31   30   29 1
    32   37   29 1
    33   38   29 1
    34   31   30 1
    35   39   30 1
    36   40   30 1
    37   32   31 1
    38   41   31 1
    39   42   31 1
    40   43   32 1
    41   44   32 1
    42   45   32 1
    43   47   46 1
    44   52   46 1
    45   48   47 1
    46   50   47 1
    47   53   47 1
    48   49   48 2
    49   51   50 1
    50   54   50 1
    51   55   50 1
    52   52   51 1
    53   56   51 1
    54   57   51 1
    55   58   52 1
    56   59   52 1
    57   61   60 1
    58   70   60 1
    59   62   61 1
    60   64   61 1
    61   71   61 1
    62   63   62 2
    63   69   62 1
    64   65   64 1
    65   72   64 1
    66   73   64 1
    67   66   65 1
    68   74   65 1
    69   75   65 1
    70   67   66 1
    71   76   66 1
    72   77   66 1
    73   68   67 1
    74   78   67 1
    75   79   67 1
    76   80   68 1
    77   81   68 1
    78   82   68 1
    79   83   69 1
    80   13    3 am
    81   24   15 am
    82   46   26 am
    83   60   48 am
@<TRIPOS>SUBSTRUCTURE
     1 ALA1        1 RESIDUE
     2 SER2       13 RESIDUE
     3 LYS3       24 RESIDUE
     4 PRO4       46 RESIDUE
     5 LYS5       60 RESIDUE
@<TRIPOS>SET

