#    Name: 3u0z_CMP_2_INTS_M
#    Modification time : Mon Mar 24 21:16:12 2014

@<TRIPOS>MOLECULE
3u0z_CMP_2_INTS_M
   62     0    12     0     0
SMALL
NO_CHARGES


@<TRIPOS>ATOM
      1 N         -25.2000    4.1145  -21.3370 N.am      2 SEC2        0.0000 
      2 N         -26.2940    5.2120  -20.9240 N.am     10 SEL2        0.0000 
      3 N         -24.1060    3.0170  -21.7500 N.am      6 SEP2        0.0000 
      4 N         -26.5600    6.6235  -21.1795 N.am      2 SEC2        0.0000 
      5 N         -26.8260    8.0350  -21.4350 N.am      6 SEP2        0.0000 
      6 N         -27.5035    5.5975  -21.5540 N.am      2 SEC2        0.0000 
      7 N         -28.7130    5.9830  -22.1840 N.am      6 SEP2        0.0000 
      8 NZ        -23.9585    4.2170  -18.2105 N.4       3 LYC4        0.0000 
      9 NZ        -24.8710    4.0690  -19.2030 N.4      11 LYL4        0.0000 
     10 NZ        -22.6250    5.3690  -16.4420 N.4       7 LYP4        0.0000 
     11 N         -24.4885    3.5430  -20.4765 N.am      2 SEC2        0.0000 
     12 N         -24.8710    4.0690  -19.2030 N.am     10 SEL2        0.0000 
     13 N         -23.9585    4.2170  -18.2105 N.am      2 SEC2        0.0000 
     14 N         -23.0460    4.3650  -17.2180 N.am      6 SEP2        0.0000 
     15 CA        -27.0910    6.9795  -16.9945 C.3       4 GLC5        0.0000 
     16 CA        -28.1710    5.8470  -18.3240 C.3      12 GLL5        0.0000 
     17 CA        -26.0110    8.1120  -15.6650 C.3       8 GLP5        0.0000 
     18 CA        -29.1445    7.6015  -18.8205 C.3       4 GLC5        0.0000 
     19 CA        -30.1180    9.3560  -19.3170 C.3       8 GLP5        0.0000 
     20 N         -26.4130    2.0140  -20.0830 N.am      2 SEC2        0.0000 
     21 N         -27.3070    3.3080  -19.3950 N.am     10 SEL2        0.0000 
     22 N         -25.5190    0.7200  -20.7710 N.am      6 SEP2        0.0000 
     23 N         -27.8940    1.5040  -17.1455 N.am      2 SEC2        0.0000 
     24 N         -28.9180    1.5400  -18.0930 N.am     10 SEL2        0.0000 
     25 N         -26.8700    1.4680  -16.1980 N.am      6 SEP2        0.0000 
     26 O         -28.4685    0.4100  -18.3535 O.2       1 ALC1        0.0000 
     27 O         -28.9180    1.5400  -18.0930 O.2       9 ALL1        0.0000 
     28 O         -28.0190   -0.7200  -18.6140 O.2       5 ALP1        0.0000 
     29 CA        -32.3330    4.7025  -17.6525 C.3       4 GLC5        0.0000 
     30 CA        -30.7470    3.2660  -18.0580 C.3      12 GLL5        0.0000 
     31 CA        -33.9190    6.1390  -17.2470 C.3       8 GLP5        0.0000 
     32 CA        -30.0855    2.2795  -16.2855 C.3       4 GLC5        0.0000 
     33 CA        -29.4240    1.2930  -14.5130 C.3       8 GLP5        0.0000 
     34 CA        -33.5435    1.4955  -21.1655 C.3       4 GLC5        0.0000 
     35 CA        -33.9230    2.7000  -19.9290 C.3      12 GLL5        0.0000 
     36 CA        -33.1640    0.2910  -22.4020 C.3       8 GLP5        0.0000 
     37 CA        -36.9100    3.3705  -19.5660 C.3       4 GLC5        0.0000 
     38 CA        -35.2600    2.0650  -19.9260 C.3      12 GLL5        0.0000 
     39 CA        -38.5600    4.6760  -19.2060 C.3       8 GLP5        0.0000 
     40 CA        -34.3425    0.6515  -20.6330 C.3       4 GLC5        0.0000 
     41 CA        -33.4250   -0.7620  -21.3400 C.3       8 GLP5        0.0000 
     42 O         -35.5630    2.3580  -22.4835 O.2       1 ALC1        0.0000 
     43 O         -36.0640    2.1550  -21.0010 O.2       9 ALL1        0.0000 
     44 O         -35.0620    2.5610  -23.9660 O.2       5 ALP1        0.0000 
     45 CA        -34.4620    2.9175  -16.5465 C.3       4 GLC5        0.0000 
     46 CA        -34.8500    1.2950  -17.7630 C.3      12 GLL5        0.0000 
     47 CA        -34.0740    4.5400  -15.3300 C.3       8 GLP5        0.0000 
     48 CA        -35.2135    0.5875  -16.0515 C.3       4 GLC5        0.0000 
     49 CA        -35.5770   -0.1200  -14.3400 C.3       8 GLP5        0.0000 
     50 CA        -34.1375    0.2665  -19.5515 C.3       4 GLC5        0.0000 
     51 CA        -32.6680    0.7535  -19.5650 C.3       4 GLC5        0.0000 
     52 CA        -33.0920    2.5450  -18.7220 C.3      12 GLL5        0.0000 
     53 CA        -32.2440   -1.0380  -20.4080 C.3       8 GLP5        0.0000 
     54 CA        -29.0407    5.6785  -16.2108 C.3       4 GLC5        0.0000 
     55 CA        -28.8120    4.5290  -17.9870 C.3      12 GLL5        0.0000 
     56 CA        -29.5900    6.1690  -14.2660 C.3       8 GLP5        0.0000 
     57 CA        -27.1373    3.0202  -17.5360 C.3       4 GLC5        0.0000 
     58 CA        -25.5340    1.9510  -16.4790 C.3       8 GLP5        0.0000 
     59 CA        -29.2347    2.6095  -20.6500 C.3       4 GLC5        0.0000 
     60 CA        -28.6690    3.6500  -19.1990 C.3      12 GLL5        0.0000 
     61 CA        -29.3220    2.1250  -22.2820 C.3       8 GLP5        0.0000 
     62 CA        -33.7133    4.3808  -18.2863 C.3       4 GLC5        0.0000 
@<TRIPOS>BOND
@<TRIPOS>SUBSTRUCTURE
     1 ALC1       26 GROUP        1 X    ALC  0     ROOT ALC X 1
     2 SEC2        1 GROUP        1 X    SEC  0     **** SEC X 2
     3 LYC4        8 GROUP        1 X    LYC  0     **** LYC X 4
     4 GLC5       15 GROUP        1 X    GLC  0     **** GLC X 6
     5 ALP1       28 GROUP        1 Y    ALP  0     ROOT ALP Y 8
     6 SEP2        3 GROUP        1 Y    SEP  0     **** SEP Y 9
     7 LYP4       10 GROUP        1 Y    LYP  0     **** LYP Y 11
     8 GLP5       17 GROUP        1 Y    GLP  0     **** GLP Y 13
     9 ALL1       27 GROUP        1 Z    ALL  0     ROOT ALL Z 15
    10 SEL2        2 GROUP        1 Z    SEL  0     **** SEL Z 16
    11 LYL4        9 GROUP        1 Z    LYL  0     **** LYL Z 18
    12 GLL5       16 GROUP        1 Z    GLL  0     **** GLL Z 20
@<TRIPOS>SET

