#    Name: 3u0z_CMP_2_ligand
#    Modification time : Mon Mar 24 21:16:12 2014

@<TRIPOS>MOLECULE
3u0z_CMP_2_ligand
   33    36     1     0     0
SMALL
NO_CHARGES


@<TRIPOS>ATOM
      1 P         -26.2720    4.5280  -19.5680 P.3       1 CMP646      0.0000 
      2 O1P       -26.2940    5.2120  -20.9240 O.co2     1 CMP646      0.0000 
      3 O2P       -24.8710    4.0690  -19.2030 O.co2     1 CMP646      0.0000 
      4 O5'       -26.7940    5.5780  -18.4870 O.3       1 CMP646      0.0000 
      5 C5'       -28.1710    5.8470  -18.3240 C.3       1 CMP646      0.0000 
      6 C4'       -28.8120    4.5290  -17.9870 C.3       1 CMP646      0.0000 
      7 O4'       -30.2340    4.5730  -17.8030 O.3       1 CMP646      0.0000 
      8 C3'       -28.6690    3.6500  -19.1990 C.3       1 CMP646      0.0000 
      9 O3'       -27.3070    3.3080  -19.3950 O.3       1 CMP646      0.0000 
     10 C2'       -29.6260    2.5380  -18.8370 C.3       1 CMP646      0.0000 
     11 O2'       -28.9180    1.5400  -18.0930 O.3       1 CMP646      0.0000 
     12 C1'       -30.7470    3.2660  -18.0580 C.3       1 CMP646      0.0000 
     13 N9        -31.9360    3.2070  -18.9630 N.pl3     1 CMP646      0.0000 
     14 C8        -32.0050    3.7120  -20.2150 C.2       1 CMP646      0.0000 
     15 N7        -33.1960    3.4230  -20.7940 N.2       1 CMP646      0.0000 
     16 C5        -33.9230    2.7000  -19.9290 C.ar      1 CMP646      0.0000 
     17 C6        -35.2600    2.0650  -19.9260 C.ar      1 CMP646      0.0000 
     18 N6        -36.0640    2.1550  -21.0010 N.pl3     1 CMP646      0.0000 
     19 N1        -35.6680    1.4020  -18.8280 N.ar      1 CMP646      0.0000 
     20 C2        -34.8500    1.2950  -17.7630 C.ar      1 CMP646      0.0000 
     21 N3        -33.6150    1.8270  -17.6870 N.ar      1 CMP646      0.0000 
     22 C4        -33.0920    2.5450  -18.7220 C.ar      1 CMP646      0.0000 
     23 H         -28.6249    6.2269  -19.2336 H         1 CMP646      0.0000 
     24 H         -28.3599    6.5389  -17.5095 H         1 CMP646      0.0000 
     25 H         -28.3164    4.0562  -17.1834 H         1 CMP646      0.0000 
     26 H         -29.1021    4.2010  -20.0210 H         1 CMP646      0.0000 
     27 H         -30.0467    2.1685  -19.7492 H         1 CMP646      0.0000 
     28 H         -30.9159    2.7015  -17.1778 H         1 CMP646      0.0000 
     29 H         -31.2875    4.2217  -20.6498 H         1 CMP646      0.0000 
     30 H         -35.6078    2.2714  -21.8832 H         1 CMP646      0.0000 
     31 H         -37.0461    2.0975  -20.8220 H         1 CMP646      0.0000 
     32 H         -35.2093    0.7448  -16.9117 H         1 CMP646      0.0000 
     33 H         -28.7901    0.7824  -18.7330 H         1 CMP646      0.0000 
@<TRIPOS>BOND
     1    2    1 ar   
     2    3    1 ar   
     3    4    1 1    
     4    9    1 1    
     5    5    4 1    
     6    6    5 1    
     7   23    5 1    
     8   24    5 1    
     9    7    6 1    
    10    8    6 1    
    11   25    6 1    
    12   12    7 1    
    13    9    8 1    
    14   10    8 1    
    15   26    8 1    
    16   11   10 1    
    17   12   10 1    
    18   27   10 1    
    19   33   11 1    
    20   13   12 1    
    21   28   12 1    
    22   14   13 1    
    23   22   13 1    
    24   15   14 2    
    25   29   14 1    
    26   16   15 1    
    27   17   16 ar   
    28   22   16 ar   
    29   18   17 1    
    30   19   17 ar   
    31   30   18 1    
    32   31   18 1    
    33   20   19 ar   
    34   21   20 ar   
    35   32   20 1    
    36   22   21 ar   
@<TRIPOS>SUBSTRUCTURE
     1 CMP646      1 GROUP   
@<TRIPOS>SET

