#    Name: 3qgd_26S_3_INTS_M
#    Modification time : Tue Mar 25 09:44:18 2014

@<TRIPOS>MOLECULE
3qgd_26S_3_INTS_M
   82     0     6     0     0
SMALL
NO_CHARGES


@<TRIPOS>ATOM
      1 CA         19.3795    6.8390   69.8930 C.3       2 GLC5        0.0000 
      2 CA         20.1960    6.2080   71.8360 C.3       6 GLL5        0.0000 
      3 CA         18.5630    7.4700   67.9500 C.3       4 GLP5        0.0000 
      4 CA         18.2760    7.2580   71.4605 C.3       2 GLC5        0.0000 
      5 CA         16.3560    8.3080   71.0850 C.3       4 GLP5        0.0000 
      6 CA         24.2875   -0.2230   75.7790 C.3       2 GLC5        0.0000 
      7 CA         26.1760    0.3460   75.2800 C.3       6 GLL5        0.0000 
      8 CA         22.3990   -0.7920   76.2780 C.3       4 GLP5        0.0000 
      9 CA         17.9910    7.9065   72.8775 C.3       2 GLC5        0.0000 
     10 CA         19.8430    6.9870   72.9460 C.3       6 GLL5        0.0000 
     11 CA         16.1390    8.8260   72.8090 C.3       4 GLP5        0.0000 
     12 CA         24.5240    2.5665   75.4805 C.3       2 GLC5        0.0000 
     13 CA         25.8290    1.4590   74.5140 C.3       6 GLL5        0.0000 
     14 CA         23.2190    3.6740   76.4470 C.3       4 GLP5        0.0000 
     15 CA         23.7455    1.2470   74.5490 C.3       2 GLC5        0.0000 
     16 CA         21.6620    1.0350   74.5840 C.3       4 GLP5        0.0000 
     17 CA         20.8645    9.4980   74.7240 C.3       2 GLC5        0.0000 
     18 CA         20.8280    7.7150   73.6410 C.3       6 GLL5        0.0000 
     19 CA         20.9010   11.2810   75.8070 C.3       4 GLP5        0.0000 
     20 CA         22.2700    1.9270   67.4650 C.3       2 GLC5        0.0000 
     21 CA         22.6590    0.3480   68.9350 C.3       6 GLL5        0.0000 
     22 CA         21.8810    3.5060   65.9950 C.3       4 GLP5        0.0000 
     23 CA         19.2135   -1.7110   69.2010 C.3       2 GLC5        0.0000 
     24 CA         20.5070   -0.2210   68.1910 C.3       6 GLL5        0.0000 
     25 CA         17.9200   -3.2010   70.2110 C.3       4 GLP5        0.0000 
     26 CA         22.0550    1.7295   66.3460 C.3       2 GLC5        0.0000 
     27 CA         22.2290   -0.0470   66.6970 C.3       6 GLL5        0.0000 
     28 CA         24.4430   -0.9380   72.0050 C.3       2 GLC5        0.0000 
     29 CA         23.2490    0.7930   71.3680 C.3       6 GLL5        0.0000 
     30 CA         25.6370   -2.6690   72.6420 C.3       4 GLP5        0.0000 
     31 CA         22.8800    3.4445   73.5450 C.3       2 GLC5        0.0000 
     32 CA         23.5660    2.2150   71.8180 C.3       6 GLL5        0.0000 
     33 CA         22.1940    4.6740   75.2720 C.3       4 GLP5        0.0000 
     34 CA         29.5330   -0.3995   77.7580 C.3       2 GLC5        0.0000 
     35 CA         29.1260   -1.5390   76.2420 C.3       6 GLL5        0.0000 
     36 CA         29.9400    0.7400   79.2740 C.3       4 GLP5        0.0000 
     37 CA         19.9860    9.7155   73.6255 C.3       2 GLC5        0.0000 
     38 CA         19.1620    8.4530   75.2210 C.3       6 GLL5        0.0000 
     39 CA         20.8100   10.9780   72.0300 C.3       4 GLP5        0.0000 
     40 CA         17.6505    8.6395   74.0150 C.3       2 GLC5        0.0000 
     41 CA         18.0780    9.9290   76.2065 C.3       2 GLC5        0.0000 
     42 CA         16.9940   11.4050   77.1920 C.3       4 GLP5        0.0000 
     43 CA         20.0315    9.8670   75.5140 C.3       2 GLC5        0.0000 
     44 CA         18.0645    1.1625   67.3150 C.3       2 GLC5        0.0000 
     45 CA         18.3460   -0.8180   67.3220 C.3       6 GLL5        0.0000 
     46 CA         17.7830    3.1430   67.3080 C.3       4 GLP5        0.0000 
     47 CA         17.5095   -0.8655   65.7135 C.3       2 GLC5        0.0000 
     48 CA         16.6730   -0.9130   64.1050 C.3       4 GLP5        0.0000 
     49 CA         18.1330   -2.0095   68.7665 C.3       2 GLC5        0.0000 
     50 CA         22.9780    1.8320   65.5885 C.3       2 GLC5        0.0000 
     51 CA         24.0750    0.1580   65.1820 C.3       6 GLL5        0.0000 
     52 CA         21.0320    4.2970   69.0345 C.3       2 GLC5        0.0000 
     53 CA         21.9320    5.3130   70.2570 C.3       6 GLL5        0.0000 
     54 CA         20.1320    3.2810   67.8120 C.3       4 GLP5        0.0000 
     55 O          24.0360    5.3760   70.5740 O.2       1 ALC1        0.0000 
     56 O          22.8770    4.3280   70.7530 O.2       5 ALL1        0.0000 
     57 O          25.1950    6.4240   70.3950 O.2       3 ALP1        0.0000 
     58 CA         23.6655    8.2443   73.7668 C.3       2 GLC5        0.0000 
     59 CA         22.1610    7.6620   73.2150 C.3       6 GLL5        0.0000 
     60 CA         24.9930    9.2180   74.8680 C.3       4 GLP5        0.0000 
     61 CA         21.5740    9.1242   72.3478 C.3       2 GLC5        0.0000 
     62 CA         25.9522    1.1793   76.9485 C.3       2 GLC5        0.0000 
     63 CA         25.9020    1.4560   79.0000 C.3       4 GLP5        0.0000 
     64 CA         20.5727    9.1645   72.6617 C.3       2 GLC5        0.0000 
     65 CA         19.3845    0.5548   70.1142 C.3       2 GLC5        0.0000 
     66 CA         21.3290    0.1060   69.2580 C.3       6 GLL5        0.0000 
     67 CA         17.8510    1.1670   71.5040 C.3       4 GLP5        0.0000 
     68 CA         22.3120   -1.7275   69.8502 C.3       2 GLC5        0.0000 
     69 CA         22.6300   -3.6820   70.6040 C.3       4 GLP5        0.0000 
     70 CA         27.3886    1.7426   75.9363 C.3       2 GLC5        0.0000 
     71 CA         28.1240    3.2340   76.9560 C.3       4 GLP5        0.0000 
     72 CA         28.3920    2.4485   74.2140 C.3       2 GLC5        0.0000 
     73 CA         26.5930    1.8310   73.3920 C.3       6 GLL5        0.0000 
     74 CA         29.5330    3.7180   75.0150 C.3       4 GLP5        0.0000 
     75 CA         22.5347    1.2695   73.0885 C.3       2 GLC5        0.0000 
     76 CA         27.6065   -3.0060   74.8812 C.3       2 GLC5        0.0000 
     77 CA         27.6720   -1.5910   75.7650 C.3       6 GLL5        0.0000 
     78 CA         26.8140   -4.4470   73.7590 C.3       4 GLP5        0.0000 
     79 CA         27.6225   -2.9605   77.4273 C.3       2 GLC5        0.0000 
     80 CA         26.8460   -4.3560   78.8510 C.3       4 GLP5        0.0000 
     81 CA         21.6867    5.8050   73.9011 C.3       2 GLC5        0.0000 
     82 CA         21.5320    6.1610   71.4230 C.3       6 GLL5        0.0000 
@<TRIPOS>BOND
@<TRIPOS>SUBSTRUCTURE
     1 ALC1       55 GROUP        1 X    ALC  0     ROOT ALC X 1
     2 GLC5        1 GROUP        1 X    GLC  0     **** GLC X 6
     3 ALP1       57 GROUP        1 Y    ALP  0     ROOT ALP Y 8
     4 GLP5        3 GROUP        1 Y    GLP  0     **** GLP Y 13
     5 ALL1       56 GROUP        1 Z    ALL  0     ROOT ALL Z 15
     6 GLL5        2 GROUP        1 Z    GLL  0     **** GLL Z 20
@<TRIPOS>SET

