#    Name: 3qgd_26S_3_ligand
#    Modification time : Tue Mar 25 09:44:18 2014

@<TRIPOS>MOLECULE
3qgd_26S_3_ligand
   72    75     1     0     0
SMALL
NO_CHARGES


@<TRIPOS>ATOM
      1 C1         20.1960    6.2080   71.8360 C.ar      1 26S602      0.0000 
      2 C2         22.5150    6.8790   72.1160 C.ar      1 26S602      0.0000 
      3 C3         26.1760    0.3460   75.2800 C.ar      1 26S602      0.0000 
      4 C4         28.0830   -0.0300   73.8200 C.ar      1 26S602      0.0000 
      5 C5         19.8430    6.9870   72.9460 C.ar      1 26S602      0.0000 
      6 C6         22.1610    7.6620   73.2150 C.ar      1 26S602      0.0000 
      7 C7         25.8290    1.4590   74.5140 C.ar      1 26S602      0.0000 
      8 C8         27.7350    1.0840   73.0480 C.ar      1 26S602      0.0000 
      9 C9         21.3290    0.1060   69.2580 C.ar      1 26S602      0.0000 
     10 C10        27.3040   -0.4000   74.9360 C.ar      1 26S602      0.0000 
     11 C11        21.5320    6.1610   71.4230 C.ar      1 26S602      0.0000 
     12 C12        20.8280    7.7150   73.6410 C.ar      1 26S602      0.0000 
     13 C13        26.5930    1.8310   73.3920 C.ar      1 26S602      0.0000 
     14 C14        22.6590    0.3480   68.9350 C.ar      1 26S602      0.0000 
     15 C15        20.5070   -0.2210   68.1910 C.ar      1 26S602      0.0000 
     16 C16        22.2290   -0.0470   66.6970 C.ar      1 26S602      0.0000 
     17 C17        22.4810    3.1430   71.3380 C.2       1 26S602      0.0000 
     18 C18        24.9810    0.9370   69.5910 C.3       1 26S602      0.0000 
     19 C19        25.3630    2.3700   69.9560 C.3       1 26S602      0.0000 
     20 C20        23.2490    0.7930   71.3680 C.3       1 26S602      0.0000 
     21 C21        23.5660    2.2150   71.8180 C.3       1 26S602      0.0000 
     22 C22        29.1260   -1.5390   76.2420 C.3       1 26S602      0.0000 
     23 C23        19.1620    8.4530   75.2210 C.3       1 26S602      0.0000 
     24 C24        18.3460   -0.8180   67.3220 C.3       1 26S602      0.0000 
     25 C25        24.0750    0.1580   65.1820 C.3       1 26S602      0.0000 
     26 C26        27.6720   -1.5910   75.7650 C.3       1 26S602      0.0000 
     27 C27        21.9320    5.3130   70.2570 C.3       1 26S602      0.0000 
     28 N28        23.1290    0.2750   67.6600 N.ar      1 26S602      0.0000 
     29 N29        20.9180   -0.3040   66.8950 N.ar      1 26S602      0.0000 
     30 N30        23.5810    0.6780   69.9450 N.3       1 26S602      0.0000 
     31 N31        24.9110    2.7100   71.3380 N.pl3     1 26S602      0.0000 
     32 N32        22.8770    4.3280   70.7530 N.am      1 26S602      0.0000 
     33 O33        21.3180    2.7860   71.4820 O.2       1 26S602      0.0000 
     34 O34        25.4450    4.1490   73.3930 O.2       1 26S602      0.0000 
     35 O35        27.2780    3.6860   71.6850 O.2       1 26S602      0.0000 
     36 O36        20.5070    8.4710   74.7360 O.3       1 26S602      0.0000 
     37 O37        19.1850   -0.4770   68.4350 O.3       1 26S602      0.0000 
     38 O38        22.6910   -0.1240   65.4010 O.3       1 26S602      0.0000 
     39 S39        26.1120    3.2660   72.4500 S.o2      1 26S602      0.0000 
     40 H          19.4820    5.6783   71.3323 H         1 26S602      0.0000 
     41 H          23.4936    6.8274   71.8137 H         1 26S602      0.0000 
     42 H          25.6080    0.0785   76.0879 H         1 26S602      0.0000 
     43 H          28.9117   -0.5860   73.5759 H         1 26S602      0.0000 
     44 H          18.8671    7.0291   73.2551 H         1 26S602      0.0000 
     45 H          22.8779    8.2017   73.7145 H         1 26S602      0.0000 
     46 H          25.0025    2.0204   74.7688 H         1 26S602      0.0000 
     47 H          28.3003    1.3545   72.2443 H         1 26S602      0.0000 
     48 H          20.9908    0.1642   70.1948 H         1 26S602      0.0000 
     49 H          25.6486    0.2558   70.1259 H         1 26S602      0.0000 
     50 H          25.1412    0.8007   68.5179 H         1 26S602      0.0000 
     51 H          24.9037    3.0502   69.2332 H         1 26S602      0.0000 
     52 H          26.4491    2.4733   69.8805 H         1 26S602      0.0000 
     53 H          22.1937    0.6037   71.5373 H         1 26S602      0.0000 
     54 H          23.8395    0.1025   71.9618 H         1 26S602      0.0000 
     55 H          23.5580    2.2338   72.9118 H         1 26S602      0.0000 
     56 H          27.5285   -2.5105   75.1823 H         1 26S602      0.0000 
     57 H          27.0179   -1.6503   76.6449 H         1 26S602      0.0000 
     58 H          22.3879    5.9413   69.4988 H         1 26S602      0.0000 
     59 H          21.0500    4.8326   69.8462 H         1 26S602      0.0000 
     60 H          23.8868    4.5534   70.6489 H         1 26S602      0.0000 
     61 H          29.7676   -1.5115   75.4754 H         1 26S602      0.0000 
     62 H          29.3043   -0.7303   76.8026 H         1 26S602      0.0000 
     63 H          29.3642   -2.3373   76.7951 H         1 26S602      0.0000 
     64 H          18.8753    7.5325   75.4866 H         1 26S602      0.0000 
     65 H          19.0488    9.0384   76.0238 H         1 26S602      0.0000 
     66 H          18.5139    8.7741   74.5305 H         1 26S602      0.0000 
     67 H          18.3225   -0.0892   66.6376 H         1 26S602      0.0000 
     68 H          18.6624   -1.6455   66.8582 H         1 26S602      0.0000 
     69 H          17.4016   -0.9840   67.6059 H         1 26S602      0.0000 
     70 H          24.6665   -0.4668   65.6917 H         1 26S602      0.0000 
     71 H          24.3228    0.0744   64.2168 H         1 26S602      0.0000 
     72 H          24.3145    1.0862   65.4668 H         1 26S602      0.0000 
@<TRIPOS>BOND
     1    5    1 ar   
     2   11    1 ar   
     3   40    1 1    
     4    6    2 ar   
     5   11    2 ar   
     6   41    2 1    
     7    7    3 ar   
     8   10    3 ar   
     9   42    3 1    
    10    8    4 ar   
    11   10    4 ar   
    12   43    4 1    
    13   12    5 ar   
    14   44    5 1    
    15   12    6 ar   
    16   45    6 1    
    17   13    7 ar   
    18   46    7 1    
    19   13    8 ar   
    20   47    8 1    
    21   14    9 ar   
    22   15    9 ar   
    23   48    9 1    
    24   26   10 1    
    25   27   11 1    
    26   36   12 1    
    27   39   13 1    
    28   28   14 ar   
    29   30   14 1    
    30   29   15 ar   
    31   37   15 1    
    32   28   16 ar   
    33   29   16 ar   
    34   38   16 1    
    35   21   17 1    
    36   32   17 am   
    37   33   17 2    
    38   19   18 1    
    39   30   18 1    
    40   49   18 1    
    41   50   18 1    
    42   31   19 1    
    43   51   19 1    
    44   52   19 1    
    45   21   20 1    
    46   30   20 1    
    47   53   20 1    
    48   54   20 1    
    49   31   21 1    
    50   55   21 1    
    51   26   22 1    
    52   61   22 1    
    53   62   22 1    
    54   63   22 1    
    55   36   23 1    
    56   64   23 1    
    57   65   23 1    
    58   66   23 1    
    59   37   24 1    
    60   67   24 1    
    61   68   24 1    
    62   69   24 1    
    63   38   25 1    
    64   70   25 1    
    65   71   25 1    
    66   72   25 1    
    67   56   26 1    
    68   57   26 1    
    69   32   27 1    
    70   58   27 1    
    71   59   27 1    
    72   39   31 1    
    73   60   32 1    
    74   39   34 2    
    75   39   35 2    
@<TRIPOS>SUBSTRUCTURE
     1 26S602      1 GROUP   
@<TRIPOS>SET

