#    Name: 1kqw_RTL_1_INTS_M
#    Modification time : Tue Mar 25 10:29:26 2014

@<TRIPOS>MOLECULE
1kqw_RTL_1_INTS_M
   74     0     6     0     0
SMALL
NO_CHARGES


@<TRIPOS>ATOM
      1 CA         10.9630   55.2430    8.9980 C.3       2 GLC5        0.0000 
      2 CA         10.5970   54.6510    6.9890 C.3       6 GLL5        0.0000 
      3 CA         11.3290   55.8350   11.0070 C.3       4 GLP5        0.0000 
      4 CA          9.7340   52.8790    7.0290 C.3       2 GLC5        0.0000 
      5 CA          8.8710   51.1070    7.0690 C.3       4 GLP5        0.0000 
      6 CA          7.9905   53.5360    6.2900 C.3       2 GLC5        0.0000 
      7 CA          9.2630   54.9280    6.3460 C.3       6 GLL5        0.0000 
      8 CA          6.7180   52.1440    6.2340 C.3       4 GLP5        0.0000 
      9 CA          9.2415   57.5150    7.2695 C.3       2 GLC5        0.0000 
     10 CA          9.2350   56.2860    5.6830 C.3       6 GLL5        0.0000 
     11 CA          9.2480   58.7440    8.8560 C.3       4 GLP5        0.0000 
     12 CA         15.3115   54.5430    4.2785 C.3       2 GLC5        0.0000 
     13 CA         13.7120   55.7950    3.5290 C.3       6 GLL5        0.0000 
     14 CA         16.9110   53.2910    5.0280 C.3       4 GLP5        0.0000 
     15 CA         16.1980   54.5215    3.4940 C.3       2 GLC5        0.0000 
     16 CA         15.4850   55.7520    1.9600 C.3       6 GLL5        0.0000 
     17 CA         18.3005   57.1680    1.2745 C.3       2 GLC5        0.0000 
     18 CA         16.3460   56.1740    0.8610 C.3       6 GLL5        0.0000 
     19 CA         20.2550   58.1620    1.6880 C.3       4 GLP5        0.0000 
     20 CA         16.6575   58.2305    1.2190 C.3       2 GLC5        0.0000 
     21 CA         16.9690   60.2870    1.5770 C.3       4 GLP5        0.0000 
     22 CA         15.4815   53.4455    0.0485 C.3       2 GLC5        0.0000 
     23 CA         16.8550   55.1400    0.1570 C.3       6 GLL5        0.0000 
     24 CA         14.1080   51.7510   -0.0600 C.3       4 GLP5        0.0000 
     25 CA         19.2685   55.1765   -2.7750 C.3       2 GLC5        0.0000 
     26 CA         18.7780   54.1090   -0.8590 C.3       6 GLL5        0.0000 
     27 CA         19.7590   56.2440   -4.6910 C.3       4 GLP5        0.0000 
     28 CA         20.0530   54.4465    1.8125 C.3       2 GLC5        0.0000 
     29 CA         19.9300   53.7780   -0.0290 C.3       6 GLL5        0.0000 
     30 CA         20.1760   55.1150    3.6540 C.3       4 GLP5        0.0000 
     31 N          22.2460   55.3890    0.0705 N.am      1 SEC2        0.0000 
     32 N          20.8380   54.8850   -0.0430 N.am      5 SEL2        0.0000 
     33 N          23.6540   55.8930    0.1840 N.am      3 SEP2        0.0000 
     34 CA         10.3470   52.2790    6.0945 C.3       2 GLC5        0.0000 
     35 CA         11.8230   53.4510    5.1200 C.3       6 GLL5        0.0000 
     36 CA         12.6290   52.2000    3.6775 C.3       2 GLC5        0.0000 
     37 CA         13.4350   50.9490    2.2350 C.3       4 GLP5        0.0000 
     38 CA         14.8160   55.4155    7.9075 C.3       2 GLC5        0.0000 
     39 CA         13.0840   54.7710    6.8730 C.3       6 GLL5        0.0000 
     40 CA         16.5480   56.0600    8.9420 C.3       4 GLP5        0.0000 
     41 CA         14.9975   54.0310    5.9505 C.3       2 GLC5        0.0000 
     42 CA         13.3990   53.7345    8.7330 C.3       2 GLC5        0.0000 
     43 CA         13.7140   52.6980   10.5930 C.3       4 GLP5        0.0000 
     44 CA         11.6035   58.7890    4.8850 C.3       2 GLC5        0.0000 
     45 CA         10.3270   57.8980    4.0140 C.3       6 GLL5        0.0000 
     46 CA         12.8800   59.6800    5.7560 C.3       4 GLP5        0.0000 
     47 CA          9.7625   59.5040    4.9650 C.3       2 GLC5        0.0000 
     48 CA          9.1980   61.1100    5.9160 C.3       4 GLP5        0.0000 
     49 CA          8.7395   58.6390    3.0515 C.3       2 GLC5        0.0000 
     50 CA          7.1520   59.3800    2.0890 C.3       4 GLP5        0.0000 
     51 CA         10.3150   56.6245    2.5725 C.3       2 GLC5        0.0000 
     52 CA         10.3030   55.3510    1.1310 C.3       4 GLP5        0.0000 
     53 CA         13.6950   59.1260    3.3090 C.3       2 GLC5        0.0000 
     54 CA         13.9660   57.7360    1.8230 C.3       6 GLL5        0.0000 
     55 CA         13.4240   60.5160    4.7950 C.3       4 GLP5        0.0000 
     56 CA         15.4675   59.0115    1.7000 C.3       2 GLC5        0.0000 
     57 CA          8.7565   54.5173    8.1707 C.3       2 GLC5        0.0000 
     58 CA          7.5830   54.2450    9.6740 C.3       4 GLP5        0.0000 
     59 CA         10.1417   55.2455    3.5978 C.3       2 GLC5        0.0000 
     60 CA         10.4310   54.0710    1.9640 C.3       4 GLP5        0.0000 
     61 CA         12.4223   58.0140    5.1926 C.3       2 GLC5        0.0000 
     62 CA         12.8610   56.4190    4.3370 C.3       6 GLL5        0.0000 
     63 CA         11.8588   55.0890    2.9485 C.3       2 GLC5        0.0000 
     64 CA         18.1660   56.7955   -2.6915 C.3       2 GLC5        0.0000 
     65 CA         18.0070   55.2070   -0.7070 C.3       6 GLL5        0.0000 
     66 CA         18.1150   57.7120   -4.3760 C.3       4 GLP5        0.0000 
     67 CA         19.2360   57.0205    0.3405 C.3       2 GLC5        0.0000 
     68 CA         18.4270   56.5510   -1.3070 C.3       6 GLL5        0.0000 
     69 CA         18.4780   52.4338   -1.5210 C.3       2 GLC5        0.0000 
     70 CA         17.6020   50.9240   -2.5980 C.3       4 GLP5        0.0000 
     71 CA         11.1051   54.2389    3.6466 C.3       2 GLC5        0.0000 
     72 CA         12.9633   56.2066    1.0877 C.3       2 GLC5        0.0000 
     73 CA         14.5610   56.5130    2.5720 C.3       6 GLL5        0.0000 
     74 CA         11.4320   55.4790    0.1310 C.3       4 GLP5        0.0000 
@<TRIPOS>BOND
@<TRIPOS>SUBSTRUCTURE
     1 SEC2       31 GROUP        1 X    SEC  0     ROOT SEC X 2
     2 GLC5        1 GROUP        1 X    GLC  0     **** GLC X 6
     3 SEP2       33 GROUP        1 Y    SEP  0     ROOT SEP Y 9
     4 GLP5        3 GROUP        1 Y    GLP  0     **** GLP Y 13
     5 SEL2       32 GROUP        1 Z    SEL  0     ROOT SEL Z 16
     6 GLL5        2 GROUP        1 Z    GLL  0     **** GLL Z 20
@<TRIPOS>SET

