#    Name: 1kqw_RTL_1_ligand
#    Modification time : Tue Mar 25 10:29:26 2014

@<TRIPOS>MOLECULE
1kqw_RTL_1_ligand
   51    51     1     0     0
SMALL
NO_CHARGES


@<TRIPOS>ATOM
      1 C1         11.8050   54.7250    6.0140 C.3       1 RTL135      0.0000 
      2 C2         10.5970   54.6510    6.9890 C.3       1 RTL135      0.0000 
      3 C3          9.2630   54.9280    6.3460 C.3       1 RTL135      0.0000 
      4 C4          9.2350   56.2860    5.6830 C.3       1 RTL135      0.0000 
      5 C5         10.4700   56.5540    4.7800 C.2       1 RTL135      0.0000 
      6 C6         11.6660   56.0000    5.0630 C.2       1 RTL135      0.0000 
      7 C7         12.8610   56.4190    4.3370 C.2       1 RTL135      0.0000 
      8 C8         13.7120   55.7950    3.5290 C.2       1 RTL135      0.0000 
      9 C9         14.5610   56.5130    2.5720 C.2       1 RTL135      0.0000 
     10 C10        15.4850   55.7520    1.9600 C.2       1 RTL135      0.0000 
     11 C11        16.3460   56.1740    0.8610 C.2       1 RTL135      0.0000 
     12 C12        16.8550   55.1400    0.1570 C.2       1 RTL135      0.0000 
     13 C13        18.0070   55.2070   -0.7070 C.2       1 RTL135      0.0000 
     14 C14        18.7780   54.1090   -0.8590 C.2       1 RTL135      0.0000 
     15 C15        19.9300   53.7780   -0.0290 C.3       1 RTL135      0.0000 
     16 O1         20.8380   54.8850   -0.0430 O.3       1 RTL135      0.0000 
     17 C16        11.8230   53.4510    5.1200 C.3       1 RTL135      0.0000 
     18 C17        13.0840   54.7710    6.8730 C.3       1 RTL135      0.0000 
     19 C18        10.3270   57.8980    4.0140 C.3       1 RTL135      0.0000 
     20 C19        13.9660   57.7360    1.8230 C.3       1 RTL135      0.0000 
     21 C20        18.4270   56.5510   -1.3070 C.3       1 RTL135      0.0000 
     22 H          10.7751   55.3716    7.8056 H         1 RTL135      0.0000 
     23 H          10.5903   53.6464    7.4457 H         1 RTL135      0.0000 
     24 H           8.4749   54.8814    7.1068 H         1 RTL135      0.0000 
     25 H           9.0522   54.1560    5.5966 H         1 RTL135      0.0000 
     26 H           9.1939   57.0728    6.4485 H         1 RTL135      0.0000 
     27 H           8.3322   56.3792    5.0641 H         1 RTL135      0.0000 
     28 H          13.0733   57.5103    4.5288 H         1 RTL135      0.0000 
     29 H          13.8233   54.7556    3.5311 H         1 RTL135      0.0000 
     30 H          15.6354   54.7431    2.2741 H         1 RTL135      0.0000 
     31 H          16.5040   57.1245    0.6962 H         1 RTL135      0.0000 
     32 H          16.3932   54.1824    0.2214 H         1 RTL135      0.0000 
     33 H          18.5649   53.4099   -1.6263 H         1 RTL135      0.0000 
     34 H          20.4161   52.8724   -0.4166 H         1 RTL135      0.0000 
     35 H          19.5970   53.5621    0.9953 H         1 RTL135      0.0000 
     36 H          12.5878   53.4601    4.4758 H         1 RTL135      0.0000 
     37 H          11.9081   52.6165    5.6644 H         1 RTL135      0.0000 
     38 H          10.9859   53.3645    4.5798 H         1 RTL135      0.0000 
     39 H          13.9083   54.8236    6.3093 H         1 RTL135      0.0000 
     40 H          13.0941   55.5642    7.4818 H         1 RTL135      0.0000 
     41 H          13.1741   53.9584    7.4488 H         1 RTL135      0.0000 
     42 H          11.1174   58.0776    3.4284 H         1 RTL135      0.0000 
     43 H           9.5185   57.9059    3.4256 H         1 RTL135      0.0000 
     44 H          10.2425   58.6743    4.6386 H         1 RTL135      0.0000 
     45 H          14.6295   58.1477    1.1983 H         1 RTL135      0.0000 
     46 H          13.1666   57.4844    1.2773 H         1 RTL135      0.0000 
     47 H          13.6749   58.4534    2.4559 H         1 RTL135      0.0000 
     48 H          18.6447   57.2223   -0.5984 H         1 RTL135      0.0000 
     49 H          19.2377   56.4623   -1.8857 H         1 RTL135      0.0000 
     50 H          17.7043   56.9468   -1.8737 H         1 RTL135      0.0000 
     51 H          21.2018   54.9094   -0.9741 H         1 RTL135      0.0000 
@<TRIPOS>BOND
     1    2    1 1    
     2    6    1 1    
     3   17    1 1    
     4   18    1 1    
     5    3    2 1    
     6   22    2 1    
     7   23    2 1    
     8    4    3 1    
     9   24    3 1    
    10   25    3 1    
    11    5    4 1    
    12   26    4 1    
    13   27    4 1    
    14    6    5 2    
    15   19    5 1    
    16    7    6 1    
    17    8    7 2    
    18   28    7 1    
    19    9    8 1    
    20   29    8 1    
    21   10    9 2    
    22   20    9 1    
    23   11   10 1    
    24   30   10 1    
    25   12   11 2    
    26   31   11 1    
    27   13   12 1    
    28   32   12 1    
    29   14   13 2    
    30   21   13 1    
    31   15   14 1    
    32   33   14 1    
    33   16   15 1    
    34   34   15 1    
    35   35   15 1    
    36   51   16 1    
    37   36   17 1    
    38   37   17 1    
    39   38   17 1    
    40   39   18 1    
    41   40   18 1    
    42   41   18 1    
    43   42   19 1    
    44   43   19 1    
    45   44   19 1    
    46   45   20 1    
    47   46   20 1    
    48   47   20 1    
    49   48   21 1    
    50   49   21 1    
    51   50   21 1    
@<TRIPOS>SUBSTRUCTURE
     1 RTL135      1 GROUP   
@<TRIPOS>SET

