#    Name: 3iak_EV1_1_INTS_M
#    Modification time : Tue Mar 25 16:08:24 2014

@<TRIPOS>MOLECULE
3iak_EV1_1_INTS_M
   47     0     6     0     0
SMALL
NO_CHARGES


@<TRIPOS>ATOM
      1 CA         19.4135   -6.4275   21.0505 C.3       2 GLC5        0.0000 
      2 CA         18.3790   -7.9960   21.4930 C.3       6 GLL5        0.0000 
      3 CA         20.4480   -4.8590   20.6080 C.3       4 GLP5        0.0000 
      4 CA         17.5635   -6.3060   22.2475 C.3       2 GLC5        0.0000 
      5 CA         16.7480   -4.6160   23.0020 C.3       4 GLP5        0.0000 
      6 CA         17.0670   -8.7400   20.0665 C.3       2 GLC5        0.0000 
      7 CA         15.7550   -9.4840   18.6400 C.3       4 GLP5        0.0000 
      8 CA         25.3395  -10.1290   17.8955 C.3       2 GLC5        0.0000 
      9 CA         24.0940   -8.9410   18.4710 C.3       6 GLL5        0.0000 
     10 CA         26.5850  -11.3170   17.3200 C.3       4 GLP5        0.0000 
     11 N          22.8765  -10.7325   11.9030 N.am      1 SEC2        0.0000 
     12 N          23.0390  -10.3280   13.4780 N.am      5 SEL2        0.0000 
     13 N          22.7140  -11.1370   10.3280 N.am      3 SEP2        0.0000 
     14 CA         22.7260  -12.6965   14.0320 C.3       2 GLC5        0.0000 
     15 CA         22.0500  -11.1470   14.0920 C.3       6 GLL5        0.0000 
     16 CA         23.4020  -14.2460   13.9720 C.3       4 GLP5        0.0000 
     17 CA         20.6315  -10.2150   13.8290 C.3       2 GLC5        0.0000 
     18 CA         19.2130   -9.2830   13.5660 C.3       4 GLP5        0.0000 
     19 CA         25.3445   -8.8740   12.4695 C.3       2 GLC5        0.0000 
     20 CA         23.7410   -7.9840   13.2320 C.3       6 GLL5        0.0000 
     21 CA         26.9480   -9.7640   11.7070 C.3       4 GLP5        0.0000 
     22 CA         25.8315   -8.0445   13.9685 C.3       2 GLC5        0.0000 
     23 CA         24.1780   -6.7960   13.8240 C.3       6 GLL5        0.0000 
     24 CA         27.4850   -9.2930   14.1130 C.3       4 GLP5        0.0000 
     25 CA         23.8885   -5.3180   10.3130 C.3       2 GLC5        0.0000 
     26 CA         24.2370   -7.2560   10.9380 C.3       6 GLL5        0.0000 
     27 CA         23.5400   -3.3800    9.6880 C.3       4 GLP5        0.0000 
     28 CA         22.9740   -7.1145    9.1555 C.3       2 GLC5        0.0000 
     29 CA         21.7110   -6.9730    7.3730 C.3       4 GLP5        0.0000 
     30 CA         25.4535   -8.1725    9.4650 C.3       2 GLC5        0.0000 
     31 CA         26.6700   -9.0890    7.9920 C.3       4 GLP5        0.0000 
     32 CA         25.5925   -8.5100   11.3225 C.3       2 GLC5        0.0000 
     33 CA         22.3605   -7.2405   12.1610 C.3       2 GLC5        0.0000 
     34 CA         20.4840   -7.2250   13.3840 C.3       4 GLP5        0.0000 
     35 CA         20.4155   -6.6227   20.2435 C.3       2 GLC5        0.0000 
     36 CA         20.7010   -7.7870   19.7220 C.3       6 GLL5        0.0000 
     37 CA         22.5577   -7.0600   20.5550 C.3       2 GLC5        0.0000 
     38 CA         21.9970   -7.7820   19.2200 C.3       6 GLL5        0.0000 
     39 CA         22.7740   -5.7430   21.9940 C.3       4 GLP5        0.0000 
     40 CA         22.9135   -4.7247   16.6827 C.3       2 GLC5        0.0000 
     41 CA         24.9880   -5.5360   17.2080 C.3       6 GLL5        0.0000 
     42 CA         20.9300   -3.8960   16.8500 C.3       4 GLP5        0.0000 
     43 CA         26.3830   -7.2702   15.3130 C.3       2 GLC5        0.0000 
     44 CA         24.8060   -5.5710   15.8230 C.3       6 GLL5        0.0000 
     45 CA         28.1790   -8.3860   15.1130 C.3       4 GLP5        0.0000 
     46 CA         25.5796   -9.0717   14.5158 C.3       2 GLC5        0.0000 
     47 CA         24.1010   -7.9330   16.0490 C.3       6 GLL5        0.0000 
@<TRIPOS>BOND
@<TRIPOS>SUBSTRUCTURE
     1 SEC2       11 GROUP        1 X    SEC  0     ROOT SEC X 2
     2 GLC5        1 GROUP        1 X    GLC  0     **** GLC X 6
     3 SEP2       13 GROUP        1 Y    SEP  0     ROOT SEP Y 9
     4 GLP5        3 GROUP        1 Y    GLP  0     **** GLP Y 13
     5 SEL2       12 GROUP        1 Z    SEL  0     ROOT SEL Z 16
     6 GLL5        2 GROUP        1 Z    GLL  0     **** GLL Z 20
@<TRIPOS>SET

