#    Name: 3iak_EV1_1_ligand
#    Modification time : Tue Mar 25 16:08:24 2014

@<TRIPOS>MOLECULE
3iak_EV1_1_ligand
   46    48     1     0     0
SMALL
NO_CHARGES


@<TRIPOS>ATOM
      1 C25        19.3910  -12.1420   19.1400 C.3       1 EV1415      0.0000 
      2 O24        20.2170  -11.4800   20.1010 O.3       1 EV1415      0.0000 
      3 C16        20.7990  -10.2660   19.8140 C.ar      1 EV1415      0.0000 
      4 C15        20.0650   -8.9860   20.0360 C.ar      1 EV1415      0.0000 
      5 O22        18.7830   -8.9780   20.5340 O.3       1 EV1415      0.0000 
      6 C23        18.3790   -7.9960   21.4930 C.3       1 EV1415      0.0000 
      7 C14        20.7010   -7.7870   19.7220 C.ar      1 EV1415      0.0000 
      8 C13        21.9970   -7.7820   19.2200 C.ar      1 EV1415      0.0000 
      9 C17        22.0980  -10.2040   19.3080 C.ar      1 EV1415      0.0000 
     10 C12        22.6860   -8.9720   19.0120 C.ar      1 EV1415      0.0000 
     11 C11        24.0940   -8.9410   18.4710 C.3       1 EV1415      0.0000 
     12 C10        24.3240   -7.7890   17.5180 C.ar      1 EV1415      0.0000 
     13 N9         24.7590   -6.5990   18.0020 N.ar      1 EV1415      0.0000 
     14 C8         24.9880   -5.5360   17.2080 C.ar      1 EV1415      0.0000 
     15 C7         24.8060   -5.5710   15.8230 C.ar      1 EV1415      0.0000 
     16 C2         24.3680   -6.7380   15.2030 C.ar      1 EV1415      0.0000 
     17 C3         24.1010   -7.9330   16.0490 C.ar      1 EV1415      0.0000 
     18 C4         23.6600   -9.1170   15.4630 C.ar      1 EV1415      0.0000 
     19 C5         23.4680   -9.1760   14.0810 C.ar      1 EV1415      0.0000 
     20 O20        23.0390  -10.3280   13.4780 O.3       1 EV1415      0.0000 
     21 C21        22.0500  -11.1470   14.0920 C.3       1 EV1415      0.0000 
     22 C6         23.7410   -7.9840   13.2320 C.ar      1 EV1415      0.0000 
     23 C1         24.1780   -6.7960   13.8240 C.ar      1 EV1415      0.0000 
     24 O18        23.5390   -8.0810   11.8750 O.3       1 EV1415      0.0000 
     25 C19        24.2370   -7.2560   10.9380 C.3       1 EV1415      0.0000 
     26 H          20.2032   -6.8934   19.8642 H         1 EV1415      0.0000 
     27 H          22.4554   -6.8817   18.9981 H         1 EV1415      0.0000 
     28 H          22.6280  -11.0733   19.1513 H         1 EV1415      0.0000 
     29 H          24.3041   -9.8868   17.9504 H         1 EV1415      0.0000 
     30 H          24.8032   -8.8633   19.3081 H         1 EV1415      0.0000 
     31 H          25.3196   -4.6277   17.6292 H         1 EV1415      0.0000 
     32 H          24.9969   -4.7306   15.2617 H         1 EV1415      0.0000 
     33 H          23.4767   -9.9426   16.0422 H         1 EV1415      0.0000 
     34 H          24.3578   -5.9701   13.2433 H         1 EV1415      0.0000 
     35 H          19.8907  -12.3452   18.2980 H         1 EV1415      0.0000 
     36 H          19.0387  -13.0105   19.4886 H         1 EV1415      0.0000 
     37 H          18.5999  -11.5862   18.8845 H         1 EV1415      0.0000 
     38 H          18.9254   -8.0465   22.3290 H         1 EV1415      0.0000 
     39 H          18.4748   -7.0668   21.1360 H         1 EV1415      0.0000 
     40 H          17.4223   -8.1100   21.7608 H         1 EV1415      0.0000 
     41 H          21.8386  -11.9524   13.5382 H         1 EV1415      0.0000 
     42 H          22.3454  -11.4771   14.9885 H         1 EV1415      0.0000 
     43 H          21.1917  -10.6527   14.2299 H         1 EV1415      0.0000 
     44 H          25.2272   -7.3819   10.9979 H         1 EV1415      0.0000 
     45 H          23.9722   -7.4588    9.9953 H         1 EV1415      0.0000 
     46 H          24.0553   -6.2846   11.0910 H         1 EV1415      0.0000 
@<TRIPOS>BOND
     1    2    1 1    
     2   35    1 1    
     3   36    1 1    
     4   37    1 1    
     5    3    2 1    
     6    4    3 ar   
     7    9    3 ar   
     8    5    4 1    
     9    7    4 ar   
    10    6    5 1    
    11   38    6 1    
    12   39    6 1    
    13   40    6 1    
    14    8    7 ar   
    15   26    7 1    
    16   10    8 ar   
    17   27    8 1    
    18   10    9 ar   
    19   28    9 1    
    20   11   10 1    
    21   12   11 1    
    22   29   11 1    
    23   30   11 1    
    24   13   12 ar   
    25   17   12 ar   
    26   14   13 ar   
    27   15   14 ar   
    28   31   14 1    
    29   16   15 ar   
    30   32   15 1    
    31   17   16 ar   
    32   23   16 ar   
    33   18   17 ar   
    34   19   18 ar   
    35   33   18 1    
    36   20   19 1    
    37   22   19 ar   
    38   21   20 1    
    39   41   21 1    
    40   42   21 1    
    41   43   21 1    
    42   23   22 ar   
    43   24   22 1    
    44   34   23 1    
    45   25   24 1    
    46   44   25 1    
    47   45   25 1    
    48   46   25 1    
@<TRIPOS>SUBSTRUCTURE
     1 EV1415      1 GROUP   
@<TRIPOS>SET

