#    Name: 1tow_CRZ_1_INTS_M
#    Modification time : Tue Mar 25 05:34:00 2014

@<TRIPOS>MOLECULE
1tow_CRZ_1_INTS_M
   45     0     9     0     0
SMALL
NO_CHARGES


@<TRIPOS>ATOM
      1 NZ         18.1465    7.8535    0.7065 N.4       2 LYC4        0.0000 
      2 NZ         17.4080    7.2290    2.0020 N.4       8 LYL4        0.0000 
      3 NZ         19.0750    9.5360    0.1830 N.4       5 LYP4        0.0000 
      4 N          18.0320    8.3650    1.7245 N.am      1 SEC2        0.0000 
      5 N          17.4080    7.2290    2.0020 N.am      7 SEL2        0.0000 
      6 N          18.6560    9.5010    1.4470 N.am      4 SEP2        0.0000 
      7 N          18.1465    7.8535    0.7065 N.am      1 SEC2        0.0000 
      8 N          18.8850    8.4780   -0.5890 N.am      4 SEP2        0.0000 
      9 N          16.3685    6.9815    1.1420 N.am      1 SEC2        0.0000 
     10 N          15.3290    6.7340    0.2820 N.am      4 SEP2        0.0000 
     11 CA         19.1030    8.5685    2.8160 C.3       3 GLC5        0.0000 
     12 CA         19.3710    6.5730    3.1920 C.3       9 GLL5        0.0000 
     13 CA         18.8350   10.5640    2.4400 C.3       6 GLP5        0.0000 
     14 CA         23.4795    5.5560   -2.2910 C.3       3 GLC5        0.0000 
     15 CA         21.7870    4.8620   -1.3620 C.3       9 GLL5        0.0000 
     16 CA         25.1720    6.2500   -3.2200 C.3       6 GLP5        0.0000 
     17 CA         20.5270    5.9205   -3.9475 C.3       3 GLC5        0.0000 
     18 CA         20.5190    4.9520   -1.9530 C.3       9 GLL5        0.0000 
     19 CA         20.5350    6.8890   -5.9420 C.3       6 GLP5        0.0000 
     20 CA         25.3060    6.1815    0.2330 C.3       3 GLC5        0.0000 
     21 CA         24.3290    4.5700    0.6410 C.3       9 GLL5        0.0000 
     22 CA         26.2830    7.7930   -0.1750 C.3       6 GLP5        0.0000 
     23 CA         24.7505    5.4100   -1.2895 C.3       3 GLC5        0.0000 
     24 CA         25.8355    6.2760    1.6625 C.3       3 GLC5        0.0000 
     25 CA         25.1830    4.4050    1.7380 C.3       9 GLL5        0.0000 
     26 CA         26.4880    8.1470    1.5870 C.3       6 GLP5        0.0000 
     27 CA         27.2530    4.7700    2.0730 C.3       3 GLC5        0.0000 
     28 CA         29.3230    5.1350    2.4080 C.3       6 GLP5        0.0000 
     29 CA         26.7165    3.0600    1.5285 C.3       3 GLC5        0.0000 
     30 CA         28.2500    1.7150    1.3190 C.3       6 GLP5        0.0000 
     31 CA         21.0457    6.9502    2.6867 C.3       3 GLC5        0.0000 
     32 CA         19.8380    5.4040    4.0810 C.3       9 GLL5        0.0000 
     33 CA         22.4870    7.9120    1.7370 C.3       6 GLP5        0.0000 
     34 CA         19.7297    7.2017    5.0808 C.3       3 GLC5        0.0000 
     35 CA         19.8550    8.4150    6.5250 C.3       6 GLP5        0.0000 
     36 CA         20.0153    4.3693    5.7285 C.3       3 GLC5        0.0000 
     37 CA         20.0450    3.9780    7.7720 C.3       6 GLP5        0.0000 
     38 CA         22.5690    2.8050   -0.4408 C.3       3 GLC5        0.0000 
     39 CA         21.8270    4.6580    0.0110 C.3       9 GLL5        0.0000 
     40 CA         23.3310    0.8500   -0.2060 C.3       6 GLP5        0.0000 
     41 CA         18.1788    5.5870   -2.2298 C.3       3 GLC5        0.0000 
     42 CA         16.4240    6.2870   -2.8890 C.3       6 GLP5        0.0000 
     43 CA         23.0050    2.6365    0.6875 C.3       3 GLC5        0.0000 
     44 CA         22.9600    4.5250    0.9060 C.3       9 GLL5        0.0000 
     45 CA         24.0435    2.6688    0.4918 C.3       3 GLC5        0.0000 
@<TRIPOS>BOND
@<TRIPOS>SUBSTRUCTURE
     1 SEC2        4 GROUP        1 X    SEC  0     ROOT SEC X 2
     2 LYC4        1 GROUP        1 X    LYC  0     **** LYC X 4
     3 GLC5       11 GROUP        1 X    GLC  0     **** GLC X 6
     4 SEP2        6 GROUP        1 Y    SEP  0     ROOT SEP Y 9
     5 LYP4        3 GROUP        1 Y    LYP  0     **** LYP Y 11
     6 GLP5       13 GROUP        1 Y    GLP  0     **** GLP Y 13
     7 SEL2        5 GROUP        1 Z    SEL  0     ROOT SEL Z 16
     8 LYL4        2 GROUP        1 Z    LYL  0     **** LYL Z 18
     9 GLL5       12 GROUP        1 Z    GLL  0     **** GLL Z 20
@<TRIPOS>SET

