#    Name: 1tow_CRZ_1_ligand
#    Modification time : Tue Mar 25 05:34:00 2014

@<TRIPOS>MOLECULE
1tow_CRZ_1_ligand
   33    35     1     0     0
SMALL
NO_CHARGES


@<TRIPOS>ATOM
      1 O19        17.4080    7.2290    2.0020 O.co2     1 CRZ501      0.0000 
      2 C1         17.9280    6.4240    2.7610 C.2       1 CRZ501      0.0000 
      3 O18        17.1920    5.4060    3.1960 O.co2     1 CRZ501      0.0000 
      4 C2         19.3710    6.5730    3.1920 C.3       1 CRZ501      0.0000 
      5 C3         19.8380    5.4040    4.0810 C.3       1 CRZ501      0.0000 
      6 C4         20.1330    4.1170    3.2890 C.3       1 CRZ501      0.0000 
      7 N5         21.0330    4.3350    2.1460 N.pl3     1 CRZ501      0.0000 
      8 C6         20.6150    4.5170    0.8490 C.ar      1 CRZ501      0.0000 
      9 C17        19.3820    4.6100    0.2010 C.ar      1 CRZ501      0.0000 
     10 C7         21.8270    4.6580    0.0110 C.ar      1 CRZ501      0.0000 
     11 C14        21.7870    4.8620   -1.3620 C.ar      1 CRZ501      0.0000 
     12 C15        20.5190    4.9520   -1.9530 C.ar      1 CRZ501      0.0000 
     13 C16        19.3480    4.8220   -1.1880 C.ar      1 CRZ501      0.0000 
     14 C8         22.9600    4.5250    0.9060 C.ar      1 CRZ501      0.0000 
     15 C9         22.3980    4.3210    2.2560 C.ar      1 CRZ501      0.0000 
     16 C10        23.3060    4.1740    3.3110 C.ar      1 CRZ501      0.0000 
     17 C13        24.3290    4.5700    0.6410 C.ar      1 CRZ501      0.0000 
     18 C12        25.1830    4.4050    1.7380 C.ar      1 CRZ501      0.0000 
     19 C11        24.6770    4.2150    3.0320 C.ar      1 CRZ501      0.0000 
     20 H          19.4943    7.5067    3.7506 H         1 CRZ501      0.0000 
     21 H          20.0166    6.6189    2.3088 H         1 CRZ501      0.0000 
     22 H          19.0618    5.1930    4.8265 H         1 CRZ501      0.0000 
     23 H          20.7448    5.7070    4.6182 H         1 CRZ501      0.0000 
     24 H          19.1685    3.7013    2.9487 H         1 CRZ501      0.0000 
     25 H          20.5670    3.3817    3.9889 H         1 CRZ501      0.0000 
     26 H          18.5116    4.5255    0.7267 H         1 CRZ501      0.0000 
     27 H          22.6244    4.9422   -1.9120 H         1 CRZ501      0.0000 
     28 H          20.4430    5.1169   -2.9697 H         1 CRZ501      0.0000 
     29 H          18.4270    4.8845   -1.6640 H         1 CRZ501      0.0000 
     30 H          22.9755    4.0398    4.2633 H         1 CRZ501      0.0000 
     31 H          24.6844    4.7127   -0.2843 H         1 CRZ501      0.0000 
     32 H          26.2062    4.4234    1.5925 H         1 CRZ501      0.0000 
     33 H          25.3526    4.0993    3.8201 H         1 CRZ501      0.0000 
@<TRIPOS>BOND
     1    2    1 ar   
     2    3    2 ar   
     3    4    2 1    
     4    5    4 1    
     5   20    4 1    
     6   21    4 1    
     7    6    5 1    
     8   22    5 1    
     9   23    5 1    
    10    7    6 1    
    11   24    6 1    
    12   25    6 1    
    13    8    7 1    
    14   15    7 1    
    15    9    8 ar   
    16   10    8 ar   
    17   13    9 ar   
    18   26    9 1    
    19   11   10 ar   
    20   14   10 1    
    21   12   11 ar   
    22   27   11 1    
    23   13   12 ar   
    24   28   12 1    
    25   29   13 1    
    26   15   14 ar   
    27   17   14 ar   
    28   16   15 ar   
    29   19   16 ar   
    30   30   16 1    
    31   18   17 ar   
    32   31   17 1    
    33   19   18 ar   
    34   32   18 1    
    35   33   19 1    
@<TRIPOS>SUBSTRUCTURE
     1 CRZ501      1 GROUP   
@<TRIPOS>SET

