#    Name: 4iql_FMN_4_INTS_M
#    Modification time : Tue Mar 25 04:16:31 2014

@<TRIPOS>MOLECULE
4iql_FMN_4_INTS_M
   79     0     9     0     0
SMALL
NO_CHARGES


@<TRIPOS>ATOM
      1 N          -5.8725   -2.2890   -3.7995 N.am      2 SEC2        0.0000 
      2 N          -6.3170   -0.8060   -3.5660 N.am      8 SEL2        0.0000 
      3 N          -5.4280   -3.7720   -4.0330 N.am      5 SEP2        0.0000 
      4 N          -5.0400   -0.3445   -3.0725 N.am      2 SEC2        0.0000 
      5 N          -3.7630    0.1170   -2.5790 N.am      5 SEP2        0.0000 
      6 O          -6.3585   -2.7150   -1.7090 O.2       1 ALC1        0.0000 
      7 O          -7.3400   -1.5260   -1.6610 O.2       7 ALL1        0.0000 
      8 O          -5.3770   -3.9040   -1.7570 O.2       4 ALP1        0.0000 
      9 N          -9.7630   -3.0960    0.6330 N.am      2 SEC2        0.0000 
     10 N          -8.3690   -2.2200    0.2130 N.am      8 SEL2        0.0000 
     11 N         -11.1570   -3.9720    1.0530 N.am      5 SEP2        0.0000 
     12 N         -11.0125   -2.7130    0.1960 N.am      2 SEC2        0.0000 
     13 N         -10.8680   -1.4540   -0.6610 N.am      8 SEL2        0.0000 
     14 CA        -11.7680   -2.8775   -1.2895 C.3       3 GLC5        0.0000 
     15 CA        -12.1020   -1.2260   -1.2690 C.3       9 GLL5        0.0000 
     16 CA        -11.4340   -4.5290   -1.3100 C.3       6 GLP5        0.0000 
     17 CA        -13.0685   -3.0930   -1.2205 C.3       3 GLC5        0.0000 
     18 CA        -13.2720   -1.4910   -0.5520 C.3       9 GLL5        0.0000 
     19 CA        -12.8650   -4.6950   -1.8890 C.3       6 GLP5        0.0000 
     20 CA        -16.1190   -3.4970   -0.1135 C.3       3 GLC5        0.0000 
     21 CA        -15.7950   -1.5150   -0.5120 C.3       9 GLL5        0.0000 
     22 CA        -16.4430   -5.4790    0.2850 C.3       6 GLP5        0.0000 
     23 CA        -15.9215   -1.1535    1.4525 C.3       3 GLC5        0.0000 
     24 CA        -16.0480   -0.7920    3.4170 C.3       6 GLP5        0.0000 
     25 CA        -15.2315   -2.4035   -3.5825 C.3       3 GLC5        0.0000 
     26 CA        -15.9050   -0.4850   -3.1030 C.3       9 GLL5        0.0000 
     27 CA        -14.5580   -4.3220   -4.0620 C.3       6 GLP5        0.0000 
     28 CA        -17.3520    0.7235   -3.0220 C.3       3 GLC5        0.0000 
     29 CA        -18.7990    1.9320   -2.9410 C.3       6 GLP5        0.0000 
     30 CA        -13.2295    1.6555   -2.5240 C.3       3 GLC5        0.0000 
     31 CA        -13.3870   -0.4650   -3.2060 C.3       9 GLL5        0.0000 
     32 CA        -13.0720    3.7760   -1.8420 C.3       6 GLP5        0.0000 
     33 CA        -10.7510   -3.3985   -6.3280 C.3       3 GLC5        0.0000 
     34 CA        -11.2320   -1.3470   -5.5560 C.3       9 GLL5        0.0000 
     35 CA        -10.2700   -5.4500   -7.1000 C.3       6 GLP5        0.0000 
     36 CA        -12.1165   -2.6820   -4.4025 C.3       3 GLC5        0.0000 
     37 CA        -13.0010   -4.0170   -3.2490 C.3       6 GLP5        0.0000 
     38 O          -9.7845   -2.9755   -4.2945 O.2       1 ALC1        0.0000 
     39 O         -10.1000   -2.2180   -5.5020 O.2       7 ALL1        0.0000 
     40 O          -9.4690   -3.7330   -3.0870 O.2       4 ALP1        0.0000 
     41 N          -9.4415   -1.3140   -8.2060 N.am      2 SEC2        0.0000 
     42 N         -10.3300   -0.3820   -7.5900 N.am      8 SEL2        0.0000 
     43 N          -8.5530   -2.2460   -8.8220 N.am      5 SEP2        0.0000 
     44 O         -10.2215    0.9805   -7.2700 O.2       1 ALC1        0.0000 
     45 O         -10.3300   -0.3820   -7.5900 O.2       7 ALL1        0.0000 
     46 O         -10.1130    2.3430   -6.9500 O.2       4 ALP1        0.0000 
     47 CA        -11.4835    0.0870  -10.0840 C.3       3 GLC5        0.0000 
     48 CA        -13.0710   -0.1430   -8.7230 C.3       9 GLL5        0.0000 
     49 CA         -9.8960    0.3170  -11.4450 C.3       6 GLP5        0.0000 
     50 CA        -13.3880    1.2590  -10.2200 C.3       3 GLC5        0.0000 
     51 CA        -13.7050    2.6610  -11.7170 C.3       6 GLP5        0.0000 
     52 N         -15.2470   -2.3695   -9.2845 N.am      2 SEC2        0.0000 
     53 N         -15.7620   -1.0390   -9.6500 N.am      8 SEL2        0.0000 
     54 N         -14.7320   -3.7000   -8.9190 N.am      5 SEP2        0.0000 
     55 N         -16.3595   -1.8660   -8.3980 N.am      2 SEC2        0.0000 
     56 N         -16.9570   -2.6930   -7.1460 N.am      5 SEP2        0.0000 
     57 N         -16.2320    1.8355  -11.0010 N.am      2 SEC2        0.0000 
     58 N         -16.4390    1.3740   -9.7050 N.am      8 SEL2        0.0000 
     59 N         -16.0250    2.2970  -12.2970 N.am      5 SEP2        0.0000 
     60 N         -15.5925    1.6680   -6.8720 N.am      2 SEC2        0.0000 
     61 N         -16.0410    0.2770   -7.5480 N.am      8 SEL2        0.0000 
     62 N         -15.1440    3.0590   -6.1960 N.am      5 SEP2        0.0000 
     63 N         -16.4990   -1.2080   -7.3470 N.am      2 SEC2        0.0000 
     64 N         -17.1935    0.0650   -7.0465 N.am      2 SEC2        0.0000 
     65 N         -18.3460   -0.1470   -6.5450 N.am      5 SEP2        0.0000 
     66 CA        -12.1930   -1.6067    1.1008 C.3       3 GLC5        0.0000 
     67 CA        -11.6990   -1.8550    3.1120 C.3       6 GLP5        0.0000 
     68 CA        -13.7550   -2.5042   -2.5448 C.3       3 GLC5        0.0000 
     69 CA        -14.4830   -1.2620   -1.1980 C.3       9 GLL5        0.0000 
     70 CA        -15.4595    0.4477   -0.1075 C.3       3 GLC5        0.0000 
     71 CA        -15.7800    2.2840    0.6400 C.3       6 GLP5        0.0000 
     72 CA        -12.8867   -2.3155   -3.0740 C.3       3 GLC5        0.0000 
     73 CA        -14.8567    1.2600   -3.8767 C.3       3 GLC5        0.0000 
     74 CA        -15.4100    3.0540   -4.7540 C.3       6 GLP5        0.0000 
     75 CA        -12.9087    1.8510   -8.1623 C.3       3 GLC5        0.0000 
     76 CA        -12.7120   -0.0550   -7.2300 C.3       9 GLL5        0.0000 
     77 CA        -12.9260    3.8010   -8.3480 C.3       6 GLP5        0.0000 
     78 CA        -13.6842   -2.0111   -7.6821 C.3       3 GLC5        0.0000 
     79 CA        -14.7800   -3.6960   -7.4380 C.3       6 GLP5        0.0000 
@<TRIPOS>BOND
@<TRIPOS>SUBSTRUCTURE
     1 ALC1        6 GROUP        1 X    ALC  0     ROOT ALC X 1
     2 SEC2        1 GROUP        1 X    SEC  0     **** SEC X 2
     3 GLC5       14 GROUP        1 X    GLC  0     **** GLC X 6
     4 ALP1        8 GROUP        1 Y    ALP  0     ROOT ALP Y 8
     5 SEP2        3 GROUP        1 Y    SEP  0     **** SEP Y 9
     6 GLP5       16 GROUP        1 Y    GLP  0     **** GLP Y 13
     7 ALL1        7 GROUP        1 Z    ALL  0     ROOT ALL Z 15
     8 SEL2        2 GROUP        1 Z    SEL  0     **** SEL Z 16
     9 GLL5       15 GROUP        1 Z    GLL  0     **** GLL Z 20
@<TRIPOS>SET

