#    Name: 4iql_FMN_4_ligand
#    Modification time : Tue Mar 25 04:16:31 2014

@<TRIPOS>MOLECULE
4iql_FMN_4_ligand
   50    52     1     0     0
SMALL
NO_CHARGES


@<TRIPOS>ATOM
      1 N1         -8.5900   -0.5690   -3.4060 N.2       1 FMN401      0.0000 
      2 C2         -7.3750   -0.9480   -2.9170 C.2       1 FMN401      0.0000 
      3 O2         -6.3170   -0.8060   -3.5660 O.2       1 FMN401      0.0000 
      4 N3         -7.3400   -1.5260   -1.6610 N.am      1 FMN401      0.0000 
      5 C4         -8.4630   -1.6800   -0.8830 C.2       1 FMN401      0.0000 
      6 O4         -8.3690   -2.2200    0.2130 O.2       1 FMN401      0.0000 
      7 C4A        -9.7030   -1.3050   -1.3950 C.2       1 FMN401      0.0000 
      8 N5        -10.8680   -1.4540   -0.6610 N.2       1 FMN401      0.0000 
      9 C5A       -12.1020   -1.2260   -1.2690 C.ar      1 FMN401      0.0000 
     10 C6        -13.2720   -1.4910   -0.5520 C.ar      1 FMN401      0.0000 
     11 C7        -14.4830   -1.2620   -1.1980 C.ar      1 FMN401      0.0000 
     12 C7M       -15.7950   -1.5150   -0.5120 C.3       1 FMN401      0.0000 
     13 C8        -14.5350   -0.7210   -2.4830 C.ar      1 FMN401      0.0000 
     14 C8M       -15.9050   -0.4850   -3.1030 C.3       1 FMN401      0.0000 
     15 C9        -13.3870   -0.4650   -3.2060 C.ar      1 FMN401      0.0000 
     16 C9A       -12.1580   -0.7630   -2.5920 C.ar      1 FMN401      0.0000 
     17 N10       -10.9810   -0.5100   -3.2680 N.pl3     1 FMN401      0.0000 
     18 C10        -9.7610   -0.8370   -2.7070 C.2       1 FMN401      0.0000 
     19 C1'       -10.9760   -0.0740   -4.7110 C.3       1 FMN401      0.0000 
     20 C2'       -11.2320   -1.3470   -5.5560 C.3       1 FMN401      0.0000 
     21 O2'       -10.1000   -2.2180   -5.5020 O.3       1 FMN401      0.0000 
     22 C3'       -11.5000   -0.9640   -7.0290 C.3       1 FMN401      0.0000 
     23 O3'       -10.3300   -0.3820   -7.5900 O.3       1 FMN401      0.0000 
     24 C4'       -12.7120   -0.0550   -7.2300 C.3       1 FMN401      0.0000 
     25 O4'       -13.7690   -0.5910   -6.4590 O.3       1 FMN401      0.0000 
     26 C5'       -13.0710   -0.1430   -8.7230 C.3       1 FMN401      0.0000 
     27 O5'       -14.0810    0.7770   -9.0460 O.3       1 FMN401      0.0000 
     28 P         -15.6330    0.3160   -9.0140 P.3       1 FMN401      0.0000 
     29 O1P       -15.7620   -1.0390   -9.6500 O.co2     1 FMN401      0.0000 
     30 O2P       -16.4390    1.3740   -9.7050 O.co2     1 FMN401      0.0000 
     31 O3P       -16.0410    0.2770   -7.5480 O.co2     1 FMN401      0.0000 
     32 H          -6.4155   -1.8600   -1.2892 H         1 FMN401      0.0000 
     33 H         -13.2370   -1.8344    0.3955 H         1 FMN401      0.0000 
     34 H         -13.4163   -0.0799   -4.1379 H         1 FMN401      0.0000 
     35 H         -10.0206    0.3301   -4.9770 H         1 FMN401      0.0000 
     36 H         -11.7658    0.6258   -4.8937 H         1 FMN401      0.0000 
     37 H         -12.1183   -1.8267   -5.1753 H         1 FMN401      0.0000 
     38 H         -11.7178   -1.9171   -7.5609 H         1 FMN401      0.0000 
     39 H         -12.4547    0.9248   -6.9874 H         1 FMN401      0.0000 
     40 H         -13.3724   -1.1847   -8.9214 H         1 FMN401      0.0000 
     41 H         -12.1423    0.0366   -9.2892 H         1 FMN401      0.0000 
     42 H         -15.8909   -2.4710   -0.2349 H         1 FMN401      0.0000 
     43 H         -15.8959   -0.9591    0.3131 H         1 FMN401      0.0000 
     44 H         -16.5714   -1.3025   -1.1054 H         1 FMN401      0.0000 
     45 H         -15.8349   -0.0950   -4.0211 H         1 FMN401      0.0000 
     46 H         -16.4271   -1.3340   -3.1842 H         1 FMN401      0.0000 
     47 H         -16.4557    0.1467   -2.5574 H         1 FMN401      0.0000 
     48 H          -9.9849   -2.4328   -4.5321 H         1 FMN401      0.0000 
     49 H         -10.3723    0.5833   -7.3324 H         1 FMN401      0.0000 
     50 H         -14.6039   -0.2671   -6.9040 H         1 FMN401      0.0000 
@<TRIPOS>BOND
     1    2    1 1    
     2   18    1 2    
     3    3    2 2    
     4    4    2 am   
     5    5    4 am   
     6   32    4 1    
     7    6    5 2    
     8    7    5 1    
     9    8    7 2    
    10   18    7 1    
    11    9    8 1    
    12   10    9 ar   
    13   16    9 ar   
    14   11   10 ar   
    15   33   10 1    
    16   12   11 1    
    17   13   11 ar   
    18   42   12 1    
    19   43   12 1    
    20   44   12 1    
    21   14   13 1    
    22   15   13 ar   
    23   45   14 1    
    24   46   14 1    
    25   47   14 1    
    26   16   15 ar   
    27   34   15 1    
    28   17   16 1    
    29   18   17 1    
    30   19   17 1    
    31   20   19 1    
    32   35   19 1    
    33   36   19 1    
    34   21   20 1    
    35   22   20 1    
    36   37   20 1    
    37   48   21 1    
    38   23   22 1    
    39   24   22 1    
    40   38   22 1    
    41   49   23 1    
    42   25   24 1    
    43   26   24 1    
    44   39   24 1    
    45   50   25 1    
    46   27   26 1    
    47   40   26 1    
    48   41   26 1    
    49   28   27 1    
    50   29   28 ar   
    51   30   28 ar   
    52   31   28 ar   
@<TRIPOS>SUBSTRUCTURE
     1 FMN401      1 GROUP   
@<TRIPOS>SET

