#    Name: 4dlj_6RG_1_INTS_M
#    Modification time : Tue Mar 25 09:51:37 2014

@<TRIPOS>MOLECULE
4dlj_6RG_1_INTS_M
   71     0     6     0     0
SMALL
NO_CHARGES


@<TRIPOS>ATOM
      1 CA         25.6045  -17.6535  -10.0865 C.3       2 GLC5        0.0000 
      2 CA         23.8420  -17.3970   -9.8840 C.3       6 GLL5        0.0000 
      3 CA         27.3670  -17.9100  -10.2890 C.3       4 GLP5        0.0000 
      4 CA         22.6640  -14.9500  -11.7905 C.3       2 GLC5        0.0000 
      5 CA         24.3690  -15.3920  -11.0050 C.3       6 GLL5        0.0000 
      6 CA         20.9590  -14.5080  -12.5760 C.3       4 GLP5        0.0000 
      7 O          26.5830  -12.0200   -6.0585 O.2       1 ALC1        0.0000 
      8 O          26.1130  -13.2400   -6.2330 O.2       5 ALL1        0.0000 
      9 O          27.0530  -10.8000   -5.8840 O.2       3 ALP1        0.0000 
     10 CA         27.2300  -16.3530  -19.0040 C.3       2 GLC5        0.0000 
     11 CA         26.6110  -17.4210  -17.4640 C.3       6 GLL5        0.0000 
     12 CA         27.8490  -15.2850  -20.5440 C.3       4 GLP5        0.0000 
     13 CA         27.4275  -19.0275  -16.6440 C.3       2 GLC5        0.0000 
     14 CA         28.2440  -20.6340  -15.8240 C.3       4 GLP5        0.0000 
     15 CA         20.3960  -19.9015   -9.9385 C.3       2 GLC5        0.0000 
     16 CA         22.0940  -21.2090  -10.0330 C.3       6 GLL5        0.0000 
     17 CA         18.6980  -18.5940   -9.8440 C.3       4 GLP5        0.0000 
     18 CA         21.8160  -19.9880  -13.0150 C.3       2 GLC5        0.0000 
     19 CA         22.2620  -20.4520  -11.1800 C.3       6 GLL5        0.0000 
     20 CA         21.3700  -19.5240  -14.8500 C.3       4 GLP5        0.0000 
     21 CA         27.8895  -15.1480  -14.1450 C.3       2 GLC5        0.0000 
     22 CA         26.5140  -16.5030  -15.1880 C.3       6 GLL5        0.0000 
     23 CA         29.2650  -13.7930  -13.1020 C.3       4 GLP5        0.0000 
     24 CA         23.3345  -19.4195  -13.0365 C.3       2 GLC5        0.0000 
     25 CA         22.8610  -19.1860  -11.1490 C.3       6 GLL5        0.0000 
     26 CA         23.8080  -19.6530  -14.9240 C.3       4 GLP5        0.0000 
     27 CA         22.9570  -14.7000  -12.9910 C.3       2 GLC5        0.0000 
     28 CA         24.9550  -14.8920  -13.4060 C.3       6 GLL5        0.0000 
     29 CA         27.1100  -14.3425  -13.2540 C.3       2 GLC5        0.0000 
     30 CA         22.4500  -15.7090  -13.9090 C.3       2 GLC5        0.0000 
     31 CA         24.3150  -16.1110  -14.0150 C.3       6 GLL5        0.0000 
     32 CA         20.5850  -15.3070  -13.8030 C.3       4 GLP5        0.0000 
     33 CA         24.0615  -17.8820  -14.4695 C.3       2 GLC5        0.0000 
     34 CA         21.6240  -17.7427   -9.8987 C.3       2 GLC5        0.0000 
     35 CA         23.3020  -18.6740   -9.9410 C.3       6 GLL5        0.0000 
     36 CA         19.6760  -17.4500   -9.8850 C.3       4 GLP5        0.0000 
     37 CA         25.9670  -16.6166  -10.1983 C.3       2 GLC5        0.0000 
     38 CA         24.8607  -18.5490  -16.1995 C.3       2 GLC5        0.0000 
     39 CA         24.3890  -20.8957   -9.5370 C.3       2 GLC5        0.0000 
     40 CA         26.4640  -20.8380   -9.6480 C.3       4 GLP5        0.0000 
     41 CA         22.8895  -22.5448   -9.0740 C.3       2 GLC5        0.0000 
     42 CA         22.5340  -20.6980   -8.8190 C.3       6 GLL5        0.0000 
     43 CA         23.4650  -24.1360   -8.7220 C.3       4 GLP5        0.0000 
     44 CA         23.6955  -15.6743  -17.2683 C.3       2 GLC5        0.0000 
     45 CA         24.4900  -17.0320  -16.3550 C.3       6 GLL5        0.0000 
     46 CA         22.5380  -14.0980  -17.6160 C.3       4 GLP5        0.0000 
     47 CA         23.7585  -17.1898  -18.6028 C.3       2 GLC5        0.0000 
     48 CA         22.6640  -17.1290  -20.2850 C.3       4 GLP5        0.0000 
     49 CA         27.4597  -18.3390  -15.1125 C.3       2 GLC5        0.0000 
     50 CA         27.2430  -16.9350  -16.3100 C.3       6 GLL5        0.0000 
     51 CA         28.0410  -19.9590  -14.4760 C.3       4 GLP5        0.0000 
     52 CA         21.2517  -18.7555   -9.3405 C.3       2 GLC5        0.0000 
     53 CA         23.1210  -19.4240   -8.7730 C.3       6 GLL5        0.0000 
     54 CA         21.1187  -18.6345  -10.5247 C.3       2 GLC5        0.0000 
     55 CA         24.5128  -20.3285  -10.4062 C.3       2 GLC5        0.0000 
     56 CA         24.7349  -18.1502  -15.2043 C.3       2 GLC5        0.0000 
     57 CA         25.1290  -16.5520  -15.2070 C.3       6 GLL5        0.0000 
     58 CA         28.6687  -16.7542  -15.9887 C.3       2 GLC5        0.0000 
     59 CA         30.6170  -16.6680  -15.9400 C.3       4 GLP5        0.0000 
     60 CA         27.6397  -15.2757  -16.6112 C.3       2 GLC5        0.0000 
     61 CA         28.5590  -13.7110  -17.1850 C.3       4 GLP5        0.0000 
     62 CA         24.8377  -19.9435   -9.5025 C.3       2 GLC5        0.0000 
     63 CA         23.5553  -21.5756  -11.5099 C.3       2 GLC5        0.0000 
     64 CA         24.5910  -23.1430  -12.1420 C.3       4 GLP5        0.0000 
     65 CA         27.0792  -13.6656   -9.9476 C.3       2 GLC5        0.0000 
     66 CA         24.7970  -14.8650   -9.7920 C.3       6 GLL5        0.0000 
     67 CA         28.7660  -13.7120  -10.7390 C.3       4 GLP5        0.0000 
     68 CA         27.3422  -14.9735   -6.6348 C.3       2 GLC5        0.0000 
     69 CA         25.6810  -13.8000   -7.3730 C.3       6 GLL5        0.0000 
     70 CA         29.2510  -15.4900   -5.8750 C.3       4 GLP5        0.0000 
     71 CA         23.6300  -15.2148  -16.1135 C.3       2 GLC5        0.0000 
@<TRIPOS>BOND
@<TRIPOS>SUBSTRUCTURE
     1 ALC1        7 GROUP        1 X    ALC  0     ROOT ALC X 1
     2 GLC5        1 GROUP        1 X    GLC  0     **** GLC X 6
     3 ALP1        9 GROUP        1 Y    ALP  0     ROOT ALP Y 8
     4 GLP5        3 GROUP        1 Y    GLP  0     **** GLP Y 13
     5 ALL1        8 GROUP        1 Z    ALL  0     ROOT ALL Z 15
     6 GLL5        2 GROUP        1 Z    GLL  0     **** GLL Z 20
@<TRIPOS>SET

