#    Name: 4dlj_6RG_1_ligand
#    Modification time : Tue Mar 25 09:51:37 2014

@<TRIPOS>MOLECULE
4dlj_6RG_1_ligand
   46    49     1     0     0
SMALL
NO_CHARGES


@<TRIPOS>ATOM
      1 N1         23.8750  -16.6430  -11.0000 N.ar      1 6RG401      0.0000 
      2 C2         23.8420  -17.3970   -9.8840 C.ar      1 6RG401      0.0000 
      3 N3         24.2590  -16.9060   -8.7020 N.ar      1 6RG401      0.0000 
      4 C4         24.7330  -15.6440   -8.6280 C.ar      1 6RG401      0.0000 
      5 C5         24.7970  -14.8650   -9.7920 C.ar      1 6RG401      0.0000 
      6 C6         24.3690  -15.3920  -11.0050 C.ar      1 6RG401      0.0000 
      7 NAA        26.1130  -13.2400   -6.2330 N.pl3     1 6RG401      0.0000 
      8 CAB        26.6110  -17.4210  -17.4640 C.ar      1 6RG401      0.0000 
      9 CAC        22.0940  -21.2090  -10.0330 C.ar      1 6RG401      0.0000 
     10 CAD        25.2160  -17.4690  -17.4860 C.ar      1 6RG401      0.0000 
     11 CAE        27.2430  -16.9350  -16.3100 C.ar      1 6RG401      0.0000 
     12 CAF        22.5340  -20.6980   -8.8190 C.ar      1 6RG401      0.0000 
     13 CAG        22.2620  -20.4520  -11.1800 C.ar      1 6RG401      0.0000 
     14 CAH        24.4900  -17.0320  -16.3550 C.ar      1 6RG401      0.0000 
     15 CAI        26.5140  -16.5030  -15.1880 C.ar      1 6RG401      0.0000 
     16 CAJ        23.1210  -19.4240   -8.7730 C.ar      1 6RG401      0.0000 
     17 CAK        22.8610  -19.1860  -11.1490 C.ar      1 6RG401      0.0000 
     18 CAL        25.7420  -13.0290   -8.5430 C.ar      1 6RG401      0.0000 
     19 CAM        25.2890  -13.5540   -9.7470 C.ar      1 6RG401      0.0000 
     20 CAN        25.1860  -15.1140   -7.4160 C.ar      1 6RG401      0.0000 
     21 CAO        24.9550  -14.8920  -13.4060 C.3       1 6RG401      0.0000 
     22 CAP        24.3150  -16.1110  -14.0150 C.3       1 6RG401      0.0000 
     23 NAS        24.3730  -14.5990  -12.1070 N.pl3     1 6RG401      0.0000 
     24 CAT        25.6810  -13.8000   -7.3730 C.ar      1 6RG401      0.0000 
     25 CAU        25.1290  -16.5520  -15.2070 C.ar      1 6RG401      0.0000 
     26 CAV        23.3020  -18.6740   -9.9410 C.ar      1 6RG401      0.0000 
     27 H          26.0523  -12.2431   -6.1819 H         1 6RG401      0.0000 
     28 H          26.4571  -13.8695   -5.5364 H         1 6RG401      0.0000 
     29 H          27.1567  -17.7292  -18.2610 H         1 6RG401      0.0000 
     30 H          21.6529  -22.1304  -10.0771 H         1 6RG401      0.0000 
     31 H          24.7188  -17.8144  -18.3057 H         1 6RG401      0.0000 
     32 H          28.2794  -16.8924  -16.2820 H         1 6RG401      0.0000 
     33 H          22.4336  -21.2430   -7.9576 H         1 6RG401      0.0000 
     34 H          21.9365  -20.8278  -12.0942 H         1 6RG401      0.0000 
     35 H          23.4545  -17.0707  -16.3830 H         1 6RG401      0.0000 
     36 H          27.0132  -16.1547  -14.3636 H         1 6RG401      0.0000 
     37 H          23.4223  -19.0369   -7.8665 H         1 6RG401      0.0000 
     38 H          22.9679  -18.6513  -12.0145 H         1 6RG401      0.0000 
     39 H          26.1229  -12.0761   -8.5036 H         1 6RG401      0.0000 
     40 H          25.3125  -12.9887  -10.6015 H         1 6RG401      0.0000 
     41 H          25.1583  -15.6777   -6.5635 H         1 6RG401      0.0000 
     42 H          24.8189  -14.0443  -14.0928 H         1 6RG401      0.0000 
     43 H          26.0360  -15.0715  -13.3159 H         1 6RG401      0.0000 
     44 H          23.3045  -15.8729  -14.3336 H         1 6RG401      0.0000 
     45 H          24.2819  -16.9115  -13.2819 H         1 6RG401      0.0000 
     46 H          23.8982  -13.6327  -12.0473 H         1 6RG401      0.0000 
@<TRIPOS>BOND
     1    2    1 ar   
     2    6    1 ar   
     3    3    2 ar   
     4   26    2 1    
     5    4    3 ar   
     6    5    4 ar   
     7   20    4 ar   
     8    6    5 ar   
     9   19    5 ar   
    10   23    6 1    
    11   24    7 1    
    12   27    7 1    
    13   28    7 1    
    14   10    8 ar   
    15   11    8 ar   
    16   29    8 1    
    17   12    9 ar   
    18   13    9 ar   
    19   30    9 1    
    20   14   10 ar   
    21   31   10 1    
    22   15   11 ar   
    23   32   11 1    
    24   16   12 ar   
    25   33   12 1    
    26   17   13 ar   
    27   34   13 1    
    28   25   14 ar   
    29   35   14 1    
    30   25   15 ar   
    31   36   15 1    
    32   26   16 ar   
    33   37   16 1    
    34   26   17 ar   
    35   38   17 1    
    36   19   18 ar   
    37   24   18 ar   
    38   39   18 1    
    39   40   19 1    
    40   24   20 ar   
    41   41   20 1    
    42   22   21 1    
    43   23   21 1    
    44   42   21 1    
    45   43   21 1    
    46   25   22 1    
    47   44   22 1    
    48   45   22 1    
    49   46   23 1    
@<TRIPOS>SUBSTRUCTURE
     1 6RG401      1 GROUP   
@<TRIPOS>SET

