#    Name: 2oc9_IMH_1_INTS_M
#    Modification time : Tue Mar 25 22:18:08 2014

@<TRIPOS>MOLECULE
2oc9_IMH_1_INTS_M
   51     0     9     0     0
SMALL
NO_CHARGES


@<TRIPOS>ATOM
      1 CA         17.1800    9.9890   59.7740 C.3       3 GLC5        0.0000 
      2 CA         16.4120   11.3680   61.0290 C.3       9 GLL5        0.0000 
      3 CA         17.9480    8.6100   58.5190 C.3       6 GLP5        0.0000 
      4 CA         13.2230   10.2390   61.6135 C.3       3 GLC5        0.0000 
      5 CA         14.0370   12.0220   61.6120 C.3       9 GLL5        0.0000 
      6 CA         12.4090    8.4560   61.6150 C.3       6 GLP5        0.0000 
      7 N          13.6665   12.2510   64.3295 N.am      2 SEC2        0.0000 
      8 N          13.6610   12.7620   62.8180 N.am      8 SEL2        0.0000 
      9 N          13.6720   11.7400   65.8410 N.am      5 SEP2        0.0000 
     10 CA         12.0315   10.6145   60.5900 C.3       3 GLC5        0.0000 
     11 CA         13.0920   12.1260   60.3750 C.3       9 GLL5        0.0000 
     12 CA         10.9710    9.1030   60.8050 C.3       6 GLP5        0.0000 
     13 N          10.6175   11.9590   60.2050 N.am      2 SEC2        0.0000 
     14 N          11.8380   12.7790   60.6520 N.am      8 SEL2        0.0000 
     15 N           9.3970   11.1390   59.7580 N.am      5 SEP2        0.0000 
     16 CA         14.3660   14.7940   58.5165 C.3       3 GLC5        0.0000 
     17 CA         13.8560   12.8480   59.2320 C.3       9 GLL5        0.0000 
     18 CA         14.8760   16.7400   57.8010 C.3       6 GLP5        0.0000 
     19 CA         15.0425   14.6540   57.4670 C.3       3 GLC5        0.0000 
     20 CA         15.2090   12.5680   57.1330 C.3       9 GLL5        0.0000 
     21 CA         17.0370   12.6140   57.2875 C.3       3 GLC5        0.0000 
     22 CA         18.8650   12.6600   57.4420 C.3       6 GLP5        0.0000 
     23 O          16.2420   11.9770   55.0825 O.2       1 ALC1        0.0000 
     24 O          15.3460   11.6640   56.1090 O.2       7 ALL1        0.0000 
     25 O          17.1380   12.2900   54.0560 O.2       4 ALP1        0.0000 
     26 CA         13.5205   12.4075   55.5090 C.3       3 GLC5        0.0000 
     27 CA         14.5020   10.6050   56.2370 C.3       9 GLL5        0.0000 
     28 CA         12.5390   14.2100   54.7810 C.3       6 GLP5        0.0000 
     29 CA         12.6340    9.2105   54.3890 C.3       3 GLC5        0.0000 
     30 CA         14.2130    9.3650   55.4990 C.3       9 GLL5        0.0000 
     31 CA         11.0550    9.0560   53.2790 C.3       6 GLP5        0.0000 
     32 N          15.9850    9.6835   53.6970 N.am      2 SEC2        0.0000 
     33 N          14.8800    9.0680   54.3550 N.am      8 SEL2        0.0000 
     34 N          17.0900   10.2990   53.0390 N.am      5 SEP2        0.0000 
     35 N          13.1975    7.2830   55.3905 N.am      2 SEC2        0.0000 
     36 N          13.2750    8.5230   55.9910 N.am      8 SEL2        0.0000 
     37 N          13.1200    6.0430   54.7900 N.am      5 SEP2        0.0000 
     38 CA         11.8230    8.9120   55.1970 C.3       3 GLC5        0.0000 
     39 CA         12.5910    8.7680   57.1150 C.3       9 GLL5        0.0000 
     40 CA         11.1670   10.1025   57.2675 C.3       3 GLC5        0.0000 
     41 CA          9.7430   11.4370   57.4200 C.3       6 GLP5        0.0000 
     42 CA         12.8895    8.1820   58.7010 C.3       3 GLC5        0.0000 
     43 CA         13.1880    7.5960   60.2870 C.3       6 GLP5        0.0000 
     44 CA         11.7315   11.1115   57.4385 C.3       3 GLC5        0.0000 
     45 CA         13.7200   10.7860   57.4570 C.3       9 GLL5        0.0000 
     46 CA         13.4540    9.1910   58.8720 C.3       3 GLC5        0.0000 
     47 CA         16.9105   13.3198   59.8128 C.3       3 GLC5        0.0000 
     48 CA         17.9070   14.6980   58.5370 C.3       6 GLP5        0.0000 
     49 CA         13.6250   13.2688   56.1698 C.3       3 GLC5        0.0000 
     50 CA         14.1303   10.9130   54.0340 C.3       3 GLC5        0.0000 
     51 CA         13.9030   11.8410   52.2000 C.3       6 GLP5        0.0000 
@<TRIPOS>BOND
@<TRIPOS>SUBSTRUCTURE
     1 ALC1       23 GROUP        1 X    ALC  0     ROOT ALC X 1
     2 SEC2        7 GROUP        1 X    SEC  0     **** SEC X 2
     3 GLC5        1 GROUP        1 X    GLC  0     **** GLC X 6
     4 ALP1       25 GROUP        1 Y    ALP  0     ROOT ALP Y 8
     5 SEP2        9 GROUP        1 Y    SEP  0     **** SEP Y 9
     6 GLP5        3 GROUP        1 Y    GLP  0     **** GLP Y 13
     7 ALL1       24 GROUP        1 Z    ALL  0     ROOT ALL Z 15
     8 SEL2        8 GROUP        1 Z    SEL  0     **** SEL Z 16
     9 GLL5        2 GROUP        1 Z    GLL  0     **** GLL Z 20
@<TRIPOS>SET

