#    Name: 2oc9_IMH_1_ligand
#    Modification time : Tue Mar 25 22:18:08 2014

@<TRIPOS>MOLECULE
2oc9_IMH_1_ligand
   32    34     1     0     0
SMALL
NO_CHARGES


@<TRIPOS>ATOM
      1 O5'        17.6340   11.8410   60.4520 O.3       1 IMH300      0.0000 
      2 C5'        16.4120   11.3680   61.0290 C.3       1 IMH300      0.0000 
      3 C4'        15.4160   12.5150   61.1480 C.3       1 IMH300      0.0000 
      4 N4'        15.1570   13.1740   59.8610 N.4       1 IMH300      0.0000 
      5 C3'        14.0370   12.0220   61.6120 C.3       1 IMH300      0.0000 
      6 O3'        13.6610   12.7620   62.8180 O.3       1 IMH300      0.0000 
      7 C2'        13.0920   12.1260   60.3750 C.3       1 IMH300      0.0000 
      8 O2'        11.8380   12.7790   60.6520 O.3       1 IMH300      0.0000 
      9 C1'        13.8560   12.8480   59.2320 C.3       1 IMH300      0.0000 
     10 C9         14.2130   12.0870   57.9840 C.2       1 IMH300      0.0000 
     11 C8         15.2090   12.5680   57.1330 C.2       1 IMH300      0.0000 
     12 N7         15.3460   11.6640   56.1090 N.pl3     1 IMH300      0.0000 
     13 C5         14.5020   10.6050   56.2370 C.ar      1 IMH300      0.0000 
     14 C6         14.2130    9.3650   55.4990 C.ar      1 IMH300      0.0000 
     15 O6         14.8800    9.0680   54.3550 O.3       1 IMH300      0.0000 
     16 N1         13.2750    8.5230   55.9910 N.ar      1 IMH300      0.0000 
     17 C2         12.5910    8.7680   57.1150 C.ar      1 IMH300      0.0000 
     18 N3         12.7970    9.8810   57.8460 N.ar      1 IMH300      0.0000 
     19 C4         13.7200   10.7860   57.4570 C.ar      1 IMH300      0.0000 
     20 H          16.5724   10.9554   62.0325 H         1 IMH300      0.0000 
     21 H          15.9520   10.5846   60.4146 H         1 IMH300      0.0000 
     22 H          15.7617   13.2338   61.8646 H         1 IMH300      0.0000 
     23 H          14.1649   10.9561   61.8329 H         1 IMH300      0.0000 
     24 H          12.9268   11.0960   60.0231 H         1 IMH300      0.0000 
     25 H          13.3678   13.7661   59.0055 H         1 IMH300      0.0000 
     26 H          15.6932   13.3715   57.2517 H         1 IMH300      0.0000 
     27 H          15.9852   11.7757   55.3683 H         1 IMH300      0.0000 
     28 H          11.8671    8.0704   57.4421 H         1 IMH300      0.0000 
     29 H          18.2114   12.4184   61.0294 H         1 IMH300      0.0000 
     30 H          14.5095   13.1834   63.1380 H         1 IMH300      0.0000 
     31 H          11.9461   13.1695   61.5663 H         1 IMH300      0.0000 
     32 H          14.9580    8.0711   54.3524 H         1 IMH300      0.0000 
@<TRIPOS>BOND
     1    2    1 1    
     2   29    1 1    
     3    3    2 1    
     4   20    2 1    
     5   21    2 1    
     6    4    3 1    
     7    5    3 1    
     8   22    3 1    
     9    9    4 1    
    10    6    5 1    
    11    7    5 1    
    12   23    5 1    
    13   30    6 1    
    14    8    7 1    
    15    9    7 1    
    16   24    7 1    
    17   31    8 1    
    18   10    9 1    
    19   25    9 1    
    20   11   10 2    
    21   19   10 1    
    22   12   11 1    
    23   26   11 1    
    24   13   12 1    
    25   27   12 1    
    26   14   13 ar   
    27   19   13 ar   
    28   15   14 1    
    29   16   14 ar   
    30   32   15 1    
    31   17   16 ar   
    32   18   17 ar   
    33   28   17 1    
    34   19   18 ar   
@<TRIPOS>SUBSTRUCTURE
     1 IMH300      1 GROUP   
@<TRIPOS>SET

