#    Name: 1ryw_EPU_8_INTS_M
#    Modification time : Tue Mar 25 01:37:39 2014

@<TRIPOS>MOLECULE
1ryw_EPU_8_INTS_M
   97     0    12     0     0
SMALL
NO_CHARGES


@<TRIPOS>ATOM
      1 O           5.8180   27.2945   20.7965 O.2       1 ALC1        0.0000 
      2 O           5.2640   27.2210   19.5150 O.2       9 ALL1        0.0000 
      3 O           6.3720   27.3680   22.0780 O.2       5 ALP1        0.0000 
      4 CA          3.0890   27.5005   18.9655 C.3       4 GLC5        0.0000 
      5 CA          3.9420   25.7080   18.1590 C.3      12 GLL5        0.0000 
      6 CA          2.2360   29.2930   19.7720 C.3       8 GLP5        0.0000 
      7 CA          2.8780   24.2250   19.2195 C.3       4 GLC5        0.0000 
      8 CA          1.8140   22.7420   20.2800 C.3       8 GLP5        0.0000 
      9 N           7.3020   30.0865   18.0460 N.am      2 SEC2        0.0000 
     10 N           6.6420   28.7380   18.6010 N.am     10 SEL2        0.0000 
     11 N           7.9620   31.4350   17.4910 N.am      6 SEP2        0.0000 
     12 N           3.5245   26.1785   21.8060 N.am      2 SEC2        0.0000 
     13 N           3.8830   25.7110   20.5370 N.am     10 SEL2        0.0000 
     14 N           3.1660   26.6460   23.0750 N.am      6 SEP2        0.0000 
     15 CA          5.7435   29.8835   16.7300 C.3       4 GLC5        0.0000 
     16 CA          6.0280   28.0190   15.8880 C.3      12 GLL5        0.0000 
     17 CA          5.4590   31.7480   17.5720 C.3       8 GLP5        0.0000 
     18 O           8.1795   29.0735   12.5845 O.2       1 ALC1        0.0000 
     19 O           7.9240   28.7870   13.9130 O.2       9 ALL1        0.0000 
     20 O           8.4350   29.3600   11.2560 O.2       5 ALP1        0.0000 
     21 CA          4.9500   27.9405   11.3875 C.3       4 GLC5        0.0000 
     22 CA          4.1580   27.5650   13.0720 C.3      12 GLL5        0.0000 
     23 CA          5.7420   28.3160    9.7030 C.3       8 GLP5        0.0000 
     24 N           0.4190   26.1755   13.3990 N.am      2 SEC2        0.0000 
     25 N           1.6920   26.1440   12.8960 N.am     10 SEL2        0.0000 
     26 N          -0.8540   26.2070   13.9020 N.am      6 SEP2        0.0000 
     27 N           1.5075   25.6330   15.9355 N.am      2 SEC2        0.0000 
     28 N           2.2830   25.0800   14.9780 N.am     10 SEL2        0.0000 
     29 N           0.7320   26.1860   16.8930 N.am      6 SEP2        0.0000 
     30 N           0.7885   24.3555   14.9800 N.am      2 SEC2        0.0000 
     31 N          -0.7060   23.6310   14.9820 N.am      6 SEP2        0.0000 
     32 NZ          4.9590   21.6040   12.8890 N.4       3 LYC4        0.0000 
     33 NZ          3.9990   22.2970   13.7610 N.4      11 LYL4        0.0000 
     34 NZ          7.2350   20.9260   12.1460 N.4       7 LYP4        0.0000 
     35 N           4.9590   21.6040   12.8890 N.am      2 SEC2        0.0000 
     36 N           3.9990   22.2970   13.7610 N.am     10 SEL2        0.0000 
     37 N           5.9190   20.9110   12.0170 N.am      6 SEP2        0.0000 
     38 CA         -0.1715   22.5870   11.3255 C.3       4 GLC5        0.0000 
     39 CA          1.6560   21.9290   10.7840 C.3      12 GLL5        0.0000 
     40 CA         -1.9990   23.2450   11.8670 C.3       8 GLP5        0.0000 
     41 CA          4.8635   23.8820    8.7640 C.3       4 GLC5        0.0000 
     42 CA          2.9950   22.8470    8.3250 C.3      12 GLL5        0.0000 
     43 CA          6.7320   24.9170    9.2030 C.3       8 GLP5        0.0000 
     44 CA          4.6810   24.1470   10.0180 C.3       4 GLC5        0.0000 
     45 CA          2.7540   23.8150    9.5220 C.3      12 GLL5        0.0000 
     46 CA          6.6080   24.4790   10.5140 C.3       8 GLP5        0.0000 
     47 CA          0.5960   25.3735   10.0135 C.3       4 GLC5        0.0000 
     48 CA          2.5060   25.2670    9.0320 C.3      12 GLL5        0.0000 
     49 CA         -1.3140   25.4800   10.9950 C.3       8 GLP5        0.0000 
     50 CA          3.7290   25.8235    7.5955 C.3       4 GLC5        0.0000 
     51 CA          4.9520   26.3800    6.1590 C.3       8 GLP5        0.0000 
     52 CA          4.1240   26.7915    9.3675 C.3       4 GLC5        0.0000 
     53 CA          4.6190   25.0920    9.1175 C.3       4 GLC5        0.0000 
     54 CA          0.9105   15.6680   10.5480 C.3       4 GLC5        0.0000 
     55 CA          1.4610   17.4150   10.9810 C.3      12 GLL5        0.0000 
     56 CA          0.3600   13.9210   10.1150 C.3       8 GLP5        0.0000 
     57 CA          1.8145   15.9720   12.5845 C.3       4 GLC5        0.0000 
     58 CA          2.1680   14.5290   14.1880 C.3       8 GLP5        0.0000 
     59 CA          0.1060   17.8465   12.1995 C.3       4 GLC5        0.0000 
     60 CA         -1.2490   18.2780   13.4180 C.3       8 GLP5        0.0000 
     61 N           1.9720   19.8765    7.1760 N.am      2 SEC2        0.0000 
     62 N           3.3980   20.4550    7.7440 N.am     10 SEL2        0.0000 
     63 N           0.5460   19.2980    6.6080 N.am      6 SEP2        0.0000 
     64 O           4.3370   22.9215    6.3735 O.2       1 ALC1        0.0000 
     65 O           4.1560   23.3810    7.6050 O.2       9 ALL1        0.0000 
     66 O           4.5180   22.4620    5.1420 O.2       5 ALP1        0.0000 
     67 O           3.2355   22.8515    6.3145 O.2       1 ALC1        0.0000 
     68 O           2.3150   22.3220    5.0240 O.2       5 ALP1        0.0000 
     69 NZ          5.1620   19.1555    3.7375 N.4       3 LYC4        0.0000 
     70 NZ          5.5140   19.3720    5.0690 N.4      11 LYL4        0.0000 
     71 NZ          3.8260   18.0780    2.1490 N.4       7 LYP4        0.0000 
     72 N           6.5150   20.6145    4.9215 N.am      2 SEC2        0.0000 
     73 N           5.5140   19.3720    5.0690 N.am     10 SEL2        0.0000 
     74 N           7.5160   21.8570    4.7740 N.am      6 SEP2        0.0000 
     75 N           5.1620   19.1555    3.7375 N.am      2 SEC2        0.0000 
     76 N           4.8100   18.9390    2.4060 N.am      6 SEP2        0.0000 
     77 NZ          3.1900   17.4050    6.6070 N.4       3 LYC4        0.0000 
     78 NZ          3.5720   18.5400    5.8010 N.4      11 LYL4        0.0000 
     79 NZ          2.8080   16.2700    7.4130 N.4       7 LYP4        0.0000 
     80 NZ          3.2390   18.1825    4.4360 N.4       3 LYC4        0.0000 
     81 N           3.1900   17.4050    6.6070 N.am      2 SEC2        0.0000 
     82 N           3.5720   18.5400    5.8010 N.am     10 SEL2        0.0000 
     83 N           2.8080   16.2700    7.4130 N.am      6 SEP2        0.0000 
     84 N           2.0590   18.9190    6.2045 N.am      2 SEC2        0.0000 
     85 N           3.2390   18.1825    4.4360 N.am      2 SEC2        0.0000 
     86 N           2.9060   17.8250    3.0710 N.am      6 SEP2        0.0000 
     87 CA          7.6570   21.4235    8.2155 C.3       4 GLC5        0.0000 
     88 CA          5.8580   20.6400    7.6800 C.3      12 GLL5        0.0000 
     89 CA          9.4560   22.2070    8.7510 C.3       8 GLP5        0.0000 
     90 CA          2.3780   26.7940   17.1825 C.3       4 GLC5        0.0000 
     91 CA          4.5060   26.3120   17.0330 C.3      12 GLL5        0.0000 
     92 CA          0.5320   27.5780   16.7690 C.3       8 GLP5        0.0000 
     93 CA          7.1970   26.0877   12.8700 C.3       4 GLC5        0.0000 
     94 CA          6.7070   27.0880   14.9630 C.3      12 GLL5        0.0000 
     95 CA          7.6460   24.6980   11.4170 C.3       8 GLP5        0.0000 
     96 CA          5.8920   28.2312   11.7057 C.3       4 GLC5        0.0000 
     97 CA          6.7890   27.8670   13.6830 C.3      12 GLL5        0.0000 
@<TRIPOS>BOND
@<TRIPOS>SUBSTRUCTURE
     1 ALC1        1 GROUP        1 X    ALC  0     ROOT ALC X 1
     2 SEC2        9 GROUP        1 X    SEC  0     **** SEC X 2
     3 LYC4       32 GROUP        1 X    LYC  0     **** LYC X 4
     4 GLC5        4 GROUP        1 X    GLC  0     **** GLC X 6
     5 ALP1        3 GROUP        1 Y    ALP  0     ROOT ALP Y 8
     6 SEP2       11 GROUP        1 Y    SEP  0     **** SEP Y 9
     7 LYP4       34 GROUP        1 Y    LYP  0     **** LYP Y 11
     8 GLP5        6 GROUP        1 Y    GLP  0     **** GLP Y 13
     9 ALL1        2 GROUP        1 Z    ALL  0     ROOT ALL Z 15
    10 SEL2       10 GROUP        1 Z    SEL  0     **** SEL Z 16
    11 LYL4       33 GROUP        1 Z    LYL  0     **** LYL Z 18
    12 GLL5        5 GROUP        1 Z    GLL  0     **** GLL Z 20
@<TRIPOS>SET

