#    Name: 1ryw_EPU_8_ligand
#    Modification time : Tue Mar 25 01:37:39 2014

@<TRIPOS>MOLECULE
1ryw_EPU_8_ligand
   68    70     1     0     0
SMALL
NO_CHARGES


@<TRIPOS>ATOM
      1 N1U         5.4560   27.3860   17.1420 N.am      1 EPU9450     0.0000 
      2 C2U         5.8330   27.8310   18.4300 C.2       1 EPU9450     0.0000 
      3 N3U         5.2640   27.2210   19.5150 N.am      1 EPU9450     0.0000 
      4 C4U         4.3310   26.1820   19.4970 C.2       1 EPU9450     0.0000 
      5 C5U         3.9420   25.7080   18.1590 C.2       1 EPU9450     0.0000 
      6 C6U         4.5060   26.3120   17.0330 C.2       1 EPU9450     0.0000 
      7 O2U         6.6420   28.7380   18.6010 O.2       1 EPU9450     0.0000 
      8 O4U         3.8830   25.7110   20.5370 O.2       1 EPU9450     0.0000 
      9 C1D         6.0280   28.0190   15.8880 C.3       1 EPU9450     0.0000 
     10 C2D         6.7070   27.0880   14.9630 C.3       1 EPU9450     0.0000 
     11 O2D         7.9650   26.4230   15.4690 O.3       1 EPU9450     0.0000 
     12 C3D         6.7890   27.8670   13.6830 C.3       1 EPU9450     0.0000 
     13 C4D         5.2950   28.4260   13.7340 C.3       1 EPU9450     0.0000 
     14 O4D         4.9390   28.5040   15.1550 O.3       1 EPU9450     0.0000 
     15 O3D         7.9240   28.7870   13.9130 O.3       1 EPU9450     0.0000 
     16 C5D         4.1580   27.5650   13.0720 C.3       1 EPU9450     0.0000 
     17 O5D         4.0200   26.2420   13.6340 O.3       1 EPU9450     0.0000 
     18 PA          2.7330   25.3910   13.5960 P.3       1 EPU9450     0.0000 
     19 O1A         1.6920   26.1440   12.8960 O.co2     1 EPU9450     0.0000 
     20 O2A         2.2830   25.0800   14.9780 O.co2     1 EPU9450     0.0000 
     21 O3A         2.7710   24.1960   12.6650 O.3       1 EPU9450     0.0000 
     22 PB          2.7880   22.6790   13.0350 P.3       1 EPU9450     0.0000 
     23 O1B         1.6160   22.3210   13.7600 O.co2     1 EPU9450     0.0000 
     24 O2B         3.9990   22.2970   13.7610 O.co2     1 EPU9450     0.0000 
     25 C1          1.6560   21.9290   10.7840 C.3       1 EPU9450     0.0000 
     26 C2          1.9000   20.9490    9.5690 C.3       1 EPU9450     0.0000 
     27 C3          3.2120   21.3600    8.8390 C.3       1 EPU9450     0.0000 
     28 C4          2.9950   22.8470    8.3250 C.3       1 EPU9450     0.0000 
     29 C5          2.7540   23.8150    9.5220 C.3       1 EPU9450     0.0000 
     30 C6          2.5060   25.2670    9.0320 C.3       1 EPU9450     0.0000 
     31 C7          1.0040   18.7920   10.5270 C.2       1 EPU9450     0.0000 
     32 C8          1.4610   17.4150   10.9810 C.3       1 EPU9450     0.0000 
     33 N2          2.0070   19.5610   10.0840 N.am      1 EPU9450     0.0000 
     34 O1          2.7550   21.8240   11.7320 O.3       1 EPU9450     0.0000 
     35 O3          3.3980   20.4550    7.7440 O.3       1 EPU9450     0.0000 
     36 O4          4.1560   23.3810    7.6050 O.3       1 EPU9450     0.0000 
     37 O5          1.5580   23.3000   10.2500 O.3       1 EPU9450     0.0000 
     38 O6          1.3380   25.4630    8.1000 O.3       1 EPU9450     0.0000 
     39 O7         -0.1730   19.1990   10.5450 O.2       1 EPU9450     0.0000 
     40 C1E         4.5900   19.2790    5.9350 C.2       1 EPU9450     0.0000 
     41 O1E         5.5140   19.3720    5.0690 O.co2     1 EPU9450     0.0000 
     42 O2E         3.5720   18.5400    5.8010 O.co2     1 EPU9450     0.0000 
     43 C2E         4.6580   20.1460    7.2010 C.2       1 EPU9450     0.0000 
     44 C3E         5.8580   20.6400    7.6800 C.2       1 EPU9450     0.0000 
     45 H           5.5605   27.5721   20.4915 H         1 EPU9450     0.0000 
     46 H           3.2747   24.9554   18.0919 H         1 EPU9450     0.0000 
     47 H           4.2444   25.9904   16.0866 H         1 EPU9450     0.0000 
     48 H           6.6833   28.8186   16.1573 H         1 EPU9450     0.0000 
     49 H           5.9411   26.2703   14.7540 H         1 EPU9450     0.0000 
     50 H           6.8837   27.2070   12.9101 H         1 EPU9450     0.0000 
     51 H           5.2815   29.4089   13.3163 H         1 EPU9450     0.0000 
     52 H           4.3836   27.5256   11.9878 H         1 EPU9450     0.0000 
     53 H           3.2219   28.1496   13.1715 H         1 EPU9450     0.0000 
     54 H           0.7252   21.6387   11.2307 H         1 EPU9450     0.0000 
     55 H           1.0832   21.0512    8.8979 H         1 EPU9450     0.0000 
     56 H           3.9948   21.3594    9.5352 H         1 EPU9450     0.0000 
     57 H           2.1180   22.8700    7.7107 H         1 EPU9450     0.0000 
     58 H           3.6086   23.7899   10.1522 H         1 EPU9450     0.0000 
     59 H           3.4376   25.6224    8.5398 H         1 EPU9450     0.0000 
     60 H           2.3768   25.9102    9.9297 H         1 EPU9450     0.0000 
     61 H           3.0105   19.1854   10.0787 H         1 EPU9450     0.0000 
     62 H           1.9011   16.9069   10.2406 H         1 EPU9450     0.0000 
     63 H           2.1206   17.4710   11.7305 H         1 EPU9450     0.0000 
     64 H           0.6962   16.8579   11.3046 H         1 EPU9450     0.0000 
     65 H           8.3476   27.0649   16.1335 H         1 EPU9450     0.0000 
     66 H           8.2099   29.0784   13.0001 H         1 EPU9450     0.0000 
     67 H           4.1537   22.9084    6.7237 H         1 EPU9450     0.0000 
     68 H           1.1375   26.4419    8.1388 H         1 EPU9450     0.0000 
@<TRIPOS>BOND
     1    2    1 1    
     2    6    1 1    
     3    9    1 1    
     4    3    2 1    
     5    7    2 2    
     6    4    3 1    
     7   45    3 1    
     8    5    4 1    
     9    8    4 2    
    10    6    5 2    
    11   46    5 1    
    12   47    6 1    
    13   10    9 1    
    14   14    9 1    
    15   48    9 1    
    16   11   10 1    
    17   12   10 1    
    18   49   10 1    
    19   65   11 1    
    20   13   12 1    
    21   15   12 1    
    22   50   12 1    
    23   14   13 1    
    24   16   13 1    
    25   51   13 1    
    26   66   15 1    
    27   17   16 1    
    28   52   16 1    
    29   53   16 1    
    30   18   17 1    
    31   19   18 ar   
    32   20   18 ar   
    33   21   18 1    
    34   22   21 1    
    35   23   22 ar   
    36   24   22 ar   
    37   34   22 1    
    38   26   25 1    
    39   34   25 1    
    40   37   25 1    
    41   54   25 1    
    42   27   26 1    
    43   33   26 1    
    44   55   26 1    
    45   28   27 1    
    46   35   27 1    
    47   56   27 1    
    48   29   28 1    
    49   36   28 1    
    50   57   28 1    
    51   30   29 1    
    52   37   29 1    
    53   58   29 1    
    54   38   30 1    
    55   59   30 1    
    56   60   30 1    
    57   32   31 1    
    58   33   31 am   
    59   39   31 2    
    60   62   32 1    
    61   63   32 1    
    62   64   32 1    
    63   61   33 1    
    64   43   35 1    
    65   67   36 1    
    66   68   38 1    
    67   41   40 ar   
    68   42   40 ar   
    69   43   40 1    
    70   44   43 2    
@<TRIPOS>SUBSTRUCTURE
     1 EPU9450     1 GROUP   
@<TRIPOS>SET

