#    Name: 3gyn_B42_1_INTS_M
#    Modification time : Tue Mar 25 13:16:19 2014

@<TRIPOS>MOLECULE
3gyn_B42_1_INTS_M
   62     0     9     0     0
SMALL
NO_CHARGES


@<TRIPOS>ATOM
      1 N          96.2635    8.8580   66.9585 N.am      2 SEC2        0.0000 
      2 N          95.9970    8.7650   65.6400 N.am      8 SEL2        0.0000 
      3 N          96.5300    8.9510   68.2770 N.am      5 SEP2        0.0000 
      4 N          94.7520    9.8880   65.5125 N.am      2 SEC2        0.0000 
      5 N          93.5070   11.0110   65.3850 N.am      5 SEP2        0.0000 
      6 CA         98.4850    6.8480   66.0525 C.3       3 GLC5        0.0000 
      7 CA         98.1850    8.2380   64.4260 C.3       9 GLL5        0.0000 
      8 CA         98.7850    5.4580   67.6790 C.3       6 GLP5        0.0000 
      9 CA         98.3805    6.7085   63.4280 C.3       3 GLC5        0.0000 
     10 CA         98.5760    5.1790   62.4300 C.3       6 GLP5        0.0000 
     11 O          95.9910   10.8470   63.6560 O.2       1 ALC1        0.0000 
     12 O          96.2480    9.6440   63.2180 O.2       7 ALL1        0.0000 
     13 O          95.7340   12.0500   64.0940 O.2       4 ALP1        0.0000 
     14 CA         97.5925    6.7465   61.7915 C.3       3 GLC5        0.0000 
     15 CA         96.6090    8.3140   61.1530 C.3       9 GLL5        0.0000 
     16 CA         93.0165   10.0195   59.9935 C.3       3 GLC5        0.0000 
     17 CA         95.1820   10.2130   59.6880 C.3       9 GLL5        0.0000 
     18 CA         90.8510    9.8260   60.2990 C.3       6 GLP5        0.0000 
     19 CA         93.5290   11.0445   58.6180 C.3       3 GLC5        0.0000 
     20 CA         91.8760   11.8760   57.5480 C.3       6 GLP5        0.0000 
     21 CA         94.9715    7.2010   55.4745 C.3       3 GLC5        0.0000 
     22 CA         96.5490    8.6450   55.4730 C.3       9 GLL5        0.0000 
     23 CA         93.3940    5.7570   55.4760 C.3       6 GLP5        0.0000 
     24 N          96.5570    5.1845   54.9310 N.am      2 SEC2        0.0000 
     25 N          97.0210    6.4350   54.7100 N.am      8 SEL2        0.0000 
     26 N          96.0930    3.9340   55.1520 N.am      5 SEP2        0.0000 
     27 CA         97.3020    4.9385   50.9595 C.3       3 GLC5        0.0000 
     28 CA         97.7500    7.0720   51.2080 C.3       9 GLL5        0.0000 
     29 CA         96.8540    2.8050   50.7110 C.3       6 GLP5        0.0000 
     30 CA         96.8000   13.8105   53.9855 C.3       3 GLC5        0.0000 
     31 CA         96.7950   11.8730   53.5220 C.3       9 GLL5        0.0000 
     32 CA         96.8050   15.7480   54.4490 C.3       6 GLP5        0.0000 
     33 CA         93.2740   11.6200   54.5580 C.3       3 GLC5        0.0000 
     34 CA         94.0570   10.4720   52.9820 C.3       9 GLL5        0.0000 
     35 CA         92.4910   12.7680   56.1340 C.3       6 GLP5        0.0000 
     36 CA         89.8115   10.7790   53.2720 C.3       3 GLC5        0.0000 
     37 CA         91.5600   10.1440   52.9050 C.3       9 GLL5        0.0000 
     38 CA         88.0630   11.4140   53.6390 C.3       6 GLP5        0.0000 
     39 CA         92.0255   11.4560   54.5195 C.3       3 GLC5        0.0000 
     40 CA         91.7540    8.7675   49.6905 C.3       3 GLC5        0.0000 
     41 CA         92.9020    9.9870   50.7860 C.3       9 GLL5        0.0000 
     42 CA         90.6060    7.5480   48.5950 C.3       6 GLP5        0.0000 
     43 CA         94.0560   11.1145   49.9655 C.3       3 GLC5        0.0000 
     44 CA         95.2100   12.2420   49.1450 C.3       6 GLP5        0.0000 
     45 CA         93.9535   11.8737   60.8447 C.3       3 GLC5        0.0000 
     46 CA         92.6360   13.4500   61.3110 C.3       6 GLP5        0.0000 
     47 CA         99.6265    6.0090   48.9845 C.3       3 GLC5        0.0000 
     48 CA         98.6740    7.3720   50.0330 C.3       9 GLL5        0.0000 
     49 CA         99.8690    4.6430   47.6570 C.3       6 GLP5        0.0000 
     50 CA         99.3505    7.7595   48.2935 C.3       3 GLC5        0.0000 
     51 CA         99.3170    8.1440   46.2750 C.3       6 GLP5        0.0000 
     52 CA         96.6350    6.6340   49.7982 C.3       3 GLC5        0.0000 
     53 CA         95.0580    6.0460   48.9760 C.3       6 GLP5        0.0000 
     54 CA         94.9778   11.2197   50.9735 C.3       3 GLC5        0.0000 
     55 CA         95.4340    9.9230   52.6220 C.3       9 GLL5        0.0000 
     56 CA         93.0065    7.9870   51.2345 C.3       3 GLC5        0.0000 
     57 CA         93.1130    6.1180   50.9260 C.3       6 GLP5        0.0000 
     58 CA         92.3450    8.2282   53.6863 C.3       3 GLC5        0.0000 
     59 CA         92.8980    9.7250   52.3000 C.3       9 GLL5        0.0000 
     60 CA         92.4610    6.5220   54.7700 C.3       6 GLP5        0.0000 
     61 CA         91.3568   11.1104   50.9601 C.3       3 GLC5        0.0000 
     62 CA         90.1480   12.2600   50.2260 C.3       6 GLP5        0.0000 
@<TRIPOS>BOND
@<TRIPOS>SUBSTRUCTURE
     1 ALC1       11 GROUP        1 X    ALC  0     ROOT ALC X 1
     2 SEC2        1 GROUP        1 X    SEC  0     **** SEC X 2
     3 GLC5        6 GROUP        1 X    GLC  0     **** GLC X 6
     4 ALP1       13 GROUP        1 Y    ALP  0     ROOT ALP Y 8
     5 SEP2        3 GROUP        1 Y    SEP  0     **** SEP Y 9
     6 GLP5        8 GROUP        1 Y    GLP  0     **** GLP Y 13
     7 ALL1       12 GROUP        1 Z    ALL  0     ROOT ALL Z 15
     8 SEL2        2 GROUP        1 Z    SEL  0     **** SEL Z 16
     9 GLL5        7 GROUP        1 Z    GLL  0     **** GLL Z 20
@<TRIPOS>SET

