#    Name: 3gyn_B42_1_ligand
#    Modification time : Tue Mar 25 13:16:19 2014

@<TRIPOS>MOLECULE
3gyn_B42_1_ligand
   69    72     1     0     0
SMALL
NO_CHARGES


@<TRIPOS>ATOM
      1 O33        95.8800    7.0940   63.7860 O.2       1 B42579      0.0000 
      2 S36        96.4120    8.3350   64.3280 S.o2      1 B42579      0.0000 
      3 O32        95.9970    8.7650   65.6400 O.2       1 B42579      0.0000 
      4 C21        98.1850    8.2380   64.4260 C.3       1 B42579      0.0000 
      5 N28        96.2480    9.6440   63.2180 N.pl3     1 B42579      0.0000 
      6 C5         96.0730    9.4350   61.8080 C.ar      1 B42579      0.0000 
      7 C2         95.3600   10.3820   61.0690 C.ar      1 B42579      0.0000 
      8 C3         96.6090    8.3140   61.1530 C.ar      1 B42579      0.0000 
      9 C6         96.4260    8.1500   59.7730 C.ar      1 B42579      0.0000 
     10 S35        97.0830    6.7200   58.9770 S.o2      1 B42579      0.0000 
     11 O30        98.4090    6.4840   59.4990 O.2       1 B42579      0.0000 
     12 O31        96.0370    5.7210   59.1000 O.2       1 B42579      0.0000 
     13 N26        97.1570    7.2590   57.3750 N.2       1 B42579      0.0000 
     14 C9         96.3400    8.3230   56.9020 C.2       1 B42579      0.0000 
     15 N25        95.4890    8.9840   57.6300 N.pl3     1 B42579      0.0000 
     16 C4         95.7040    9.0870   59.0170 C.ar      1 B42579      0.0000 
     17 C1         95.1820   10.2130   59.6880 C.ar      1 B42579      0.0000 
     18 C7         96.5490    8.6450   55.4730 C.2       1 B42579      0.0000 
     19 C10        97.1590    7.6460   54.5120 C.2       1 B42579      0.0000 
     20 O29        97.0210    6.4350   54.7100 O.2       1 B42579      0.0000 
     21 N27        97.8450    8.1930   53.4260 N.am      1 B42579      0.0000 
     22 C16        98.5510    7.3160   52.4870 C.3       1 B42579      0.0000 
     23 C14        99.9500    7.7820   52.0590 C.3       1 B42579      0.0000 
     24 C12       100.0940    7.3780   50.5910 C.3       1 B42579      0.0000 
     25 C13        97.7500    7.0720   51.2080 C.3       1 B42579      0.0000 
     26 C11        98.6740    7.3720   50.0330 C.3       1 B42579      0.0000 
     27 C15        97.8630    9.6430   53.1890 C.3       1 B42579      0.0000 
     28 C17        96.5530   10.3410   53.6060 C.3       1 B42579      0.0000 
     29 C18        96.7950   11.8730   53.5220 C.3       1 B42579      0.0000 
     30 C8         96.1980    9.8690   55.0180 C.2       1 B42579      0.0000 
     31 O34        95.5090   10.7900   55.7900 O.co2     1 B42579      0.0000 
     32 C22        95.4340    9.9230   52.6220 C.3       1 B42579      0.0000 
     33 C23        94.0570   10.4720   52.9820 C.3       1 B42579      0.0000 
     34 C24        92.8980    9.7250   52.3000 C.3       1 B42579      0.0000 
     35 C20        91.5600   10.1440   52.9050 C.3       1 B42579      0.0000 
     36 C19        92.9020    9.9870   50.7860 C.3       1 B42579      0.0000 
     37 H          96.2911   10.5189   63.6806 H         1 B42579      0.0000 
     38 H          94.9635   11.2062   61.5363 H         1 B42579      0.0000 
     39 H          97.1353    7.6145   61.6869 H         1 B42579      0.0000 
     40 H          94.6473    9.4470   57.2402 H         1 B42579      0.0000 
     41 H          94.6610   10.9222   59.1505 H         1 B42579      0.0000 
     42 H          98.6882    6.3098   52.9463 H         1 B42579      0.0000 
     43 H         100.6877    7.2808   52.6453 H         1 B42579      0.0000 
     44 H         100.0154    8.8434   52.1493 H         1 B42579      0.0000 
     45 H         100.5109    6.3986   50.5279 H         1 B42579      0.0000 
     46 H         100.6815    8.1033   50.0755 H         1 B42579      0.0000 
     47 H          96.9051    7.7345   51.1820 H         1 B42579      0.0000 
     48 H          97.4387    6.0448   51.1702 H         1 B42579      0.0000 
     49 H          98.5805    6.6017   49.2945 H         1 B42579      0.0000 
     50 H          98.4419    8.3364   49.6285 H         1 B42579      0.0000 
     51 H          98.0342    9.8600   52.1202 H         1 B42579      0.0000 
     52 H          98.6892   10.1177   53.7465 H         1 B42579      0.0000 
     53 H          95.3906    8.8240   52.5912 H         1 B42579      0.0000 
     54 H          95.7106   10.2673   51.6142 H         1 B42579      0.0000 
     55 H          94.0062   11.5339   52.6997 H         1 B42579      0.0000 
     56 H          93.9192   10.4161   54.0719 H         1 B42579      0.0000 
     57 H          93.0335    8.6636   52.4624 H         1 B42579      0.0000 
     58 H          98.5988    8.0865   63.5283 H         1 B42579      0.0000 
     59 H          98.5831    9.0782   64.7943 H         1 B42579      0.0000 
     60 H          98.4839    7.4886   65.0168 H         1 B42579      0.0000 
     61 H          97.5358   12.1657   54.1266 H         1 B42579      0.0000 
     62 H          97.0415   12.1598   52.5963 H         1 B42579      0.0000 
     63 H          95.9812   12.3924   53.7828 H         1 B42579      0.0000 
     64 H          91.5159    9.9436   53.8837 H         1 B42579      0.0000 
     65 H          91.3952   11.1246   52.7989 H         1 B42579      0.0000 
     66 H          90.7926    9.6695   52.4738 H         1 B42579      0.0000 
     67 H          93.7548    9.6859   50.3592 H         1 B42579      0.0000 
     68 H          92.1571    9.5058   50.3238 H         1 B42579      0.0000 
     69 H          92.7970   10.9593   50.5771 H         1 B42579      0.0000 
@<TRIPOS>BOND
     1    2    1 2    
     2    3    2 2    
     3    4    2 1    
     4    5    2 1    
     5   58    4 1    
     6   59    4 1    
     7   60    4 1    
     8    6    5 1    
     9   37    5 1    
    10    7    6 ar   
    11    8    6 ar   
    12   17    7 ar   
    13   38    7 1    
    14    9    8 ar   
    15   39    8 1    
    16   10    9 1    
    17   16    9 ar   
    18   11   10 2    
    19   12   10 2    
    20   13   10 1    
    21   14   13 2    
    22   15   14 1    
    23   18   14 1    
    24   16   15 1    
    25   40   15 1    
    26   17   16 ar   
    27   41   17 1    
    28   19   18 1    
    29   30   18 2    
    30   20   19 2    
    31   21   19 am   
    32   22   21 1    
    33   27   21 1    
    34   23   22 1    
    35   25   22 1    
    36   42   22 1    
    37   24   23 1    
    38   43   23 1    
    39   44   23 1    
    40   26   24 1    
    41   45   24 1    
    42   46   24 1    
    43   26   25 1    
    44   47   25 1    
    45   48   25 1    
    46   49   26 1    
    47   50   26 1    
    48   28   27 1    
    49   51   27 1    
    50   52   27 1    
    51   29   28 1    
    52   30   28 1    
    53   32   28 1    
    54   61   29 1    
    55   62   29 1    
    56   63   29 1    
    57   31   30 ar   
    58   33   32 1    
    59   53   32 1    
    60   54   32 1    
    61   34   33 1    
    62   55   33 1    
    63   56   33 1    
    64   35   34 1    
    65   36   34 1    
    66   57   34 1    
    67   64   35 1    
    68   65   35 1    
    69   66   35 1    
    70   67   36 1    
    71   68   36 1    
    72   69   36 1    
@<TRIPOS>SUBSTRUCTURE
     1 B42579      1 GROUP   
@<TRIPOS>SET

