#    Name: 1x76_697_2_INTS_M
#    Modification time : Tue Mar 25 09:35:11 2014

@<TRIPOS>MOLECULE
1x76_697_2_INTS_M
   64     0     9     0     0
SMALL
NO_CHARGES


@<TRIPOS>ATOM
      1 CA         23.9715   31.8665    5.8230 C.3       3 GLC5        0.0000 
      2 CA         22.7050   30.2870    6.6840 C.3       9 GLL5        0.0000 
      3 CA         25.2380   33.4460    4.9620 C.3       6 GLP5        0.0000 
      4 CA         25.0510   31.5010    6.7080 C.3       3 GLC5        0.0000 
      5 CA         23.9230   29.8700    7.2940 C.3       9 GLL5        0.0000 
      6 CA         26.1790   33.1320    6.1220 C.3       6 GLP5        0.0000 
      7 CA         23.6170   30.5060   10.7935 C.3       3 GLC5        0.0000 
      8 CA         22.6470   29.1420    9.3190 C.3       9 GLL5        0.0000 
      9 CA         24.5870   31.8700   12.2680 C.3       6 GLP5        0.0000 
     10 CA         21.8775   29.3720   11.1905 C.3       3 GLC5        0.0000 
     11 CA         21.1080   29.6020   13.0620 C.3       6 GLP5        0.0000 
     12 CA         21.2490   27.6375    9.6265 C.3       3 GLC5        0.0000 
     13 CA         19.8510   26.1330    9.9340 C.3       6 GLP5        0.0000 
     14 CA         20.1645   29.9165   10.3530 C.3       3 GLC5        0.0000 
     15 CA         21.4280   29.5590    8.7050 C.3       9 GLL5        0.0000 
     16 CA         18.9010   30.2740   12.0010 C.3       6 GLP5        0.0000 
     17 CA         19.7455   28.6325    8.9455 C.3       3 GLC5        0.0000 
     18 CA         18.0630   27.7060    9.1860 C.3       6 GLP5        0.0000 
     19 N          19.1060   29.7830    6.1160 N.am      2 SEC2        0.0000 
     20 N          20.2930   30.5290    6.7860 N.am      8 SEL2        0.0000 
     21 N          17.9190   29.0370    5.4460 N.am      5 SEP2        0.0000 
     22 O          20.6605   31.2175    5.7530 O.2       1 ALC1        0.0000 
     23 O          20.2930   30.5290    6.7860 O.2       7 ALL1        0.0000 
     24 O          21.0280   31.9060    4.7200 O.2       4 ALP1        0.0000 
     25 O          19.6135   31.5000    5.5915 O.2       1 ALC1        0.0000 
     26 O          18.9340   32.4710    4.3970 O.2       4 ALP1        0.0000 
     27 CA         24.8680   30.3545   10.7760 C.3       3 GLC5        0.0000 
     28 CA         25.1490   28.8390    9.2840 C.3       9 GLL5        0.0000 
     29 CA         27.1175   28.2600    7.5220 C.3       3 GLC5        0.0000 
     30 CA         26.4200   29.4320    9.1220 C.3       9 GLL5        0.0000 
     31 CA         27.8150   27.0880    5.9220 C.3       6 GLP5        0.0000 
     32 CA         28.1665   25.8505   13.6590 C.3       3 GLC5        0.0000 
     33 CA         28.3260   26.6690   11.7530 C.3       9 GLL5        0.0000 
     34 CA         28.0070   25.0320   15.5650 C.3       6 GLP5        0.0000 
     35 O          30.9125   26.7370   12.2685 O.2       1 ALC1        0.0000 
     36 O          30.5130   27.6920   11.4770 O.2       7 ALL1        0.0000 
     37 O          31.3120   25.7820   13.0600 O.2       4 ALP1        0.0000 
     38 CA         27.1775   24.1885   11.9320 C.3       3 GLC5        0.0000 
     39 CA         26.0670   25.6690   11.9890 C.3       9 GLL5        0.0000 
     40 CA         28.2880   22.7080   11.8750 C.3       6 GLP5        0.0000 
     41 CA         25.4995   25.3795   13.7100 C.3       3 GLC5        0.0000 
     42 CA         24.9320   25.0900   15.4310 C.3       6 GLP5        0.0000 
     43 CA         25.6455   23.9580   11.2490 C.3       3 GLC5        0.0000 
     44 CA         25.2240   22.2470   10.5090 C.3       6 GLP5        0.0000 
     45 CA         22.1435   29.5382    5.1258 C.3       3 GLC5        0.0000 
     46 CA         22.2000   28.8690    3.2150 C.3       6 GLP5        0.0000 
     47 CA         23.3040   32.0738    7.8755 C.3       3 GLC5        0.0000 
     48 CA         23.2940   34.0690    8.7620 C.3       6 GLP5        0.0000 
     49 CA         21.5764   31.3649    9.1435 C.3       3 GLC5        0.0000 
     50 CA         21.4690   30.1280    7.3890 C.3       9 GLL5        0.0000 
     51 CA         21.1050   33.2370    9.6040 C.3       6 GLP5        0.0000 
     52 CA         27.0569   30.3790   11.0188 C.3       3 GLC5        0.0000 
     53 CA         28.6320   28.6480   10.2700 C.3       9 GLL5        0.0000 
     54 CA         26.3830   31.9180   12.1350 C.3       6 GLP5        0.0000 
     55 CA         30.1510   29.6220   11.4782 C.3       3 GLC5        0.0000 
     56 CA         31.4010   31.0860   12.2360 C.3       6 GLP5        0.0000 
     57 CA         30.0270   26.4083   12.9465 C.3       3 GLC5        0.0000 
     58 CA         29.1700   27.6680   11.1710 C.3       9 GLL5        0.0000 
     59 CA         31.3060   25.6480   14.4310 C.3       6 GLP5        0.0000 
     60 CA         28.0255   24.9232   11.0198 C.3       3 GLC5        0.0000 
     61 CA         28.4210   23.1820   10.4510 C.3       6 GLP5        0.0000 
     62 CA         27.1591   26.3170    9.1984 C.3       3 GLC5        0.0000 
     63 CA         26.9340   26.6600   11.4240 C.3       9 GLL5        0.0000 
     64 CA         27.4410   25.2440    7.5600 C.3       6 GLP5        0.0000 
@<TRIPOS>BOND
@<TRIPOS>SUBSTRUCTURE
     1 ALC1       22 GROUP        1 X    ALC  0     ROOT ALC X 1
     2 SEC2       19 GROUP        1 X    SEC  0     **** SEC X 2
     3 GLC5        1 GROUP        1 X    GLC  0     **** GLC X 6
     4 ALP1       24 GROUP        1 Y    ALP  0     ROOT ALP Y 8
     5 SEP2       21 GROUP        1 Y    SEP  0     **** SEP Y 9
     6 GLP5        3 GROUP        1 Y    GLP  0     **** GLP Y 13
     7 ALL1       23 GROUP        1 Z    ALL  0     ROOT ALL Z 15
     8 SEL2       20 GROUP        1 Z    SEL  0     **** SEL Z 16
     9 GLL5        2 GROUP        1 Z    GLL  0     **** GLL Z 20
@<TRIPOS>SET

