#    Name: 1x76_697_2_ligand
#    Modification time : Tue Mar 25 09:35:11 2014

@<TRIPOS>MOLECULE
1x76_697_2_ligand
   28    30     1     0     0
SMALL
NO_CHARGES


@<TRIPOS>ATOM
      1 C1         21.4690   30.1280    7.3890 C.ar      1 697202      0.0000 
      2 C2         22.7050   30.2870    6.6840 C.ar      1 697202      0.0000 
      3 C3         23.9230   29.8700    7.2940 C.ar      1 697202      0.0000 
      4 C4         23.8950   29.2960    8.6160 C.ar      1 697202      0.0000 
      5 C5         22.6470   29.1420    9.3190 C.ar      1 697202      0.0000 
      6 C6         21.4280   29.5590    8.7050 C.ar      1 697202      0.0000 
      7 O11        20.2930   30.5290    6.7860 O.3       1 697202      0.0000 
      8 C12        25.1490   28.8390    9.2840 C.2       1 697202      0.0000 
      9 C13        26.4200   29.4320    9.1220 C.2       1 697202      0.0000 
     10 C14        27.2390   28.6320    9.9480 C.ar      1 697202      0.0000 
     11 C15        26.4020   27.6080   10.5510 C.ar      1 697202      0.0000 
     12 O16        25.1250   27.7800   10.1110 O.3       1 697202      0.0000 
     13 C17        28.6320   28.6480   10.2700 C.ar      1 697202      0.0000 
     14 C18        29.1700   27.6680   11.1710 C.ar      1 697202      0.0000 
     15 C19        28.3260   26.6690   11.7530 C.ar      1 697202      0.0000 
     16 C20        26.9340   26.6600   11.4240 C.ar      1 697202      0.0000 
     17 O23        30.5130   27.6920   11.4770 O.3       1 697202      0.0000 
     18 C7         26.0670   25.6690   11.9890 C.1       1 697202      0.0000 
     19 N27        25.3370   24.8780   12.4160 N.1       1 697202      0.0000 
     20 H          22.7100   30.6943    5.7563 H         1 697202      0.0000 
     21 H          24.8041   29.9726    6.8097 H         1 697202      0.0000 
     22 H          22.6410   28.7375   10.2480 H         1 697202      0.0000 
     23 H          20.5483   29.4564    9.1871 H         1 697202      0.0000 
     24 H          26.6509   30.1440    8.6170 H         1 697202      0.0000 
     25 H          29.2411   29.3491    9.8642 H         1 697202      0.0000 
     26 H          28.7071   25.9828   12.3847 H         1 697202      0.0000 
     27 H          20.5186   31.3867    6.3239 H         1 697202      0.0000 
     28 H          30.6789   26.8437   11.9799 H         1 697202      0.0000 
@<TRIPOS>BOND
     1    2    1 ar   
     2    6    1 ar   
     3    7    1 1    
     4    3    2 ar   
     5   20    2 1    
     6    4    3 ar   
     7   21    3 1    
     8    5    4 ar   
     9    8    4 1    
    10    6    5 ar   
    11   22    5 1    
    12   23    6 1    
    13   27    7 1    
    14    9    8 2    
    15   12    8 1    
    16   10    9 1    
    17   24    9 1    
    18   11   10 ar   
    19   13   10 ar   
    20   12   11 1    
    21   16   11 ar   
    22   14   13 ar   
    23   25   13 1    
    24   15   14 ar   
    25   17   14 1    
    26   16   15 ar   
    27   26   15 1    
    28   18   16 1    
    29   28   17 1    
    30   19   18 3    
@<TRIPOS>SUBSTRUCTURE
     1 697202      1 GROUP   
@<TRIPOS>SET

