#    Name: 3pah_ALE_1_INTS_M
#    Modification time : Tue Mar 25 06:11:17 2014

@<TRIPOS>MOLECULE
3pah_ALE_1_INTS_M
   18     0     9     0     0
SMALL
NO_CHARGES


@<TRIPOS>ATOM
      1 Zn         -0.6780   24.9645    5.2765 Zn        2 ZIC7        0.0000 
      2 Zn         -1.3790   24.8380    4.5470 Zn        8 ZIL7        0.0000 
      3 Zn          0.0230   25.0910    6.0060 Zn        5 ZIP7        0.0000 
      4 Zn         -0.7910   25.5715    6.5315 Zn        2 ZIC7        0.0000 
      5 Zn         -1.6050   26.0520    7.0570 Zn        8 ZIL7        0.0000 
      6 N          -1.7320   26.8010    8.1175 N.am      1 SEC2        0.0000 
      7 N          -1.6050   26.0520    7.0570 N.am      7 SEL2        0.0000 
      8 N          -1.8590   27.5500    9.1780 N.am      4 SEP2        0.0000 
      9 CA         -8.5620   23.2185    5.2910 C.3       3 GLC5        0.0000 
     10 CA         -8.2520   24.4080    6.5930 C.3       9 GLL5        0.0000 
     11 CA         -8.8720   22.0290    3.9890 C.3       6 GLP5        0.0000 
     12 CA         -8.2470   24.9555    8.6700 C.3       3 GLC5        0.0000 
     13 CA         -8.2420   25.5030   10.7470 C.3       6 GLP5        0.0000 
     14 CA         -1.5820   27.2590    5.3287 C.3       3 GLC5        0.0000 
     15 CA         -2.7350   25.8180    6.3310 C.3       9 GLL5        0.0000 
     16 CA         -0.4710   29.0110    4.9710 C.3       6 GLP5        0.0000 
     17 CA         -7.9582   23.8023    4.2070 C.3       3 GLC5        0.0000 
     18 CA         -6.4750   25.0710    4.1940 C.3       9 GLL5        0.0000 
@<TRIPOS>BOND
@<TRIPOS>SUBSTRUCTURE
     1 SEC2        6 GROUP        1 X    SEC  0     ROOT SEC X 2
     2 ZIC7        1 GROUP        1 X    ZIC  0     **** ZIC X 5
     3 GLC5        9 GROUP        1 X    GLC  0     **** GLC X 6
     4 SEP2        8 GROUP        1 Y    SEP  0     ROOT SEP Y 9
     5 ZIP7        3 GROUP        1 Y    ZIP  0     **** ZIP Y 12
     6 GLP5       11 GROUP        1 Y    GLP  0     **** GLP Y 13
     7 SEL2        7 GROUP        1 Z    SEL  0     ROOT SEL Z 16
     8 ZIL7        2 GROUP        1 Z    ZIL  0     **** ZIL Z 19
     9 GLL5       10 GROUP        1 Z    GLL  0     **** GLL Z 20
@<TRIPOS>SET

