#    Name: 3pah_ALE_1_ligand
#    Modification time : Tue Mar 25 06:11:17 2014

@<TRIPOS>MOLECULE
3pah_ALE_1_ligand
   23    23     1     0     0
SMALL
NO_CHARGES


@<TRIPOS>ATOM
      1 C1         -5.1290   25.3450    4.9170 C.ar      1 ALE700      0.0000 
      2 C2         -3.8640   24.9550    4.3240 C.ar      1 ALE700      0.0000 
      3 C3         -2.6510   25.1960    5.0420 C.ar      1 ALE700      0.0000 
      4 C4         -2.7350   25.8180    6.3310 C.ar      1 ALE700      0.0000 
      5 C5         -3.9670   26.1990    6.8880 C.ar      1 ALE700      0.0000 
      6 C7         -6.4750   25.0710    4.1940 C.3       1 ALE700      0.0000 
      7 C6         -5.1460   25.9750    6.2060 C.ar      1 ALE700      0.0000 
      8 O1         -1.3790   24.8380    4.5470 O.3       1 ALE700      0.0000 
      9 O2         -1.6050   26.0520    7.0570 O.3       1 ALE700      0.0000 
     10 O3         -6.2890   25.1560    2.7930 O.3       1 ALE700      0.0000 
     11 C8         -7.6140   26.0800    4.6560 C.3       1 ALE700      0.0000 
     12 N1         -8.0740   25.8470    6.0950 N.4       1 ALE700      0.0000 
     13 C9         -8.2520   24.4080    6.5930 C.3       1 ALE700      0.0000 
     14 H          -3.8498   24.5200    3.4164 H         1 ALE700      0.0000 
     15 H          -3.9794   26.6498    7.8162 H         1 ALE700      0.0000 
     16 H          -6.8069   24.0765    4.4875 H         1 ALE700      0.0000 
     17 H          -6.0505   26.2512    6.6019 H         1 ALE700      0.0000 
     18 H          -8.4562   25.9624    3.9709 H         1 ALE700      0.0000 
     19 H          -7.2203   27.0929    4.5491 H         1 ALE700      0.0000 
     20 H          -7.3995   23.8881    6.5386 H         1 ALE700      0.0000 
     21 H          -8.5525   24.3794    7.5464 H         1 ALE700      0.0000 
     22 H          -8.9334   23.9107    6.0559 H         1 ALE700      0.0000 
     23 H          -5.5889   25.8561    2.6530 H         1 ALE700      0.0000 
@<TRIPOS>BOND
     1    2    1 ar   
     2    6    1 1    
     3    7    1 ar   
     4    3    2 ar   
     5   14    2 1    
     6    4    3 ar   
     7    8    3 1    
     8    5    4 ar   
     9    9    4 1    
    10    7    5 ar   
    11   15    5 1    
    12   10    6 1    
    13   11    6 1    
    14   16    6 1    
    15   17    7 1    
    16   23   10 1    
    17   12   11 1    
    18   18   11 1    
    19   19   11 1    
    20   13   12 1    
    21   20   13 1    
    22   21   13 1    
    23   22   13 1    
@<TRIPOS>SUBSTRUCTURE
     1 ALE700      1 GROUP   
@<TRIPOS>SET

