#    Name: 2aa3_AP0_2_INTS_M
#    Modification time : Mon Mar 24 18:48:23 2014

@<TRIPOS>MOLECULE
2aa3_AP0_2_INTS_M
   83     0     9     0     0
SMALL
NO_CHARGES


@<TRIPOS>ATOM
      1 CA          0.8745  -15.7795   28.8665 C.3       3 GLC5        0.0000 
      2 CA          0.7770  -16.3580   30.9620 C.3       9 GLL5        0.0000 
      3 CA          0.9720  -15.2010   26.7710 C.3       6 GLP5        0.0000 
      4 CA         -0.7385  -15.7335   33.5055 C.3       3 GLC5        0.0000 
      5 CA          0.5360  -16.0600   32.2630 C.3       9 GLL5        0.0000 
      6 CA         -2.0130  -15.4070   34.7480 C.3       6 GLP5        0.0000 
      7 CA          1.3980  -16.5395   27.9845 C.3       3 GLC5        0.0000 
      8 CA          1.8240  -17.8780   29.1980 C.3       9 GLL5        0.0000 
      9 CA          4.9530  -19.4860   30.8705 C.3       3 GLC5        0.0000 
     10 CA          3.3860  -20.3530   32.1440 C.3       9 GLL5        0.0000 
     11 CA          6.5200  -18.6190   29.5970 C.3       6 GLP5        0.0000 
     12 CA          4.1075  -18.4235   32.4965 C.3       3 GLC5        0.0000 
     13 CA          4.8290  -16.4940   32.8490 C.3       6 GLP5        0.0000 
     14 CA          1.2775  -21.3775   33.6055 C.3       3 GLC5        0.0000 
     15 CA          3.0530  -21.6000   32.5970 C.3       9 GLL5        0.0000 
     16 CA         -0.4980  -21.1550   34.6140 C.3       6 GLP5        0.0000 
     17 N           0.7535  -21.3640   32.3900 N.am      2 SEC2        0.0000 
     18 N           1.8570  -22.2290   32.4760 N.am      8 SEL2        0.0000 
     19 N          -0.3500  -20.4990   32.3040 N.am      5 SEP2        0.0000 
     20 N           2.4335  -21.1940   35.4075 N.am      2 SEC2        0.0000 
     21 N           3.5920  -22.1050   34.7530 N.am      8 SEL2        0.0000 
     22 N           1.2750  -20.2830   36.0620 N.am      5 SEP2        0.0000 
     23 CA          4.2870  -20.1065   35.0745 C.3       3 GLC5        0.0000 
     24 CA          5.2610  -21.0500   33.3490 C.3       9 GLL5        0.0000 
     25 CA          3.3130  -19.1630   36.8000 C.3       6 GLP5        0.0000 
     26 CA          6.5600  -19.9820   31.1450 C.3       3 GLC5        0.0000 
     27 CA          6.6000  -21.3450   32.6930 C.3       9 GLL5        0.0000 
     28 N           9.7855  -20.7805   29.8620 N.am      2 SEC2        0.0000 
     29 N           8.9960  -21.5320   30.8070 N.am      8 SEL2        0.0000 
     30 N          10.5750  -20.0290   28.9170 N.am      5 SEP2        0.0000 
     31 N          10.9140  -23.7130   29.9945 N.am      2 SEC2        0.0000 
     32 N          10.0570  -24.7810   30.5470 N.am      8 SEL2        0.0000 
     33 N          11.7710  -22.6450   29.4420 N.am      5 SEP2        0.0000 
     34 CA         11.7655  -22.1755   35.9180 C.3       3 GLC5        0.0000 
     35 CA         10.8800  -24.0200   35.0940 C.3       9 GLL5        0.0000 
     36 CA         12.6510  -20.3310   36.7420 C.3       6 GLP5        0.0000 
     37 CA         12.0545  -22.4810   36.9650 C.3       3 GLC5        0.0000 
     38 CA         11.4580  -24.6310   37.1880 C.3       9 GLL5        0.0000 
     39 CA         10.2110  -23.0450   37.7800 C.3       3 GLC5        0.0000 
     40 CA          8.9640  -21.4590   38.3720 C.3       6 GLP5        0.0000 
     41 O          13.7775  -25.9510   37.1845 O.2       1 ALC1        0.0000 
     42 O          12.6660  -26.6060   36.7600 O.2       7 ALL1        0.0000 
     43 O          14.8890  -25.2960   37.6090 O.2       4 ALP1        0.0000 
     44 O          13.6535  -24.3390   35.4365 O.2       1 ALC1        0.0000 
     45 O          12.9390  -25.1230   34.5690 O.2       7 ALL1        0.0000 
     46 O          14.3680  -23.5550   36.3040 O.2       4 ALP1        0.0000 
     47 CA         12.6405  -24.8550   42.4805 C.3       3 GLC5        0.0000 
     48 CA         11.3130  -23.9830   42.0170 C.3       9 GLL5        0.0000 
     49 CA         13.9680  -25.7270   42.9440 C.3       6 GLP5        0.0000 
     50 CA          9.4300  -23.2720   42.4820 C.3       3 GLC5        0.0000 
     51 CA          7.5470  -22.5610   42.9470 C.3       6 GLP5        0.0000 
     52 O          11.2235  -24.1150   44.7770 O.2       1 ALC1        0.0000 
     53 O          10.7300  -24.4610   43.1480 O.2       7 ALL1        0.0000 
     54 O          11.7170  -23.7690   46.4060 O.2       4 ALP1        0.0000 
     55 CA         12.3735  -20.4180   41.1905 C.3       3 GLC5        0.0000 
     56 CA         12.7870  -22.5280   40.9010 C.3       9 GLL5        0.0000 
     57 CA         11.9600  -18.3080   41.4800 C.3       6 GLP5        0.0000 
     58 CA         14.4965  -22.6590   39.9215 C.3       3 GLC5        0.0000 
     59 CA         16.2060  -22.7900   38.9420 C.3       6 GLP5        0.0000 
     60 CA         13.3775  -24.1275   41.9225 C.3       3 GLC5        0.0000 
     61 CA         11.2820  -21.9145   40.2840 C.3       3 GLC5        0.0000 
     62 CA          9.7770  -21.3010   39.6670 C.3       6 GLP5        0.0000 
     63 CA          2.7428  -16.3515   32.2308 C.3       3 GLC5        0.0000 
     64 CA         -1.0953  -16.5005   31.3543 C.3       3 GLC5        0.0000 
     65 CA         -2.8470  -16.7920   31.0960 C.3       6 GLP5        0.0000 
     66 CA          3.3410  -17.2467   31.9413 C.3       3 GLC5        0.0000 
     67 CA          1.5930  -17.5670   30.5520 C.3       9 GLL5        0.0000 
     68 CA          2.1919  -15.3490   30.8131 C.3       3 GLC5        0.0000 
     69 CA          3.2590  -13.8100   30.5440 C.3       6 GLP5        0.0000 
     70 CA          3.2087  -17.5973   27.5433 C.3       3 GLC5        0.0000 
     71 CA          4.2330  -16.7360   26.0640 C.3       6 GLP5        0.0000 
     72 CA          4.6642  -19.0310   29.4775 C.3       3 GLC5        0.0000 
     73 CA          2.5450  -19.0390   28.8470 C.3       9 GLL5        0.0000 
     74 CA          7.3513  -19.9367   33.7640 C.3       3 GLC5        0.0000 
     75 CA          8.7720  -18.6760   34.5070 C.3       6 GLP5        0.0000 
     76 CA         11.9259  -23.8529   33.1833 C.3       3 GLC5        0.0000 
     77 CA          9.6110  -23.9550   34.2440 C.3       9 GLL5        0.0000 
     78 CA         12.9350  -23.0340   31.5450 C.3       6 GLP5        0.0000 
     79 CA         12.4138  -25.5665   40.4703 C.3       3 GLC5        0.0000 
     80 CA         11.5850  -24.0780   39.6190 C.3       9 GLL5        0.0000 
     81 CA         13.5500  -26.8190   40.7350 C.3       6 GLP5        0.0000 
     82 CA         10.5701  -22.7366   40.0894 C.3       3 GLC5        0.0000 
     83 CA         10.9700  -24.5500   40.7920 C.3       9 GLL5        0.0000 
@<TRIPOS>BOND
@<TRIPOS>SUBSTRUCTURE
     1 ALC1       41 GROUP        1 X    ALC  0     ROOT ALC X 1
     2 SEC2       17 GROUP        1 X    SEC  0     **** SEC X 2
     3 GLC5        1 GROUP        1 X    GLC  0     **** GLC X 6
     4 ALP1       43 GROUP        1 Y    ALP  0     ROOT ALP Y 8
     5 SEP2       19 GROUP        1 Y    SEP  0     **** SEP Y 9
     6 GLP5        3 GROUP        1 Y    GLP  0     **** GLP Y 13
     7 ALL1       42 GROUP        1 Z    ALL  0     ROOT ALL Z 15
     8 SEL2       18 GROUP        1 Z    SEL  0     **** SEL Z 16
     9 GLL5        2 GROUP        1 Z    GLL  0     **** GLL Z 20
@<TRIPOS>SET

