#    Name: 2aa3_AP0_2_ligand
#    Modification time : Mon Mar 24 18:48:24 2014

@<TRIPOS>MOLECULE
2aa3_AP0_2_ligand
   74    78     1     0     0
SMALL
NO_CHARGES


@<TRIPOS>ATOM
      1 O7N         0.2970  -15.6440   30.1020 O.3       1 AP01407     0.0000 
      2 C7N         0.7770  -16.3580   30.9620 C.3       1 AP01407     0.0000 
      3 C8N         0.5360  -16.0600   32.2630 C.3       1 AP01407     0.0000 
      4 C3N         1.5930  -17.5670   30.5520 C.2       1 AP01407     0.0000 
      5 C4N         1.8240  -17.8780   29.1980 C.3       1 AP01407     0.0000 
      6 C5N         2.5450  -19.0390   28.8470 C.2       1 AP01407     0.0000 
      7 C6N         3.0720  -19.8470   29.8690 C.2       1 AP01407     0.0000 
      8 C2N         2.1130  -18.4320   31.5150 C.2       1 AP01407     0.0000 
      9 N1N         2.8080  -19.5390   31.1820 N.pl3     1 AP01407     0.0000 
     10 C1D         3.3860  -20.3530   32.1440 C.3       1 AP01407     0.0000 
     11 C2D         3.0530  -21.6000   32.5970 C.3       1 AP01407     0.0000 
     12 O2D         1.8570  -22.2290   32.4760 O.3       1 AP01407     0.0000 
     13 C3D         4.1700  -22.1520   33.4220 C.3       1 AP01407     0.0000 
     14 O3D         3.5920  -22.1050   34.7530 O.3       1 AP01407     0.0000 
     15 O4D         4.6590  -19.9140   32.7080 O.3       1 AP01407     0.0000 
     16 C4D         5.2610  -21.0500   33.3490 C.3       1 AP01407     0.0000 
     17 C5D         6.6000  -21.3450   32.6930 C.3       1 AP01407     0.0000 
     18 O5D         6.5130  -21.6960   31.3020 O.3       1 AP01407     0.0000 
     19 PN          7.7300  -22.4050   30.6560 P.3       1 AP01407     0.0000 
     20 O1N         7.3100  -22.8340   29.3000 O.co2     1 AP01407     0.0000 
     21 O2N         8.9960  -21.5320   30.8070 O.co2     1 AP01407     0.0000 
     22 O3          7.8770  -23.7660   31.6110 O.3       1 AP01407     0.0000 
     23 PA          9.2100  -24.6950   31.7680 P.3       1 AP01407     0.0000 
     24 O1A        10.0570  -24.7810   30.5470 O.co2     1 AP01407     0.0000 
     25 O2A         8.8300  -25.9580   32.5230 O.co2     1 AP01407     0.0000 
     26 O5B        10.0300  -23.8840   32.8680 O.3       1 AP01407     0.0000 
     27 C5B         9.6110  -23.9550   34.2440 C.3       1 AP01407     0.0000 
     28 C4B        10.8800  -24.0200   35.0940 C.3       1 AP01407     0.0000 
     29 O4B        10.5450  -23.8260   36.4570 O.3       1 AP01407     0.0000 
     30 C1B        11.4580  -24.6310   37.1880 C.3       1 AP01407     0.0000 
     31 C2B        11.5090  -25.9100   36.3910 C.3       1 AP01407     0.0000 
     32 O2B        12.6660  -26.6060   36.7600 O.3       1 AP01407     0.0000 
     33 C3B        11.5880  -25.3560   34.9740 C.3       1 AP01407     0.0000 
     34 O3B        12.9390  -25.1230   34.5690 O.3       1 AP01407     0.0000 
     35 N9A        11.0780  -24.8010   38.5990 N.pl3     1 AP01407     0.0000 
     36 C8A        10.2090  -25.7100   39.0960 C.2       1 AP01407     0.0000 
     37 N7A        10.1370  -25.5540   40.4420 N.2       1 AP01407     0.0000 
     38 C5A        10.9700  -24.5500   40.7920 C.ar      1 AP01407     0.0000 
     39 C6A        11.3130  -23.9830   42.0170 C.ar      1 AP01407     0.0000 
     40 N6A        10.7300  -24.4610   43.1480 N.pl3     1 AP01407     0.0000 
     41 C4A        11.5850  -24.0780   39.6190 C.ar      1 AP01407     0.0000 
     42 N3A        12.5020  -23.0600   39.7010 N.ar      1 AP01407     0.0000 
     43 C2A        12.7870  -22.5280   40.9010 C.ar      1 AP01407     0.0000 
     44 N1A        12.2000  -22.9630   42.0510 N.ar      1 AP01407     0.0000 
     45 H           1.9907  -15.5854   30.9911 H         1 AP01407     0.0000 
     46 H           2.3209  -16.9669   28.6877 H         1 AP01407     0.0000 
     47 H           0.8099  -17.8915   28.6423 H         1 AP01407     0.0000 
     48 H           2.6795  -19.2844   27.8715 H         1 AP01407     0.0000 
     49 H           3.6486  -20.6586   29.6219 H         1 AP01407     0.0000 
     50 H           1.9478  -18.1971   32.5238 H         1 AP01407     0.0000 
     51 H           2.7151  -19.7158   33.2104 H         1 AP01407     0.0000 
     52 H           3.6114  -22.2117   31.4546 H         1 AP01407     0.0000 
     53 H           4.4873  -23.0304   33.1141 H         1 AP01407     0.0000 
     54 H           5.4635  -20.7456   34.4107 H         1 AP01407     0.0000 
     55 H           7.0894  -22.1588   33.2777 H         1 AP01407     0.0000 
     56 H           7.2497  -20.4501   32.8365 H         1 AP01407     0.0000 
     57 H           9.0263  -24.8454   34.4409 H         1 AP01407     0.0000 
     58 H           9.0508  -23.0763   34.5396 H         1 AP01407     0.0000 
     59 H          11.5566  -23.2458   34.7539 H         1 AP01407     0.0000 
     60 H          12.4578  -24.1808   37.1174 H         1 AP01407     0.0000 
     61 H          10.6086  -26.4167   36.5139 H         1 AP01407     0.0000 
     62 H          11.0404  -25.9715   34.3284 H         1 AP01407     0.0000 
     63 H           9.7192  -26.3635   38.5805 H         1 AP01407     0.0000 
     64 H          11.0267  -24.0428   44.0065 H         1 AP01407     0.0000 
     65 H          10.0558  -25.1887   43.0217 H         1 AP01407     0.0000 
     66 H          13.4919  -21.7422   40.9641 H         1 AP01407     0.0000 
     67 H           0.9784  -16.7099   32.8810 H         1 AP01407     0.0000 
     68 H           0.8733  -15.1501   32.5042 H         1 AP01407     0.0000 
     69 H          -0.4417  -16.0752   32.4725 H         1 AP01407     0.0000 
     70 H           1.2913  -15.5987   30.0049 H         1 AP01407     0.0000 
     71 H           1.7140  -22.3257   31.4910 H         1 AP01407     0.0000 
     72 H           4.3428  -22.3418   35.3696 H         1 AP01407     0.0000 
     73 H          13.3194  -25.8980   37.0281 H         1 AP01407     0.0000 
     74 H          13.3348  -24.5643   35.2978 H         1 AP01407     0.0000 
@<TRIPOS>BOND
     1    2    1 1    
     2   70    1 1    
     3    3    2 1    
     4    4    2 1    
     5   45    2 1    
     6   67    3 1    
     7   68    3 1    
     8   69    3 1    
     9    5    4 1    
    10    8    4 2    
    11    6    5 1    
    12   46    5 1    
    13   47    5 1    
    14    7    6 2    
    15   48    6 1    
    16    9    7 1    
    17   49    7 1    
    18    9    8 1    
    19   50    8 1    
    20   10    9 1    
    21   11   10 1    
    22   15   10 1    
    23   51   10 1    
    24   12   11 1    
    25   13   11 1    
    26   52   11 1    
    27   71   12 1    
    28   14   13 1    
    29   16   13 1    
    30   53   13 1    
    31   72   14 1    
    32   16   15 1    
    33   17   16 1    
    34   54   16 1    
    35   18   17 1    
    36   55   17 1    
    37   56   17 1    
    38   19   18 1    
    39   20   19 ar   
    40   21   19 ar   
    41   22   19 1    
    42   23   22 1    
    43   24   23 ar   
    44   25   23 ar   
    45   26   23 1    
    46   27   26 1    
    47   28   27 1    
    48   57   27 1    
    49   58   27 1    
    50   29   28 1    
    51   33   28 1    
    52   59   28 1    
    53   30   29 1    
    54   31   30 1    
    55   35   30 1    
    56   60   30 1    
    57   32   31 1    
    58   33   31 1    
    59   61   31 1    
    60   73   32 1    
    61   34   33 1    
    62   62   33 1    
    63   74   34 1    
    64   36   35 1    
    65   41   35 1    
    66   37   36 2    
    67   63   36 1    
    68   38   37 1    
    69   39   38 ar   
    70   41   38 ar   
    71   40   39 1    
    72   44   39 ar   
    73   64   40 1    
    74   65   40 1    
    75   42   41 ar   
    76   43   42 ar   
    77   44   43 ar   
    78   66   43 1    
@<TRIPOS>SUBSTRUCTURE
     1 AP01407     1 GROUP   
@<TRIPOS>SET

