#    Name: 4mfb_29T_1_INTS_M
#    Modification time : Tue Apr  8 00:17:58 2014

@<TRIPOS>MOLECULE
4mfb_29T_1_INTS_M
   56     0     6     0     0
SMALL
NO_CHARGES


@<TRIPOS>ATOM
      1 CA        498.1525  -23.5750   28.1045 C.3       2 GLC5        0.0000 
      2 CA        497.0350  -24.7960   28.7870 C.3       6 GLL5        0.0000 
      3 CA        499.2700  -22.3540   27.4220 C.3       4 GLP5        0.0000 
      4 CA        496.3665  -26.4865   29.3685 C.3       2 GLC5        0.0000 
      5 CA        495.6980  -28.1770   29.9500 C.3       4 GLP5        0.0000 
      6 CA        495.6405  -23.1380   17.8585 C.3       2 GLC5        0.0000 
      7 CA        495.4090  -24.5640   19.3540 C.3       6 GLL5        0.0000 
      8 CA        495.8720  -21.7120   16.3630 C.3       4 GLP5        0.0000 
      9 CA        498.4820  -24.5075   20.0220 C.3       2 GLC5        0.0000 
     10 CA        496.4720  -24.1530   20.1880 C.3       6 GLL5        0.0000 
     11 CA        500.4920  -24.8620   19.8560 C.3       4 GLP5        0.0000 
     12 CA        493.0850  -19.6730   24.9085 C.3       2 GLC5        0.0000 
     13 CA        493.8660  -21.5940   24.7950 C.3       6 GLL5        0.0000 
     14 CA        492.3040  -17.7520   25.0220 C.3       4 GLP5        0.0000 
     15 CA        489.7610  -28.2095   22.6795 C.3       2 GLC5        0.0000 
     16 CA        491.0460  -27.1480   22.0520 C.3       6 GLL5        0.0000 
     17 CA        488.4760  -29.2710   23.3070 C.3       4 GLP5        0.0000 
     18 CA        494.5230  -29.1510   26.1000 C.3       2 GLC5        0.0000 
     19 CA        493.1060  -29.0530   24.5080 C.3       6 GLL5        0.0000 
     20 CA        495.9400  -29.2490   27.6920 C.3       4 GLP5        0.0000 
     21 CA        490.4430  -28.2215   24.1180 C.3       2 GLC5        0.0000 
     22 CA        492.3700  -28.0890   23.8970 C.3       6 GLL5        0.0000 
     23 CA        488.5160  -28.3540   24.3390 C.3       4 GLP5        0.0000 
     24 N         491.7310  -29.6305   19.2855 N.am      1 SEC2        0.0000 
     25 N         491.6180  -29.7350   20.8070 N.am      5 SEL2        0.0000 
     26 N         491.8440  -29.5260   17.7640 N.am      3 SEP2        0.0000 
     27 CA        497.1310  -23.5995   24.8862 C.3       2 GLC5        0.0000 
     28 CA        496.1310  -24.7930   26.4450 C.3       6 GLL5        0.0000 
     29 CA        498.5150  -22.8530   23.7290 C.3       4 GLP5        0.0000 
     30 CA        498.1239  -25.5575   27.5119 C.3       2 GLC5        0.0000 
     31 CA        499.6180  -26.4770   27.0950 C.3       4 GLP5        0.0000 
     32 CA        495.5031  -23.8047   29.7461 C.3       2 GLC5        0.0000 
     33 CA        494.4890  -23.4330   31.2570 C.3       4 GLP5        0.0000 
     34 CA        494.3807  -26.1792   18.0707 C.3       2 GLC5        0.0000 
     35 CA        494.2320  -25.1130   19.8970 C.3       6 GLL5        0.0000 
     36 CA        493.9410  -27.5200   16.5160 C.3       4 GLP5        0.0000 
     37 CA        494.8375  -26.9737   20.9977 C.3       2 GLC5        0.0000 
     38 CA        495.5040  -28.7660   21.3940 C.3       4 GLP5        0.0000 
     39 CA        497.0037  -25.7572   18.9220 C.3       2 GLC5        0.0000 
     40 CA        498.0670  -27.1560   18.0730 C.3       4 GLP5        0.0000 
     41 CA        496.3937  -26.1388   22.4790 C.3       2 GLC5        0.0000 
     42 CA        496.3640  -24.2850   21.5850 C.3       6 GLL5        0.0000 
     43 CA        497.0150  -27.7190   23.0910 C.3       4 GLP5        0.0000 
     44 CA        497.1572  -23.6893   22.6234 C.3       2 GLC5        0.0000 
     45 CA        495.1810  -24.8320   22.1490 C.3       6 GLL5        0.0000 
     46 CA        496.4828  -23.0703   23.9177 C.3       2 GLC5        0.0000 
     47 CA        494.0810  -22.7120   23.9010 C.3       6 GLL5        0.0000 
     48 CA        492.3746  -22.9269   24.1669 C.3       2 GLC5        0.0000 
     49 CA        494.8200  -23.8630   24.3120 C.3       6 GLL5        0.0000 
     50 CA        490.5910  -23.4130   23.8830 C.3       4 GLP5        0.0000 
     51 CA        490.3173  -25.1310   21.7132 C.3       2 GLC5        0.0000 
     52 CA        491.8330  -26.1500   21.1730 C.3       6 GLL5        0.0000 
     53 CA        489.1950  -23.6130   21.8140 C.3       4 GLP5        0.0000 
     54 CA        494.1210  -28.6685   22.7982 C.3       2 GLC5        0.0000 
     55 CA        492.2155  -28.1340   26.1148 C.3       2 GLC5        0.0000 
     56 CA        491.6930  -27.6970   28.0270 C.3       4 GLP5        0.0000 
@<TRIPOS>BOND
@<TRIPOS>SUBSTRUCTURE
     1 SEC2       24 GROUP        1 X    SEC  0     ROOT SEC X 2
     2 GLC5        1 GROUP        1 X    GLC  0     **** GLC X 6
     3 SEP2       26 GROUP        1 Y    SEP  0     ROOT SEP Y 9
     4 GLP5        3 GROUP        1 Y    GLP  0     **** GLP Y 13
     5 SEL2       25 GROUP        1 Z    SEL  0     ROOT SEL Z 16
     6 GLL5        2 GROUP        1 Z    GLL  0     **** GLL Z 20
@<TRIPOS>SET

