#    Name: 4mfb_29T_1_ligand
#    Modification time : Tue Apr  8 00:17:58 2014

@<TRIPOS>MOLECULE
4mfb_29T_1_ligand
   45    48     1     0     0
SMALL
NO_CHARGES


@<TRIPOS>ATOM
      1 C10       496.1310  -24.7930   26.4450 C.2       1 29T601      0.0000 
      2 C11       495.6810  -22.9470   27.6710 C.2       1 29T601      0.0000 
      3 C14       496.3180  -24.1670   27.6960 C.2       1 29T601      0.0000 
      4 C16       497.0350  -24.7960   28.7870 C.1       1 29T601      0.0000 
      5 C00       494.2320  -25.1130   19.8970 C.ar      1 29T601      0.0000 
      6 C01       495.4090  -24.5640   19.3540 C.ar      1 29T601      0.0000 
      7 C02       496.4720  -24.1530   20.1880 C.ar      1 29T601      0.0000 
      8 C03       496.3640  -24.2850   21.5850 C.ar      1 29T601      0.0000 
      9 C04       495.1810  -24.8320   22.1490 C.ar      1 29T601      0.0000 
     10 C05       494.1100  -25.2500   21.3060 C.ar      1 29T601      0.0000 
     11 O0A       495.0700  -24.9660   23.5160 O.3       1 29T601      0.0000 
     12 C0C       494.8200  -23.8630   24.3120 C.2       1 29T601      0.0000 
     13 C0V       495.3630  -23.8990   25.6420 C.2       1 29T601      0.0000 
     14 N0W       495.1040  -22.7700   26.4270 N.pl3     1 29T601      0.0000 
     15 C0X       494.3870  -21.6510   26.0450 C.2       1 29T601      0.0000 
     16 C0Y       493.8660  -21.5940   24.7950 C.2       1 29T601      0.0000 
     17 C0Z       494.0810  -22.7120   23.9010 C.2       1 29T601      0.0000 
     18 N19       497.5950  -25.3120   29.6550 N.1       1 29T601      0.0000 
     19 O0B       492.9930  -25.7790   21.9150 O.3       1 29T601      0.0000 
     20 C0D       491.8330  -26.1500   21.1730 C.3       1 29T601      0.0000 
     21 C0E       491.0460  -27.1480   22.0520 C.3       1 29T601      0.0000 
     22 N0H       491.8300  -28.2930   22.5930 N.am      1 29T601      0.0000 
     23 C0K       492.0490  -29.4830   21.9280 C.2       1 29T601      0.0000 
     24 N0M       492.7870  -30.4140   22.5860 N.am      1 29T601      0.0000 
     25 C0N       493.3430  -30.3210   23.8180 C.2       1 29T601      0.0000 
     26 C0O       493.1060  -29.0530   24.5080 C.2       1 29T601      0.0000 
     27 C0P       492.3700  -28.0890   23.8970 C.2       1 29T601      0.0000 
     28 O0Q       491.6180  -29.7350   20.8070 O.2       1 29T601      0.0000 
     29 O0S       493.9920  -31.2470   24.2960 O.2       1 29T601      0.0000 
     30 H         496.4449  -25.6282   26.1855 H         1 29T601      0.0000 
     31 H         495.6419  -22.3216   28.3939 H         1 29T601      0.0000 
     32 H         493.4721  -25.4108   19.2910 H         1 29T601      0.0000 
     33 H         495.4981  -24.4597   18.3342 H         1 29T601      0.0000 
     34 H         497.3201  -23.7594   19.7744 H         1 29T601      0.0000 
     35 H         497.1262  -23.9918   22.1925 H         1 29T601      0.0000 
     36 H         494.2573  -20.8765   26.7117 H         1 29T601      0.0000 
     37 H         493.3294  -20.8019   24.4523 H         1 29T601      0.0000 
     38 H         493.6918  -22.6688   22.9559 H         1 29T601      0.0000 
     39 H         492.0787  -26.6534   20.2471 H         1 29T601      0.0000 
     40 H         491.1836  -25.3077   20.9736 H         1 29T601      0.0000 
     41 H         490.1904  -27.5270   21.4494 H         1 29T601      0.0000 
     42 H         490.5893  -26.5737   22.8889 H         1 29T601      0.0000 
     43 H         492.9527  -31.3572   22.0533 H         1 29T601      0.0000 
     44 H         493.5093  -28.9402   25.4364 H         1 29T601      0.0000 
     45 H         492.1815  -27.1824   24.3600 H         1 29T601      0.0000 
@<TRIPOS>BOND
     1    3    1 1    
     2   13    1 2    
     3   30    1 1    
     4    3    2 2    
     5   14    2 1    
     6   31    2 1    
     7    4    3 1    
     8   18    4 3    
     9    6    5 ar   
    10   10    5 ar   
    11   32    5 1    
    12    7    6 ar   
    13   33    6 1    
    14    8    7 ar   
    15   34    7 1    
    16    9    8 ar   
    17   35    8 1    
    18   10    9 ar   
    19   11    9 1    
    20   19   10 1    
    21   12   11 1    
    22   13   12 1    
    23   17   12 2    
    24   14   13 1    
    25   15   14 1    
    26   16   15 2    
    27   36   15 1    
    28   17   16 1    
    29   37   16 1    
    30   38   17 1    
    31   20   19 1    
    32   21   20 1    
    33   39   20 1    
    34   40   20 1    
    35   22   21 1    
    36   41   21 1    
    37   42   21 1    
    38   23   22 am   
    39   27   22 1    
    40   24   23 am   
    41   28   23 2    
    42   25   24 am   
    43   43   24 1    
    44   26   25 1    
    45   29   25 2    
    46   27   26 2    
    47   44   26 1    
    48   45   27 1    
@<TRIPOS>SUBSTRUCTURE
     1 29T601      1 GROUP   
@<TRIPOS>SET

