#    Name: 4l17_DNQ_2_ligand
#    Modification time : Mon Apr  7 23:50:31 2014

@<TRIPOS>MOLECULE
4l17_DNQ_2_ligand
   20    21     1     0     0
SMALL
NO_CHARGES


@<TRIPOS>ATOM
      1 O1         -5.9920   46.6740   77.0460 O.2       1 DNQ301      0.0000 
      2 O2         -3.6340   47.4310   75.7650 O.2       1 DNQ301      0.0000 
      3 C1         -4.8840   45.8520   77.0840 C.2       1 DNQ301      0.0000 
      4 C2         -3.7020   46.2270   76.4410 C.2       1 DNQ301      0.0000 
      5 N1         -4.9550   44.6030   77.7880 N.2       1 DNQ301      0.0000 
      6 N2         -2.6260   45.4110   76.4840 N.2       1 DNQ301      0.0000 
      7 C3         -3.8770   43.7930   77.8280 C.ar      1 DNQ301      0.0000 
      8 C4         -2.7000   44.1630   77.1900 C.ar      1 DNQ301      0.0000 
      9 C5         -3.9510   42.5460   78.5300 C.ar      1 DNQ301      0.0000 
     10 C6         -1.5440   43.2890   77.2370 C.ar      1 DNQ301      0.0000 
     11 C7         -2.7980   41.6640   78.5810 C.ar      1 DNQ301      0.0000 
     12 C8         -1.6150   42.0310   77.9470 C.ar      1 DNQ301      0.0000 
     13 N3         -2.9320   40.4370   79.3200 N.pl3     1 DNQ301      0.0000 
     14 N4         -0.4440   41.1540   77.9630 N.pl3     1 DNQ301      0.0000 
     15 O3         -1.9170   39.9400   79.9710 O.2       1 DNQ301      0.0000 
     16 O4          0.7460   41.6720   77.8110 O.2       1 DNQ301      0.0000 
     17 O5         -4.1200   39.9050   79.4740 O.2       1 DNQ301      0.0000 
     18 O6         -0.5910   39.8460   77.9390 O.2       1 DNQ301      0.0000 
     19 H          -4.8076   42.2704   78.9957 H         1 DNQ301      0.0000 
     20 H          -0.6893   43.5604   76.7731 H         1 DNQ301      0.0000 
@<TRIPOS>BOND
     1    3    1 2    
     2    4    2 2    
     3    4    3 1    
     4    5    3 1    
     5    6    4 1    
     6    7    5 2    
     7    8    6 2    
     8    8    7 ar   
     9    9    7 ar   
    10   10    8 ar   
    11   11    9 ar   
    12   19    9 1    
    13   12   10 ar   
    14   20   10 1    
    15   12   11 ar   
    16   13   11 1    
    17   14   12 1    
    18   15   13 2    
    19   17   13 2    
    20   16   14 2    
    21   18   14 2    
@<TRIPOS>SUBSTRUCTURE
     1 DNQ301      1 GROUP   
@<TRIPOS>SET

