#    Name: 4h6o_NEE_1_INTS_M
#    Modification time : Tue Mar 25 00:28:07 2014

@<TRIPOS>MOLECULE
4h6o_NEE_1_INTS_M
   39     0     3     0     0
SMALL
NO_CHARGES


@<TRIPOS>ATOM
      1 CA         -2.9040   25.9445   16.4190 C.3       1 GLC5        0.0000 
      2 CA         -3.0980   27.6360   15.7350 C.3       3 GLL5        0.0000 
      3 CA         -2.7100   24.2530   17.1030 C.3       2 GLP5        0.0000 
      4 CA         -4.8530   26.9230   15.0130 C.3       1 GLC5        0.0000 
      5 CA         -6.6080   26.2100   14.2910 C.3       2 GLP5        0.0000 
      6 CA         -5.0295   29.8320   16.6090 C.3       1 GLC5        0.0000 
      7 CA         -3.8590   30.4320   15.2640 C.3       3 GLL5        0.0000 
      8 CA         -6.2000   29.2320   17.9540 C.3       2 GLP5        0.0000 
      9 CA         -5.0300   31.9515   14.5995 C.3       1 GLC5        0.0000 
     10 CA         -6.2010   33.4710   13.9350 C.3       2 GLP5        0.0000 
     11 CA         -2.9620   33.6860   16.4865 C.3       1 GLC5        0.0000 
     12 CA         -1.7690   32.2180   16.4730 C.3       3 GLL5        0.0000 
     13 CA         -4.1550   35.1540   16.5000 C.3       2 GLP5        0.0000 
     14 CA          4.3975   22.9545   18.2410 C.3       1 GLC5        0.0000 
     15 CA          2.7690   24.2440   18.2430 C.3       3 GLL5        0.0000 
     16 CA          6.0260   21.6650   18.2390 C.3       2 GLP5        0.0000 
     17 CA         -2.3083   28.5740   14.1487 C.3       1 GLC5        0.0000 
     18 CA         -2.1950   28.5640   16.2480 C.3       3 GLL5        0.0000 
     19 CA         -1.9700   29.0480   12.3060 C.3       2 GLP5        0.0000 
     20 CA         -3.8496   28.9857   17.5361 C.3       1 GLC5        0.0000 
     21 CA         -5.1580   28.9600   19.0290 C.3       2 GLP5        0.0000 
     22 CA         -2.5587   29.6127   13.9927 C.3       1 GLC5        0.0000 
     23 CA         -2.4360   29.9230   16.0950 C.3       3 GLL5        0.0000 
     24 CA         -1.3722   31.6493   18.4330 C.3       1 GLC5        0.0000 
     25 CA         -1.0900   31.7620   20.3230 C.3       2 GLP5        0.0000 
     26 CA          0.1914   32.1204   16.0282 C.3       1 GLC5        0.0000 
     27 CA         -0.4040   30.4190   17.2780 C.3       3 GLL5        0.0000 
     28 CA          1.4120   33.2630   15.1460 C.3       2 GLP5        0.0000 
     29 CA         -0.6858   30.7503   18.8412 C.3       1 GLC5        0.0000 
     30 CA          2.8320   28.1040   18.6943 C.3       1 GLC5        0.0000 
     31 CA          0.9280   27.4050   18.6110 C.3       3 GLL5        0.0000 
     32 CA          4.2730   29.2740   18.9950 C.3       2 GLP5        0.0000 
     33 CA          5.1835   27.2130   19.4455 C.3       1 GLC5        0.0000 
     34 CA          4.9870   25.2210   18.8740 C.3       3 GLL5        0.0000 
     35 CA          4.8880   28.8800   20.3290 C.3       2 GLP5        0.0000 
     36 CA          7.1855   25.1450   19.2820 C.3       1 GLC5        0.0000 
     37 CA          5.9710   25.8710   18.2500 C.3       3 GLL5        0.0000 
     38 CA          8.8920   24.7440   20.0020 C.3       2 GLP5        0.0000 
     39 CA          5.7525   23.6055   18.4005 C.3       1 GLC5        0.0000 
@<TRIPOS>BOND
@<TRIPOS>SUBSTRUCTURE
     1 GLC5        1 GROUP        1 X    GLC  0     ROOT GLC X 6
     2 GLP5        3 GROUP        1 Y    GLP  0     ROOT GLP Y 13
     3 GLL5        2 GROUP        1 Z    GLL  0     ROOT GLL Z 20
@<TRIPOS>SET

