#    Name: 4h6o_NEE_1_ligand
#    Modification time : Tue Mar 25 00:28:07 2014

@<TRIPOS>MOLECULE
4h6o_NEE_1_ligand
   39    41     1     0     0
SMALL
NO_CHARGES


@<TRIPOS>ATOM
      1 CAA        -3.0980   27.6360   15.7350 C.3       1 NEE502      0.0000 
      2 CAP        -2.1950   28.5640   16.2480 C.ar      1 NEE502      0.0000 
      3 CAJ        -1.0580   28.1310   16.9200 C.ar      1 NEE502      0.0000 
      4 CAU        -2.4360   29.9230   16.0950 C.ar      1 NEE502      0.0000 
      5 CL1        -3.8590   30.4320   15.2640 Cl        1 NEE502      0.0000 
      6 CAQ        -1.5400   30.8550   16.6130 C.ar      1 NEE502      0.0000 
      7 CAB        -1.7690   32.2180   16.4730 C.3       1 NEE502      0.0000 
      8 CAK        -0.4040   30.4190   17.2780 C.ar      1 NEE502      0.0000 
      9 CAT        -0.1590   29.0580   17.4410 C.ar      1 NEE502      0.0000 
     10 OAO         0.9740   28.6650   18.0980 O.3       1 NEE502      0.0000 
     11 CAS         0.9280   27.4050   18.6110 C.ar      1 NEE502      0.0000 
     12 CAL         1.8540   26.4630   18.1760 C.ar      1 NEE502      0.0000 
     13 CAG        -0.0070   27.0570   19.5820 C.ar      1 NEE502      0.0000 
     14 CAD        -0.0170   25.7630   20.1000 C.ar      1 NEE502      0.0000 
     15 CAF         0.9030   24.8170   19.6600 C.ar      1 NEE502      0.0000 
     16 CAR         1.8390   25.1700   18.6920 C.ar      1 NEE502      0.0000 
     17 CAM         2.7690   24.2440   18.2430 C.3       1 NEE502      0.0000 
     18 NAV         4.0420   24.9500   17.9710 N.pl3     1 NEE502      0.0000 
     19 CAH         4.9870   25.2210   18.8740 C.2       1 NEE502      0.0000 
     20 CAE         5.9710   25.8710   18.2500 C.2       1 NEE502      0.0000 
     21 NAN         5.6350   25.9990   16.9600 N.2       1 NEE502      0.0000 
     22 CAI         4.4400   25.4340   16.7900 C.2       1 NEE502      0.0000 
     23 H          -0.8793   27.1242   17.0333 H         1 NEE502      0.0000 
     24 H           0.2667   31.1065   17.6560 H         1 NEE502      0.0000 
     25 H           2.5559   26.7230   17.4673 H         1 NEE502      0.0000 
     26 H          -0.6861   27.7495   19.9154 H         1 NEE502      0.0000 
     27 H          -0.7137   25.5057   20.8164 H         1 NEE502      0.0000 
     28 H           0.8922   23.8678   20.0450 H         1 NEE502      0.0000 
     29 H           2.4446   23.7450   17.3167 H         1 NEE502      0.0000 
     30 H           2.9621   23.4551   18.9864 H         1 NEE502      0.0000 
     31 H           4.9624   24.9878   19.8123 H         1 NEE502      0.0000 
     32 H           6.7884   26.1955   18.6571 H         1 NEE502      0.0000 
     33 H           3.9455   25.3820   15.9592 H         1 NEE502      0.0000 
     34 H          -2.6680   27.0302   15.0656 H         1 NEE502      0.0000 
     35 H          -3.4812   27.0547   16.4528 H         1 NEE502      0.0000 
     36 H          -3.8672   28.0807   15.2762 H         1 NEE502      0.0000 
     37 H          -1.0451   32.7618   16.8977 H         1 NEE502      0.0000 
     38 H          -1.8145   32.4902   15.5118 H         1 NEE502      0.0000 
     39 H          -2.6311   32.4953   16.8972 H         1 NEE502      0.0000 
@<TRIPOS>BOND
     1    2    1 1    
     2   34    1 1    
     3   35    1 1    
     4   36    1 1    
     5    3    2 ar   
     6    4    2 ar   
     7    9    3 ar   
     8   23    3 1    
     9    5    4 1    
    10    6    4 ar   
    11    7    6 1    
    12    8    6 ar   
    13   37    7 1    
    14   38    7 1    
    15   39    7 1    
    16    9    8 ar   
    17   24    8 1    
    18   10    9 1    
    19   11   10 1    
    20   12   11 ar   
    21   13   11 ar   
    22   16   12 ar   
    23   25   12 1    
    24   14   13 ar   
    25   26   13 1    
    26   15   14 ar   
    27   27   14 1    
    28   16   15 ar   
    29   28   15 1    
    30   17   16 1    
    31   18   17 1    
    32   29   17 1    
    33   30   17 1    
    34   19   18 1    
    35   22   18 1    
    36   20   19 2    
    37   31   19 1    
    38   21   20 1    
    39   32   20 1    
    40   22   21 2    
    41   33   22 1    
@<TRIPOS>SUBSTRUCTURE
     1 NEE502      1 GROUP   
@<TRIPOS>SET

