#    Name: 4HZT_1_CAVITY_N1_ALL.mol2
#    Modification time : Tue Mar 11 03:51:17 2014

@<TRIPOS>MOLECULE
4HZT_1_CAVITY_N1_ALL.mol2
   95     0     6     0     0
SMALL
NO_CHARGES


@<TRIPOS>ATOM
      1 N           6.6059  -15.0112    4.1704 N.2       2 ALA2        0.0000 
      2 N           5.4938  -15.2073    5.1578 N.2       2 ALA2        0.0000 
      3 N           8.9068  -13.9265    4.6986 N.2       2 ALA2        0.0000 
      4 N           7.7948  -14.1225    5.6859 N.2       2 ALA2        0.0000 
      5 N           6.6827  -14.3186    6.6733 N.2       2 ALA2        0.0000 
      6 CA          8.7039  -15.3239    4.1925 C.3       5 GLY6        0.0000 
      7 N           7.5919  -15.5200    5.1799 N.2       2 ALA2        0.0000 
      8 CA          6.4798  -15.7160    6.1673 C.3       5 GLY6        0.0000 
      9 CZ         10.0957  -13.0378    6.2141 C.ar      4 PHE5        0.0000 
     10 CZ          8.9837  -13.2339    7.2014 C.ar      4 PHE5        0.0000 
     11 N           7.8716  -13.4299    8.1888 N.2       2 ALA2        0.0000 
     12 CA          9.8928  -14.4352    5.7080 C.3       5 GLY6        0.0000 
     13 DU          8.7808  -14.6313    6.6954 H         6 CUB7        0.0000 
     14 N           7.6687  -14.8274    7.6828 N.2       2 ALA2        0.0000 
     15 CA          6.5567  -15.0234    8.6701 C.3       5 GLY6        0.0000 
     16 N           9.6899  -15.8326    5.2020 N.2       2 ALA2        0.0000 
     17 DU          8.5778  -16.0287    6.1894 H         6 CUB7        0.0000 
     18 CA          7.4658  -16.2248    7.1767 C.3       5 GLY6        0.0000 
     19 N           8.3749  -17.4261    5.6833 N.2       2 ALA2        0.0000 
     20 CZ         11.2846  -12.1491    7.7296 C.ar      4 PHE5        0.0000 
     21 CZ          9.0605  -12.5413    9.7043 C.ar      4 PHE5        0.0000 
     22 CZ         12.1938  -13.3504    6.2362 C.ar      4 PHE5        0.0000 
     23 CZ         11.0817  -13.5465    7.2235 C.ar      4 PHE5        0.0000 
     24 CZ          9.9697  -13.7426    8.2109 C.ar      4 PHE5        0.0000 
     25 CZ          8.8576  -13.9387    9.1983 C.ar      4 PHE5        0.0000 
     26 O          11.9908  -14.7479    5.7301 O.2       2 ALA2        0.0000 
     27 O          10.8788  -14.9439    6.7175 O.2       2 ALA2        0.0000 
     28 DU          8.6547  -15.3361    8.6922 H         6 CUB7        0.0000 
     29 CZ          7.5427  -15.5322    9.6796 C.ar      4 PHE5        0.0000 
     30 CZ          6.4306  -15.7282   10.6670 C.ar      4 PHE5        0.0000 
     31 O          10.6759  -16.3413    6.2114 O.2       2 ALA2        0.0000 
     32 DU          9.5638  -16.5374    7.1988 H         6 CUB7        0.0000 
     33 DU          8.4518  -16.7335    8.1862 H         6 CUB7        0.0000 
     34 CA          7.3397  -16.9296    9.1736 C.3       5 GLY6        0.0000 
     35 CA          6.2277  -17.1256   10.1609 C.3       5 GLY6        0.0000 
     36 N          10.4730  -17.7387    5.7054 N.2       2 ALA2        0.0000 
     37 N           9.3609  -17.9348    6.6928 N.2       2 ALA2        0.0000 
     38 DU          8.2489  -18.1309    7.6801 H         6 CUB7        0.0000 
     39 N           7.1368  -18.3270    8.6675 N.2       2 ALA2        0.0000 
     40 N           6.0248  -18.5230    9.6549 N.2       2 ALA2        0.0000 
     41 OG         12.2706  -12.6578    8.7390 O.2       1 SER1        0.0000 
     42 CZ         11.1586  -12.8539    9.7264 C.ar      4 PHE5        0.0000 
     43 CZ         10.0465  -13.0500   10.7138 C.ar      4 PHE5        0.0000 
     44 CZ         12.0677  -14.0553    8.2330 C.ar      4 PHE5        0.0000 
     45 DU         10.9557  -14.2513    9.2204 H         6 CUB7        0.0000 
     46 CA          9.8436  -14.4474   10.2077 C.3       5 GLY6        0.0000 
     47 CZ          8.7316  -14.6435   11.1951 C.ar      4 PHE5        0.0000 
     48 O          12.9768  -15.2566    6.7396 O.2       2 ALA2        0.0000 
     49 O          11.8648  -15.4527    7.7270 O.2       2 ALA2        0.0000 
     50 DU         10.7527  -15.6487    8.7143 H         6 CUB7        0.0000 
     51 DU          9.6407  -15.8448    9.7017 H         6 CUB7        0.0000 
     52 CZ          8.5286  -16.0409   10.6891 C.ar      4 PHE5        0.0000 
     53 CZ          7.4166  -16.2370   11.6764 C.ar      4 PHE5        0.0000 
     54 O          11.6619  -16.8501    7.2209 O.2       2 ALA2        0.0000 
     55 N          10.5498  -17.0461    8.2083 N.2       2 ALA2        0.0000 
     56 N           9.4378  -17.2422    9.1957 N.2       2 ALA2        0.0000 
     57 DU          8.3257  -17.4383   10.1830 H         6 CUB7        0.0000 
     58 CA          7.2137  -17.6344   11.1704 C.3       5 GLY6        0.0000 
     59 O          11.4590  -18.2475    6.7149 O.2       2 ALA2        0.0000 
     60 DU         10.3469  -18.4436    7.7022 H         6 CUB7        0.0000 
     61 DU          9.2349  -18.6396    8.6896 H         6 CUB7        0.0000 
     62 N           8.1228  -18.8357    9.6770 N.2       2 ALA2        0.0000 
     63 N          11.2560  -19.6449    6.2088 N.2       2 ALA2        0.0000 
     64 DU         10.1440  -19.8410    7.1962 H         6 CUB7        0.0000 
     65 OG          9.0319  -20.0370    8.1836 O.2       1 SER1        0.0000 
     66 OG         13.2566  -13.1666    9.7485 O.2       1 SER1        0.0000 
     67 CA         12.1446  -13.3627   10.7359 C.3       5 GLY6        0.0000 
     68 CZ         14.1657  -14.3679    8.2551 C.ar      4 PHE5        0.0000 
     69 CZ         13.0537  -14.5640    9.2425 C.ar      4 PHE5        0.0000 
     70 N          11.9416  -14.7601   10.2298 N.2       2 ALA2        0.0000 
     71 CA         10.8296  -14.9561   11.2172 C.3       5 GLY6        0.0000 
     72 O          13.9628  -15.7653    7.7491 O.2       2 ALA2        0.0000 
     73 N          12.8508  -15.9614    8.7364 N.2       2 ALA2        0.0000 
     74 N          11.7387  -16.1575    9.7238 N.2       2 ALA2        0.0000 
     75 N          10.6267  -16.3535   10.7112 N.2       2 ALA2        0.0000 
     76 CA          9.5146  -16.5496   11.6985 C.3       5 GLY6        0.0000 
     77 N           8.4026  -16.7457   12.6859 N.2       2 ALA2        0.0000 
     78 O          13.7599  -17.1627    7.2430 O.2       2 ALA2        0.0000 
     79 N          12.6479  -17.3588    8.2304 N.2       2 ALA2        0.0000 
     80 N          10.4238  -17.7509   10.2051 N.2       2 ALA2        0.0000 
     81 N           9.3117  -17.9470   11.1925 N.2       2 ALA2        0.0000 
     82 CA          8.1997  -18.1431   12.1799 C.3       5 GLY6        0.0000 
     83 N          12.4449  -18.7562    7.7243 N.2       2 ALA2        0.0000 
     84 N          11.3329  -18.9523    8.7117 N.2       2 ALA2        0.0000 
     85 N          10.2208  -19.1484    9.6991 N.2       2 ALA2        0.0000 
     86 OG          9.1088  -19.3444   10.6865 O.2       1 SER1        0.0000 
     87 O          11.1300  -20.3497    8.2057 O.2       2 ALA2        0.0000 
     88 NZ         15.1517  -14.8766    9.2646 N.2       3 LYS4        0.0000 
     89 NZ         14.0397  -15.0727   10.2519 N.2       3 LYS4        0.0000 
     90 N          12.9276  -15.2688   11.2393 N.2       2 ALA2        0.0000 
     91 N          14.9488  -16.2740    8.7585 N.2       2 ALA2        0.0000 
     92 CA         10.5006  -17.0583   12.7080 C.3       5 GLY6        0.0000 
     93 OG         14.7459  -17.6715    8.2525 O.2       1 SER1        0.0000 
     94 N          10.2977  -18.4558   12.2020 N.2       2 ALA2        0.0000 
     95 OG         10.0948  -19.8532   11.6959 O.2       1 SER1        0.0000 
@<TRIPOS>BOND
@<TRIPOS>SUBSTRUCTURE
     1 SER1       41 GROUP   
     2 ALA2        1 GROUP   
     3 LYS4       88 GROUP   
     4 PHE5        9 GROUP   
     5 GLY6        6 GROUP   
     6 CUB7       13 GROUP   
@<TRIPOS>SET

