#    Name: 4hzt_0ZA_1_INTS_M
#    Modification time : Tue Mar 25 02:02:58 2014

@<TRIPOS>MOLECULE
4hzt_0ZA_1_INTS_M
   58     0     9     0     0
SMALL
NO_CHARGES


@<TRIPOS>ATOM
      1 CA         11.4915  -11.1090    4.6505 C.3       3 GLC5        0.0000 
      2 CA          9.6870  -11.8270    4.4120 C.3       9 GLL5        0.0000 
      3 CA         13.2960  -10.3910    4.8890 C.3       6 GLP5        0.0000 
      4 CA          9.4985  -11.2770    2.6795 C.3       3 GLC5        0.0000 
      5 CA          9.3100  -10.7270    0.9470 C.3       6 GLP5        0.0000 
      6 CA          9.4840  -10.9305    6.0830 C.3       3 GLC5        0.0000 
      7 CA          9.2810  -10.0340    7.7540 C.3       6 GLP5        0.0000 
      8 O          12.2045  -17.2755   10.0045 O.2       1 ALC1        0.0000 
      9 O          11.5590  -16.2870    9.0680 O.2       7 ALL1        0.0000 
     10 O          12.8500  -18.2640   10.9410 O.2       4 ALP1        0.0000 
     11 CA         12.9760  -13.0455   11.4115 C.3       3 GLC5        0.0000 
     12 CA         12.8610  -14.9790   10.6480 C.3       9 GLL5        0.0000 
     13 CA         13.0910  -11.1120   12.1750 C.3       6 GLP5        0.0000 
     14 CA         13.4475  -16.3580   11.8030 C.3       3 GLC5        0.0000 
     15 CA         14.0340  -17.7370   12.9580 C.3       6 GLP5        0.0000 
     16 CA         10.3805  -12.1560    9.4785 C.3       3 GLC5        0.0000 
     17 CA         10.5200  -14.2560   10.1820 C.3       9 GLL5        0.0000 
     18 CA         10.2410  -10.0560    8.7750 C.3       6 GLP5        0.0000 
     19 CA          8.9415  -13.0605   10.8160 C.3       3 GLC5        0.0000 
     20 CA          7.3630  -11.8650   11.4500 C.3       6 GLP5        0.0000 
     21 CA         13.4875  -13.1895    7.4155 C.3       3 GLC5        0.0000 
     22 CA         12.3430  -14.0940    8.3810 C.3       9 GLL5        0.0000 
     23 CA         14.6320  -12.2850    6.4500 C.3       6 GLP5        0.0000 
     24 CA         12.4235  -19.8280    9.4825 C.3       3 GLC5        0.0000 
     25 CA         10.8430  -18.9120    8.4150 C.3       9 GLL5        0.0000 
     26 CA         14.0040  -20.7440   10.5500 C.3       6 GLP5        0.0000 
     27 N          11.9625  -21.8145    9.2315 N.am      2 SEC2        0.0000 
     28 N          11.6890  -21.2090    8.0090 N.am      8 SEL2        0.0000 
     29 N          12.2360  -22.4200   10.4540 N.am      5 SEP2        0.0000 
     30 N          12.5780  -24.1810    8.2045 N.am      2 SEC2        0.0000 
     31 N          12.4930  -23.2490    6.9730 N.am      8 SEL2        0.0000 
     32 N          12.6630  -25.1130    9.4360 N.am      5 SEP2        0.0000 
     33 CA          9.8010  -21.5430    9.5875 C.3       3 GLC5        0.0000 
     34 CA          9.4770  -19.4370    8.9390 C.3       9 GLL5        0.0000 
     35 CA         10.1250  -23.6490   10.2360 C.3       6 GLP5        0.0000 
     36 CA         11.9230  -12.5645    4.3993 C.3       3 GLC5        0.0000 
     37 CA         10.0550  -13.2370    5.4620 C.3       9 GLL5        0.0000 
     38 CA         13.2900  -11.9730    2.8610 C.3       6 GLP5        0.0000 
     39 CA         10.5362  -15.1385    4.1460 C.3       3 GLC5        0.0000 
     40 CA          9.3310  -14.4500    5.2550 C.3       9 GLL5        0.0000 
     41 CA         11.6040  -15.2820    2.6340 C.3       6 GLP5        0.0000 
     42 CA         11.0340  -14.0427    4.1545 C.3       3 GLC5        0.0000 
     43 CA         11.0310  -14.3175   11.8948 C.3       3 GLC5        0.0000 
     44 CA         10.6360  -14.0340   13.6470 C.3       6 GLP5        0.0000 
     45 CA          7.5150  -18.8165   11.7238 C.3       3 GLC5        0.0000 
     46 CA          9.5320  -18.4410   11.2390 C.3       9 GLL5        0.0000 
     47 CA          5.7880  -19.1890   12.8460 C.3       6 GLP5        0.0000 
     48 CA          7.1997  -18.1365   12.4692 C.3       3 GLC5        0.0000 
     49 CA          9.1220  -17.5360   12.2320 C.3       9 GLL5        0.0000 
     50 CA          8.9913  -16.2535   13.6818 C.3       3 GLC5        0.0000 
     51 CA          8.1010  -16.6320   11.9530 C.3       9 GLL5        0.0000 
     52 CA          9.3710  -15.4230   15.2710 C.3       6 GLP5        0.0000 
     53 CA          8.6480  -18.1661   13.6341 C.3       3 GLC5        0.0000 
     54 CA          8.5820  -19.0220   15.4240 C.3       6 GLP5        0.0000 
     55 CA          6.7650  -18.1320   11.5000 C.3       3 GLC5        0.0000 
     56 CA          7.5460  -16.6170   10.6630 C.3       9 GLL5        0.0000 
     57 CA          5.8580  -16.6570    9.2435 C.3       3 GLC5        0.0000 
     58 CA          3.9740  -16.2390    8.3330 C.3       6 GLP5        0.0000 
@<TRIPOS>BOND
@<TRIPOS>SUBSTRUCTURE
     1 ALC1        8 GROUP        1 X    ALC  0     ROOT ALC X 1
     2 SEC2       27 GROUP        1 X    SEC  0     **** SEC X 2
     3 GLC5        1 GROUP        1 X    GLC  0     **** GLC X 6
     4 ALP1       10 GROUP        1 Y    ALP  0     ROOT ALP Y 8
     5 SEP2       29 GROUP        1 Y    SEP  0     **** SEP Y 9
     6 GLP5        3 GROUP        1 Y    GLP  0     **** GLP Y 13
     7 ALL1        9 GROUP        1 Z    ALL  0     ROOT ALL Z 15
     8 SEL2       28 GROUP        1 Z    SEL  0     **** SEL Z 16
     9 GLL5        2 GROUP        1 Z    GLL  0     **** GLL Z 20
@<TRIPOS>SET

