#    Name: 4hzt_0ZA_1_ligand
#    Modification time : Tue Mar 25 02:02:58 2014

@<TRIPOS>MOLECULE
4hzt_0ZA_1_ligand
   50    53     1     0     0
SMALL
NO_CHARGES


@<TRIPOS>ATOM
      1 CL1         9.6870  -11.8270    4.4120 Cl        1 0ZA504      0.0000 
      2 C6         10.0550  -13.2370    5.4620 C.ar      1 0ZA504      0.0000 
      3 C5          9.3310  -14.4500    5.2550 C.ar      1 0ZA504      0.0000 
      4 C4          9.6060  -15.5400    6.0610 C.ar      1 0ZA504      0.0000 
      5 C3         10.6030  -15.3930    7.0600 C.ar      1 0ZA504      0.0000 
      6 C2         11.3220  -14.1450    7.2610 C.ar      1 0ZA504      0.0000 
      7 C1         11.0570  -13.0750    6.4130 C.ar      1 0ZA504      0.0000 
      8 C10        10.9560  -16.5400    7.9730 C.2       1 0ZA504      0.0000 
      9 N9         11.5590  -16.2870    9.0680 N.pl3     1 0ZA504      0.0000 
     10 C8         11.8030  -14.9130    9.5580 C.3       1 0ZA504      0.0000 
     11 C11        12.8610  -14.9790   10.6480 C.3       1 0ZA504      0.0000 
     12 C12        10.5200  -14.2560   10.1820 C.3       1 0ZA504      0.0000 
     13 C7         12.3430  -14.0940    8.3810 C.3       1 0ZA504      0.0000 
     14 N13        10.6670  -17.7590    7.5330 N.pl3     1 0ZA504      0.0000 
     15 C14        10.8430  -18.9120    8.4150 C.3       1 0ZA504      0.0000 
     16 C25        11.4280  -19.9500    7.5580 C.2       1 0ZA504      0.0000 
     17 N24        11.6890  -21.2090    8.0090 N.2       1 0ZA504      0.0000 
     18 C29        12.1450  -21.8500    6.9430 C.2       1 0ZA504      0.0000 
     19 O28        12.4930  -23.2490    6.9730 O.2       1 0ZA504      0.0000 
     20 O26        12.1110  -21.1010    5.8410 O.3       1 0ZA504      0.0000 
     21 N27        11.6480  -19.8830    6.1910 N.pl3     1 0ZA504      0.0000 
     22 C18         9.4770  -19.4370    8.9390 C.3       1 0ZA504      0.0000 
     23 C19         8.9520  -18.4470    9.9640 C.ar      1 0ZA504      0.0000 
     24 C24         9.5320  -18.4410   11.2390 C.ar      1 0ZA504      0.0000 
     25 C23         9.1220  -17.5360   12.2320 C.ar      1 0ZA504      0.0000 
     26 C22         8.1010  -16.6320   11.9530 C.ar      1 0ZA504      0.0000 
     27 C21         7.5460  -16.6170   10.6630 C.ar      1 0ZA504      0.0000 
     28 C20         7.9380  -17.5330    9.6450 C.ar      1 0ZA504      0.0000 
     29 H           8.6287  -14.4915    4.5218 H         1 0ZA504      0.0000 
     30 H           9.1216  -16.4202    5.9551 H         1 0ZA504      0.0000 
     31 H          11.5751  -12.2087    6.4853 H         1 0ZA504      0.0000 
     32 H          11.9341  -17.0354    9.7158 H         1 0ZA504      0.0000 
     33 H          12.4899  -13.0732    8.6966 H         1 0ZA504      0.0000 
     34 H          13.2744  -14.5234    8.0474 H         1 0ZA504      0.0000 
     35 H          10.3175  -17.9545    6.5867 H         1 0ZA504      0.0000 
     36 H          11.4733  -18.6964    9.2225 H         1 0ZA504      0.0000 
     37 H          11.4986  -19.1345    5.6426 H         1 0ZA504      0.0000 
     38 H           9.6294  -20.3985    9.3966 H         1 0ZA504      0.0000 
     39 H           8.7946  -19.5098    8.1107 H         1 0ZA504      0.0000 
     40 H          10.2829  -19.1210   11.4570 H         1 0ZA504      0.0000 
     41 H           9.5726  -17.5458   13.1486 H         1 0ZA504      0.0000 
     42 H           7.7594  -15.9922   12.6658 H         1 0ZA504      0.0000 
     43 H           6.8179  -15.9109   10.4331 H         1 0ZA504      0.0000 
     44 H           7.5020  -17.5162    8.7448 H         1 0ZA504      0.0000 
     45 H          13.7196  -15.3638   10.3093 H         1 0ZA504      0.0000 
     46 H          13.0709  -14.0736   11.0171 H         1 0ZA504      0.0000 
     47 H          12.5677  -15.5480   11.4163 H         1 0ZA504      0.0000 
     48 H          10.6991  -13.3276   10.5077 H         1 0ZA504      0.0000 
     49 H           9.7740  -14.1952    9.5189 H         1 0ZA504      0.0000 
     50 H          10.1768  -14.7792   10.9621 H         1 0ZA504      0.0000 
@<TRIPOS>BOND
     1    2    1 1    
     2    3    2 ar   
     3    7    2 ar   
     4    4    3 ar   
     5   29    3 1    
     6    5    4 ar   
     7   30    4 1    
     8    6    5 ar   
     9    8    5 1    
    10    7    6 ar   
    11   13    6 1    
    12   31    7 1    
    13    9    8 1    
    14   14    8 2    
    15   10    9 1    
    16   32    9 1    
    17   11   10 1    
    18   12   10 1    
    19   13   10 1    
    20   45   11 1    
    21   46   11 1    
    22   47   11 1    
    23   48   12 1    
    24   49   12 1    
    25   50   12 1    
    26   33   13 1    
    27   34   13 1    
    28   15   14 1    
    29   35   14 1    
    30   16   15 1    
    31   22   15 1    
    32   36   15 1    
    33   17   16 2    
    34   21   16 1    
    35   18   17 1    
    36   19   18 2    
    37   20   18 1    
    38   21   20 1    
    39   37   21 1    
    40   23   22 1    
    41   38   22 1    
    42   39   22 1    
    43   24   23 ar   
    44   28   23 ar   
    45   25   24 ar   
    46   40   24 1    
    47   26   25 ar   
    48   41   25 1    
    49   27   26 ar   
    50   42   26 1    
    51   28   27 ar   
    52   43   27 1    
    53   44   28 1    
@<TRIPOS>SUBSTRUCTURE
     1 0ZA504      1 GROUP   
@<TRIPOS>SET

