#    Name: 1WUN_1_CAVITY_N1_ALL.mol2
#    Modification time : Mon Mar 10 16:58:07 2014

@<TRIPOS>MOLECULE
1WUN_1_CAVITY_N1_ALL.mol2
   48     0     6     0     0
SMALL
NO_CHARGES


@<TRIPOS>ATOM
      1 CA         38.5926   10.3147   21.9752 C.3       5 GLY6        0.0000 
      2 CA         37.2388    8.7112   22.2853 C.3       5 GLY6        0.0000 
      3 CA         37.8201    9.3907   21.0810 C.3       5 GLY6        0.0000 
      4 CA         38.4014   10.0703   19.8767 C.3       5 GLY6        0.0000 
      5 CA         38.9827   10.7498   18.6724 C.3       5 GLY6        0.0000 
      6 O          36.4663    7.7873   21.3910 O.2       2 ALA2        0.0000 
      7 N          37.0476    8.4668   20.1867 N.2       2 ALA2        0.0000 
      8 CA         37.6289    9.1464   18.9825 C.3       5 GLY6        0.0000 
      9 CZ         38.2102    9.8259   17.7782 C.ar      4 PHE5        0.0000 
     10 N          36.2751    7.5429   19.2925 N.2       2 ALA2        0.0000 
     11 N          36.8564    8.2224   18.0882 N.2       2 ALA2        0.0000 
     12 N          35.9007    9.4336   20.1787 N.2       2 ALA2        0.0000 
     13 N          39.1582    8.6684   23.1875 N.2       2 ALA2        0.0000 
     14 CA         39.7395    9.3479   21.9833 C.3       5 GLY6        0.0000 
     15 CA         40.3208   10.0275   20.7790 C.3       5 GLY6        0.0000 
     16 CA         40.9021   10.7070   19.5747 C.3       5 GLY6        0.0000 
     17 O          38.3857    7.7444   22.2933 O.2       2 ALA2        0.0000 
     18 O          38.9670    8.4240   21.0890 O.2       2 ALA2        0.0000 
     19 CA         39.5483    9.1035   19.8848 C.3       5 GLY6        0.0000 
     20 N          40.1296    9.7831   18.6805 N.2       2 ALA2        0.0000 
     21 O          38.1945    7.5001   20.1948 O.2       2 ALA2        0.0000 
     22 O          38.7758    8.1796   18.9905 O.2       2 ALA2        0.0000 
     23 CZ         39.3571    8.8592   17.7862 C.ar      4 PHE5        0.0000 
     24 O          37.4220    6.5762   19.3006 O.2       2 ALA2        0.0000 
     25 O          38.0033    7.2557   18.0963 O.2       2 ALA2        0.0000 
     26 CZ         38.5846    7.9352   16.8920 C.ar      4 PHE5        0.0000 
     27 O          37.8121    7.0113   15.9978 O.2       2 ALA2        0.0000 
     28 N          37.6209    6.7670   13.8993 N.2       2 ALA2        0.0000 
     29 CZ         38.2022    7.4465   12.6950 C.ar      4 PHE5        0.0000 
     30 N          40.1059    5.0778   16.0140 N.2       2 ALA2        0.0000 
     31 CA         40.6872    5.7574   14.8097 C.3       5 GLY6        0.0000 
     32 CA         40.4960    5.5130   12.7112 C.3       5 GLY6        0.0000 
     33 OD1        40.8864    8.3812   21.9913 O.3       3 ASP3        0.0000 
     34 DU         41.4677    9.0607   20.7871 H         6 CUB7        0.0000 
     35 OG         42.0490    9.7403   19.5828 O.2       1 SER1        0.0000 
     36 O          40.1139    7.4572   21.0971 O.2       2 ALA2        0.0000 
     37 OG         40.6952    8.1368   19.8928 O.2       1 SER1        0.0000 
     38 OG         41.2765    8.8163   18.6885 O.2       1 SER1        0.0000 
     39 O          39.9227    7.2129   18.9986 O.2       2 ALA2        0.0000 
     40 CA         40.5040    7.8924   17.7943 C.3       5 GLY6        0.0000 
     41 N          39.1502    6.2890   18.1044 N.2       2 ALA2        0.0000 
     42 CA         39.7315    6.9685   16.9001 C.3       5 GLY6        0.0000 
     43 CA         38.9590    6.0446   16.0059 C.3       5 GLY6        0.0000 
     44 CA         39.5403    6.7241   14.8016 C.3       5 GLY6        0.0000 
     45 N          38.7678    5.8002   13.9074 N.2       2 ALA2        0.0000 
     46 CA         39.3491    6.4798   12.7031 C.3       5 GLY6        0.0000 
     47 N          37.9953    4.8763   13.0132 N.2       2 ALA2        0.0000 
     48 OG         41.8421    7.1700   19.9009 O.2       1 SER1        0.0000 
@<TRIPOS>BOND
@<TRIPOS>SUBSTRUCTURE
     1 SER1       35 GROUP   
     2 ALA2        6 GROUP   
     3 ASP3       33 GROUP   
     4 PHE5        9 GROUP   
     5 GLY6        1 GROUP   
     6 CUB7       34 GROUP   
@<TRIPOS>SET

