#    Name: 1WUN_1_CAVITY_N1_6.mol2
#    Modification time : Mon Mar 10 16:58:07 2014

@<TRIPOS>MOLECULE
1WUN_1_CAVITY_N1_6.mol2
   26     0     4     0     0
SMALL
NO_CHARGES


@<TRIPOS>ATOM
      1 CZ         38.2102    9.8259   17.7782 C.ar      3 PHE5        0.0000 
      2 N          36.8564    8.2224   18.0882 N.2       2 ALA2        0.0000 
      3 N          40.1296    9.7831   18.6805 N.2       2 ALA2        0.0000 
      4 O          38.7758    8.1796   18.9905 O.2       2 ALA2        0.0000 
      5 CZ         39.3571    8.8592   17.7862 C.ar      3 PHE5        0.0000 
      6 O          37.4220    6.5762   19.3006 O.2       2 ALA2        0.0000 
      7 O          38.0033    7.2557   18.0963 O.2       2 ALA2        0.0000 
      8 CZ         38.5846    7.9352   16.8920 C.ar      3 PHE5        0.0000 
      9 O          37.8121    7.0113   15.9978 O.2       2 ALA2        0.0000 
     10 N          37.6209    6.7670   13.8993 N.2       2 ALA2        0.0000 
     11 CZ         38.2022    7.4465   12.6950 C.ar      3 PHE5        0.0000 
     12 N          40.1059    5.0778   16.0140 N.2       2 ALA2        0.0000 
     13 CA         40.6872    5.7574   14.8097 C.3       4 GLY6        0.0000 
     14 CA         40.4960    5.5130   12.7112 C.3       4 GLY6        0.0000 
     15 OG         40.6952    8.1368   19.8928 O.2       1 SER1        0.0000 
     16 OG         41.2765    8.8163   18.6885 O.2       1 SER1        0.0000 
     17 O          39.9227    7.2129   18.9986 O.2       2 ALA2        0.0000 
     18 CA         40.5040    7.8924   17.7943 C.3       4 GLY6        0.0000 
     19 N          39.1502    6.2890   18.1044 N.2       2 ALA2        0.0000 
     20 CA         39.7315    6.9685   16.9001 C.3       4 GLY6        0.0000 
     21 CA         38.9590    6.0446   16.0059 C.3       4 GLY6        0.0000 
     22 CA         39.5403    6.7241   14.8016 C.3       4 GLY6        0.0000 
     23 N          38.7678    5.8002   13.9074 N.2       2 ALA2        0.0000 
     24 CA         39.3491    6.4798   12.7031 C.3       4 GLY6        0.0000 
     25 N          37.9953    4.8763   13.0132 N.2       2 ALA2        0.0000 
     26 OG         41.8421    7.1700   19.9009 O.2       1 SER1        0.0000 
@<TRIPOS>BOND
@<TRIPOS>SUBSTRUCTURE
     1 SER1       15 GROUP   
     2 ALA2        2 GROUP   
     3 PHE5        1 GROUP   
     4 GLY6       13 GROUP   
@<TRIPOS>SET

