#    Name: 1wun_P5B_1_INTS_M
#    Modification time : Tue Mar 25 09:19:19 2014

@<TRIPOS>MOLECULE
1wun_P5B_1_INTS_M
   85     0     9     0     0
SMALL
NO_CHARGES


@<TRIPOS>ATOM
      1 N          34.4670    7.6900   12.4925 N.am      2 SEC2        0.0000 
      2 N          34.8520    7.2770   10.8820 N.am      8 SEL2        0.0000 
      3 N          34.0820    8.1030   14.1030 N.am      5 SEP2        0.0000 
      4 CA         34.5485    9.2320   10.2540 C.3       3 GLC5        0.0000 
      5 CA         34.6750    8.3580    8.3860 C.3       9 GLL5        0.0000 
      6 CA         34.4220   10.1060   12.1220 C.3       6 GLP5        0.0000 
      7 CA         33.0690    9.5600    6.2140 C.3       3 GLC5        0.0000 
      8 CA         34.7970    8.6720    6.9000 C.3       9 GLL5        0.0000 
      9 CA         31.3410   10.4480    5.5280 C.3       6 GLP5        0.0000 
     10 O          32.0385    9.5475    9.8360 O.2       1 ALC1        0.0000 
     11 O          32.3690    8.3840    9.1360 O.2       7 ALL1        0.0000 
     12 O          31.7080   10.7110   10.5360 O.2       4 ALP1        0.0000 
     13 CA         30.9985    5.2480   10.4235 C.3       3 GLC5        0.0000 
     14 CA         31.7550    6.6250   11.5950 C.3       9 GLL5        0.0000 
     15 CA         30.2420    3.8710    9.2520 C.3       6 GLP5        0.0000 
     16 CA         30.3885    4.4600   13.1900 C.3       3 GLC5        0.0000 
     17 CA         31.5200    6.3720   12.9460 C.3       9 GLL5        0.0000 
     18 CA         29.2570    2.5480   13.4340 C.3       6 GLP5        0.0000 
     19 O          30.3120    5.4680   16.9050 O.2       1 ALC1        0.0000 
     20 O          30.9440    5.7520   15.6580 O.2       7 ALL1        0.0000 
     21 O          29.6800    5.1840   18.1520 O.2       4 ALP1        0.0000 
     22 O          31.6020    4.6185   15.2635 O.2       1 ALC1        0.0000 
     23 O          32.2600    3.4850   14.8690 O.2       4 ALP1        0.0000 
     24 O          35.7200   11.1380    3.4055 O.2       1 ALC1        0.0000 
     25 O          35.9960   11.1390    4.8280 O.2       7 ALL1        0.0000 
     26 O          35.4440   11.1370    1.9830 O.2       4 ALP1        0.0000 
     27 O          36.6025   11.9750    5.8195 O.2       1 ALC1        0.0000 
     28 O          37.2090   12.8110    6.8110 O.2       4 ALP1        0.0000 
     29 CA         39.3845    8.4695   11.8115 C.3       3 GLC5        0.0000 
     30 CA         37.9740    7.1250   11.2960 C.3       9 GLL5        0.0000 
     31 CA         40.7950    9.8140   12.3270 C.3       6 GLP5        0.0000 
     32 CA         37.4900    8.3605   12.7140 C.3       3 GLC5        0.0000 
     33 CA         37.0060    9.5960   14.1320 C.3       6 GLP5        0.0000 
     34 O          35.8575    5.4750   12.6400 O.2       1 ALC1        0.0000 
     35 O          36.5520    5.1740   11.4790 O.2       7 ALL1        0.0000 
     36 O          35.1630    5.7760   13.8010 O.2       4 ALP1        0.0000 
     37 N          35.2325    2.7220   13.1620 N.am      2 SEC2        0.0000 
     38 N          35.7240    2.8650   11.8770 N.am      8 SEL2        0.0000 
     39 N          34.7410    2.5790   14.4470 N.am      5 SEP2        0.0000 
     40 CA         38.2710    2.6200   14.2595 C.3       3 GLC5        0.0000 
     41 CA         38.4440    2.6500   12.0240 C.3       9 GLL5        0.0000 
     42 CA         38.0980    2.5900   16.4950 C.3       6 GLP5        0.0000 
     43 O          28.8985    7.1770   17.1510 O.2       1 ALC1        0.0000 
     44 O          29.4830    7.4900   15.8250 O.2       7 ALL1        0.0000 
     45 O          28.3140    6.8640   18.4770 O.2       4 ALP1        0.0000 
     46 O          29.5815    6.3370   16.9885 O.2       1 ALC1        0.0000 
     47 O          28.1335    8.0565   15.7955 O.2       1 ALC1        0.0000 
     48 O          26.7840    8.6230   15.7660 O.2       4 ALP1        0.0000 
     49 CA         42.6360    3.7785   15.9050 C.3       3 GLC5        0.0000 
     50 CA         41.4320    4.5880   14.6690 C.3       9 GLL5        0.0000 
     51 CA         43.8400    2.9690   17.1410 C.3       6 GLP5        0.0000 
     52 CA         37.7745    4.9245   14.8715 C.3       3 GLC5        0.0000 
     53 CA         39.3820    5.7780   14.0210 C.3       9 GLL5        0.0000 
     54 CA         36.1670    4.0710   15.7220 C.3       6 GLP5        0.0000 
     55 CA         40.5280    8.0435   11.4095 C.3       3 GLC5        0.0000 
     56 CA         40.2610    6.2730   10.4920 C.3       9 GLL5        0.0000 
     57 CA         32.3413    8.1322   12.4908 C.3       3 GLC5        0.0000 
     58 CA         33.0450    9.7660   12.7110 C.3       6 GLP5        0.0000 
     59 CA         32.6812    7.0393   14.3122 C.3       3 GLC5        0.0000 
     60 CA         34.3720    7.3970   15.3350 C.3       6 GLP5        0.0000 
     61 CA         28.4778    6.1338   13.1640 C.3       3 GLC5        0.0000 
     62 CA         30.4610    6.9910   13.6330 C.3       9 GLL5        0.0000 
     63 CA         26.9310    4.8570   13.0480 C.3       6 GLP5        0.0000 
     64 CA         31.5348    8.5882   12.9955 C.3       3 GLC5        0.0000 
     65 CA         29.5880    7.8300   12.9270 C.3       9 GLL5        0.0000 
     66 CA         28.2037    9.0977   12.4597 C.3       3 GLC5        0.0000 
     67 CA         26.7160   10.2450   12.6770 C.3       6 GLP5        0.0000 
     68 CA         29.2719    6.5623   10.1516 C.3       3 GLC5        0.0000 
     69 CA         29.7950    8.0710   11.5580 C.3       9 GLL5        0.0000 
     70 CA         28.1440    5.2870    9.4440 C.3       6 GLP5        0.0000 
     71 CA         31.7224    8.8018   11.7851 C.3       3 GLC5        0.0000 
     72 CA         30.8830    7.4740   10.8900 C.3       9 GLL5        0.0000 
     73 CA         39.4480    3.7237   15.6743 C.3       3 GLC5        0.0000 
     74 CA         42.3982    6.2752   13.8855 C.3       3 GLC5        0.0000 
     75 CA         41.8850    4.7290   13.3120 C.3       9 GLL5        0.0000 
     76 CA         43.2930    7.5020   14.9450 C.3       6 GLP5        0.0000 
     77 CA         41.4849    6.7356   13.7699 C.3       3 GLC5        0.0000 
     78 CA         39.8230    5.8900   12.6930 C.3       9 GLL5        0.0000 
     79 CA         41.1650    8.8920   13.4510 C.3       6 GLP5        0.0000 
     80 CA         41.3585    6.3139   15.3746 C.3       3 GLC5        0.0000 
     81 CA         42.6270    7.3100   16.3120 C.3       6 GLP5        0.0000 
     82 CA         40.4690    7.1722   13.9902 C.3       3 GLC5        0.0000 
     83 CA         40.1640    5.1270   15.0380 C.3       9 GLL5        0.0000 
     84 CA         40.5226    7.4660   12.7269 C.3       3 GLC5        0.0000 
     85 CA         41.1220    5.3680   12.3400 C.3       9 GLL5        0.0000 
@<TRIPOS>BOND
@<TRIPOS>SUBSTRUCTURE
     1 ALC1       10 GROUP        1 X    ALC  0     ROOT ALC X 1
     2 SEC2        1 GROUP        1 X    SEC  0     **** SEC X 2
     3 GLC5        4 GROUP        1 X    GLC  0     **** GLC X 6
     4 ALP1       12 GROUP        1 Y    ALP  0     ROOT ALP Y 8
     5 SEP2        3 GROUP        1 Y    SEP  0     **** SEP Y 9
     6 GLP5        6 GROUP        1 Y    GLP  0     **** GLP Y 13
     7 ALL1       11 GROUP        1 Z    ALL  0     ROOT ALL Z 15
     8 SEL2        2 GROUP        1 Z    SEL  0     **** SEL Z 16
     9 GLL5        5 GROUP        1 Z    GLL  0     **** GLL Z 20
@<TRIPOS>SET

