#    Name: 1wun_P5B_1_ligand
#    Modification time : Tue Mar 25 09:19:19 2014

@<TRIPOS>MOLECULE
1wun_P5B_1_ligand
   73    75     1     0     0
SMALL
NO_CHARGES


@<TRIPOS>ATOM
      1 C14        35.7730    7.0680   10.1130 C.2       1 P5B2001     0.0000 
      2 O1         34.8520    7.2770   10.8820 O.2       1 P5B2001     0.0000 
      3 N5         35.7950    7.5510    8.8350 N.am      1 P5B2001     0.0000 
      4 C15        34.6750    8.3580    8.3860 C.3       1 P5B2001     0.0000 
      5 C18        34.7970    8.6720    6.9000 C.3       1 P5B2001     0.0000 
      6 C19        36.0620    9.4510    6.5140 C.3       1 P5B2001     0.0000 
      7 C20        33.3730    7.5940    8.7050 C.2       1 P5B2001     0.0000 
      8 O5         33.3080    6.3730    8.5780 O.2       1 P5B2001     0.0000 
      9 N6         32.3690    8.3840    9.1360 N.am      1 P5B2001     0.0000 
     10 C21        31.1260    7.7340    9.4310 C.3       1 P5B2001     0.0000 
     11 C16        31.7550    6.6250   11.5950 C.ar      1 P5B2001     0.0000 
     12 C17        31.5200    6.3720   12.9460 C.ar      1 P5B2001     0.0000 
     13 C22        30.4610    6.9910   13.6330 C.ar      1 P5B2001     0.0000 
     14 C23        29.5880    7.8300   12.9270 C.ar      1 P5B2001     0.0000 
     15 C24        29.7950    8.0710   11.5580 C.ar      1 P5B2001     0.0000 
     16 C25        30.8830    7.4740   10.8900 C.ar      1 P5B2001     0.0000 
     17 C26        30.2960    6.7540   15.0730 C.ar      1 P5B2001     0.0000 
     18 N1         30.9440    5.7520   15.6580 N.pl3     1 P5B2001     0.0000 
     19 C2         35.9090    9.8440    5.0660 C.2       1 P5B2001     0.0000 
     20 O2         35.6410    9.0300    4.2120 O.2       1 P5B2001     0.0000 
     21 N3         35.9960   11.1390    4.8280 N.am      1 P5B2001     0.0000 
     22 C1         37.9740    7.1250   11.2960 C.3       1 P5B2001     0.0000 
     23 N4         36.5520    5.1740   11.4790 N.pl3     1 P5B2001     0.0000 
     24 C5         36.9920    6.2180   10.5740 C.3       1 P5B2001     0.0000 
     25 S1         36.3910    3.5860   10.8490 S.o2      1 P5B2001     0.0000 
     26 O4         35.7540    3.7920    9.5960 O.2       1 P5B2001     0.0000 
     27 O3         35.7240    2.8650   11.8770 O.2       1 P5B2001     0.0000 
     28 C9         37.9750    2.9600   10.5980 C.3       1 P5B2001     0.0000 
     29 C8         38.4440    2.6500   12.0240 C.3       1 P5B2001     0.0000 
     30 N2         29.4830    7.4900   15.8250 N.pl3     1 P5B2001     0.0000 
     31 C10        41.4320    4.5880   14.6690 C.ar      1 P5B2001     0.0000 
     32 C7         41.8850    4.7290   13.3120 C.ar      1 P5B2001     0.0000 
     33 C3         41.1220    5.3680   12.3400 C.ar      1 P5B2001     0.0000 
     34 C4         39.8230    5.8900   12.6930 C.ar      1 P5B2001     0.0000 
     35 C11        39.3820    5.7780   14.0210 C.ar      1 P5B2001     0.0000 
     36 C6         40.1640    5.1270   15.0380 C.ar      1 P5B2001     0.0000 
     37 N7         41.3380    5.6430   11.0040 N.pl3     1 P5B2001     0.0000 
     38 C13        40.2610    6.2730   10.4920 C.2       1 P5B2001     0.0000 
     39 C12        39.2880    6.4510   11.4890 C.2       1 P5B2001     0.0000 
     40 H          36.5520    7.3734    8.1895 H         1 P5B2001     0.0000 
     41 H          34.6468    9.2918    8.9375 H         1 P5B2001     0.0000 
     42 H          33.9136    9.2534    6.5805 H         1 P5B2001     0.0000 
     43 H          34.7770    7.7266    6.3288 H         1 P5B2001     0.0000 
     44 H          36.9182    8.8148    6.6372 H         1 P5B2001     0.0000 
     45 H          36.1374   10.3272    7.1302 H         1 P5B2001     0.0000 
     46 H          32.4464    9.3781    9.2574 H         1 P5B2001     0.0000 
     47 H          31.0559    6.7558    8.8914 H         1 P5B2001     0.0000 
     48 H          30.2657    8.3348    9.0412 H         1 P5B2001     0.0000 
     49 H          32.5509    6.2007   11.1172 H         1 P5B2001     0.0000 
     50 H          32.1350    5.7159   13.4579 H         1 P5B2001     0.0000 
     51 H          28.7971    8.2692   13.4082 H         1 P5B2001     0.0000 
     52 H          29.1546    8.6817   11.0428 H         1 P5B2001     0.0000 
     53 H          31.5344    5.2042   15.0653 H         1 P5B2001     0.0000 
     54 H          30.7827    5.6363   16.6381 H         1 P5B2001     0.0000 
     55 H          35.9281   11.4158    3.8695 H         1 P5B2001     0.0000 
     56 H          36.1220   11.7259    5.6278 H         1 P5B2001     0.0000 
     57 H          37.5495    7.4035   12.2668 H         1 P5B2001     0.0000 
     58 H          38.1053    8.0412   10.7098 H         1 P5B2001     0.0000 
     59 H          36.3319    5.2446   12.4040 H         1 P5B2001     0.0000 
     60 H          37.4627    5.8153    9.7057 H         1 P5B2001     0.0000 
     61 H          38.5051    3.7393   10.1651 H         1 P5B2001     0.0000 
     62 H          37.8372    2.1037   10.0292 H         1 P5B2001     0.0000 
     63 H          28.9647    8.1998   15.3480 H         1 P5B2001     0.0000 
     64 H          29.4632    7.2673   16.7997 H         1 P5B2001     0.0000 
     65 H          42.0071    4.1132   15.3478 H         1 P5B2001     0.0000 
     66 H          42.8120    4.3356   13.0697 H         1 P5B2001     0.0000 
     67 H          38.4649    6.1726   14.2924 H         1 P5B2001     0.0000 
     68 H          39.8229    5.0572   15.9763 H         1 P5B2001     0.0000 
     69 H          42.1457    5.4114   10.5247 H         1 P5B2001     0.0000 
     70 H          40.1458    6.5702    9.5799 H         1 P5B2001     0.0000 
     71 H          39.4201    2.4351   12.0554 H         1 P5B2001     0.0000 
     72 H          38.2940    3.4229   12.6406 H         1 P5B2001     0.0000 
     73 H          37.9587    1.8667   12.4125 H         1 P5B2001     0.0000 
@<TRIPOS>BOND
     1    2    1 2    
     2    3    1 am   
     3   24    1 1    
     4    4    3 1    
     5   40    3 1    
     6    5    4 1    
     7    7    4 1    
     8   41    4 1    
     9    6    5 1    
    10   42    5 1    
    11   43    5 1    
    12   19    6 1    
    13   44    6 1    
    14   45    6 1    
    15    8    7 2    
    16    9    7 am   
    17   10    9 1    
    18   46    9 1    
    19   16   10 1    
    20   47   10 1    
    21   48   10 1    
    22   12   11 ar   
    23   16   11 ar   
    24   49   11 1    
    25   13   12 ar   
    26   50   12 1    
    27   14   13 ar   
    28   17   13 1    
    29   15   14 ar   
    30   51   14 1    
    31   16   15 ar   
    32   52   15 1    
    33   18   17 ar   
    34   30   17 ar   
    35   53   18 1    
    36   54   18 1    
    37   20   19 2    
    38   21   19 am   
    39   55   21 1    
    40   56   21 1    
    41   24   22 1    
    42   39   22 1    
    43   57   22 1    
    44   58   22 1    
    45   24   23 1    
    46   25   23 1    
    47   59   23 1    
    48   60   24 1    
    49   26   25 2    
    50   27   25 2    
    51   28   25 1    
    52   29   28 1    
    53   61   28 1    
    54   62   28 1    
    55   71   29 1    
    56   72   29 1    
    57   73   29 1    
    58   63   30 1    
    59   64   30 1    
    60   32   31 ar   
    61   36   31 ar   
    62   65   31 1    
    63   33   32 ar   
    64   66   32 1    
    65   34   33 ar   
    66   37   33 1    
    67   35   34 ar   
    68   39   34 1    
    69   36   35 ar   
    70   67   35 1    
    71   68   36 1    
    72   38   37 1    
    73   69   37 1    
    74   39   38 2    
    75   70   38 1    
@<TRIPOS>SUBSTRUCTURE
     1 P5B2001     1 GROUP   
@<TRIPOS>SET

