#    Name: 2ag5_NAD_2_INTS_M
#    Modification time : Mon Mar 24 19:17:44 2014

@<TRIPOS>MOLECULE
2ag5_NAD_2_INTS_M
  106     0     9     0     0
SMALL
NO_CHARGES


@<TRIPOS>ATOM
      1 N          40.0905    9.8260   52.8915 N.am      2 SEC2        0.0000 
      2 N          40.4740    9.0630   51.7410 N.am      8 SEL2        0.0000 
      3 N          39.7070   10.5890   54.0420 N.am      5 SEP2        0.0000 
      4 N          41.7960    9.9330   51.5175 N.am      2 SEC2        0.0000 
      5 N          43.1180   10.8030   51.2940 N.am      5 SEP2        0.0000 
      6 N          42.4185    7.1895   51.5155 N.am      2 SEC2        0.0000 
      7 N          41.4170    6.6170   52.2140 N.am      8 SEL2        0.0000 
      8 N          43.4200    7.7620   50.8170 N.am      5 SEP2        0.0000 
      9 N          39.3880    9.0500   53.5765 N.am      2 SEC2        0.0000 
     10 N          39.0690    7.5110   53.1110 N.am      8 SEL2        0.0000 
     11 CA         36.4595    4.9095   54.1665 C.3       3 GLC5        0.0000 
     12 CA         37.6260    6.3680   54.6760 C.3       9 GLL5        0.0000 
     13 CA         35.2930    3.4510   53.6570 C.3       6 GLP5        0.0000 
     14 O          35.4065    7.5485   56.9865 O.2       1 ALC1        0.0000 
     15 O          36.3610    8.1400   55.7100 O.2       7 ALL1        0.0000 
     16 O          34.4520    6.9570   58.2630 O.2       4 ALP1        0.0000 
     17 O          35.2055    7.4130   55.9020 O.2       1 ALC1        0.0000 
     18 O          34.0500    6.6860   56.0940 O.2       4 ALP1        0.0000 
     19 O          35.7305    7.1505   58.1840 O.2       1 ALC1        0.0000 
     20 O          37.0090    7.3440   58.1050 O.2       7 ALL1        0.0000 
     21 CA         36.2250    4.3925   55.1740 C.3       3 GLC5        0.0000 
     22 CA         37.1570    5.3340   56.6910 C.3       9 GLL5        0.0000 
     23 CA         36.7310    5.2450   58.8520 C.3       3 GLC5        0.0000 
     24 CA         36.3050    5.1560   61.0130 C.3       6 GLP5        0.0000 
     25 CA         37.7035    3.6580   60.1910 C.3       3 GLC5        0.0000 
     26 CA         37.7060    2.4650   58.8390 C.3       9 GLL5        0.0000 
     27 CA         37.7010    4.8510   61.5430 C.3       6 GLP5        0.0000 
     28 CA         36.2015    2.2530   60.7325 C.3       3 GLC5        0.0000 
     29 CA         37.1480    1.3740   59.5210 C.3       9 GLL5        0.0000 
     30 CA         35.2550    3.1320   61.9440 C.3       6 GLP5        0.0000 
     31 CA         35.4885    0.7305   60.8180 C.3       3 GLC5        0.0000 
     32 CA         33.8290    0.0870   62.1150 C.3       6 GLP5        0.0000 
     33 CA         36.4875   -0.2685   58.6140 C.3       3 GLC5        0.0000 
     34 CA         35.8270   -1.9110   57.7070 C.3       6 GLP5        0.0000 
     35 O          37.1170   -0.1730   61.4165 O.2       1 ALC1        0.0000 
     36 O          37.7990    0.5210   60.3670 O.2       7 ALL1        0.0000 
     37 O          36.4350   -0.8670   62.4660 O.2       4 ALP1        0.0000 
     38 N          35.1115   -0.1535   59.8210 N.am      2 SEC2        0.0000 
     39 N          35.8320    1.1500   59.3090 N.am      8 SEL2        0.0000 
     40 N          34.3910   -1.4570   60.3330 N.am      5 SEP2        0.0000 
     41 CA         33.5090    3.4805   58.3310 C.3       3 GLC5        0.0000 
     42 CA         35.0580    1.9650   58.5120 C.3       9 GLL5        0.0000 
     43 CA         31.9600    4.9960   58.1500 C.3       6 GLP5        0.0000 
     44 CA         35.1565    2.5485   60.2280 C.3       3 GLC5        0.0000 
     45 CA         34.4435    1.0260   60.3135 C.3       3 GLC5        0.0000 
     46 CA         35.4425    0.0270   58.1095 C.3       3 GLC5        0.0000 
     47 CA         36.5955    4.2245   59.5315 C.3       3 GLC5        0.0000 
     48 CA         36.8860    3.2930   58.0500 C.3       9 GLL5        0.0000 
     49 N          37.6115    7.3160   47.9425 N.am      2 SEC2        0.0000 
     50 N          38.7690    6.7760   48.2250 N.am      8 SEL2        0.0000 
     51 N          36.4540    7.8560   47.6600 N.am      5 SEP2        0.0000 
     52 N          41.7075    8.2285   48.5985 N.am      2 SEC2        0.0000 
     53 N          41.2350    7.0300   49.0520 N.am      8 SEL2        0.0000 
     54 N          42.1800    9.4270   48.1450 N.am      5 SEP2        0.0000 
     55 CA         37.8170    1.4215   47.8065 C.3       3 GLC5        0.0000 
     56 CA         39.1560    2.7350   48.9390 C.3       9 GLL5        0.0000 
     57 CA         36.4780    0.1080   46.6740 C.3       6 GLP5        0.0000 
     58 CA         40.5825    0.9885   51.3630 C.3       3 GLC5        0.0000 
     59 CA         40.1970    1.9370   49.7120 C.3       9 GLL5        0.0000 
     60 CA         40.9680    0.0400   53.0140 C.3       6 GLP5        0.0000 
     61 N          40.5630   -0.7215   49.3420 N.am      2 SEC2        0.0000 
     62 N          39.8880    0.5570   49.7020 N.am      8 SEL2        0.0000 
     63 N          41.2380   -2.0000   48.9820 N.am      5 SEP2        0.0000 
     64 O          38.6510    0.6600   50.1840 O.2       1 ALC1        0.0000 
     65 O          39.8880    0.5570   49.7020 O.2       7 ALL1        0.0000 
     66 O          37.4140    0.7630   50.6660 O.2       4 ALP1        0.0000 
     67 CA         42.0035    0.0360   48.5925 C.3       3 GLC5        0.0000 
     68 CA         41.4550    2.1360   48.8760 C.3       9 GLL5        0.0000 
     69 CA         42.5520   -2.0640   48.3090 C.3       6 GLP5        0.0000 
     70 N          43.4555    0.9245   48.0665 N.am      2 SEC2        0.0000 
     71 N          42.3710    1.0550   49.0630 N.am      8 SEL2        0.0000 
     72 N          44.5400    0.7940   47.0700 N.am      5 SEP2        0.0000 
     73 CA         39.7850    3.6975   46.3135 C.3       3 GLC5        0.0000 
     74 CA         40.8150    2.1890   47.4740 C.3       9 GLL5        0.0000 
     75 CA         38.7550    5.2060   45.1530 C.3       6 GLP5        0.0000 
     76 CA         39.5685    1.4850   46.1490 C.3       3 GLC5        0.0000 
     77 CA         38.3220    0.7810   44.8240 C.3       6 GLP5        0.0000 
     78 N          44.1950    7.1700   43.5640 N.am      2 SEC2        0.0000 
     79 N          44.5720    6.5520   44.8020 N.am      8 SEL2        0.0000 
     80 N          43.8180    7.7880   42.3260 N.am      5 SEP2        0.0000 
     81 O          43.0095    8.2470   45.4485 O.2       1 ALC1        0.0000 
     82 O          42.6990    6.9560   46.2920 O.2       7 ALL1        0.0000 
     83 O          43.3200    9.5380   44.6050 O.2       4 ALP1        0.0000 
     84 CA         40.2075    1.3630   45.1055 C.3       3 GLC5        0.0000 
     85 CA         42.0930    1.9450   45.3870 C.3       9 GLL5        0.0000 
     86 CA         41.4180    1.3320   43.6495 C.3       3 GLC5        0.0000 
     87 CA         40.7430    0.7190   41.9120 C.3       6 GLP5        0.0000 
     88 CA         37.6454    8.6696   54.1606 C.3       3 GLC5        0.0000 
     89 CA         37.5860    7.4720   55.7160 C.3       9 GLL5        0.0000 
     90 CA         37.3580   10.4320   53.3260 C.3       6 GLP5        0.0000 
     91 CA         38.4835    0.4978   58.4855 C.3       3 GLC5        0.0000 
     92 CA         39.5400   -0.9240   57.7910 C.3       6 GLP5        0.0000 
     93 CA         37.2130    3.1090   49.4680 C.3       3 GLC5        0.0000 
     94 CA         38.8740    4.0890   49.5450 C.3       9 GLL5        0.0000 
     95 CA         35.4110    2.8060   49.6940 C.3       6 GLP5        0.0000 
     96 CA         40.6125    4.8015   45.5648 C.3       3 GLC5        0.0000 
     97 CA         42.0510    4.1150   46.4840 C.3       9 GLL5        0.0000 
     98 CA         42.2533    5.3378   43.5637 C.3       3 GLC5        0.0000 
     99 CA         42.8890    4.6790   45.4690 C.3       9 GLL5        0.0000 
    100 CA         41.3890    6.4240   42.1730 C.3       6 GLP5        0.0000 
    101 CA         42.1900    3.0130   42.7995 C.3       3 GLC5        0.0000 
    102 CA         43.3460    3.8240   44.4400 C.3       9 GLL5        0.0000 
    103 CA         41.2260    2.8770   41.1720 C.3       6 GLP5        0.0000 
    104 CA         43.5562    0.3803   44.5072 C.3       3 GLC5        0.0000 
    105 CA         42.9620    2.4740   44.4140 C.3       9 GLL5        0.0000 
    106 CA         44.5850   -1.4490   44.1140 C.3       6 GLP5        0.0000 
@<TRIPOS>BOND
@<TRIPOS>SUBSTRUCTURE
     1 ALC1       14 GROUP        1 X    ALC  0     ROOT ALC X 1
     2 SEC2        1 GROUP        1 X    SEC  0     **** SEC X 2
     3 GLC5       11 GROUP        1 X    GLC  0     **** GLC X 6
     4 ALP1       16 GROUP        1 Y    ALP  0     ROOT ALP Y 8
     5 SEP2        3 GROUP        1 Y    SEP  0     **** SEP Y 9
     6 GLP5       13 GROUP        1 Y    GLP  0     **** GLP Y 13
     7 ALL1       15 GROUP        1 Z    ALL  0     ROOT ALL Z 15
     8 SEL2        2 GROUP        1 Z    SEL  0     **** SEL Z 16
     9 GLL5       12 GROUP        1 Z    GLL  0     **** GLL Z 20
@<TRIPOS>SET

