#    Name: 2ag5_NAD_2_ligand
#    Modification time : Mon Mar 24 19:17:44 2014

@<TRIPOS>MOLECULE
2ag5_NAD_2_ligand
   69    73     1     0     0
SMALL
NO_CHARGES


@<TRIPOS>ATOM
      1 PA         40.2080    7.5930   51.9470 P.3       1 NAD1001     0.0000 
      2 O1A        40.4740    9.0630   51.7410 O.co2     1 NAD1001     0.0000 
      3 O2A        41.4170    6.6170   52.2140 O.co2     1 NAD1001     0.0000 
      4 O5B        39.0690    7.5110   53.1110 O.3       1 NAD1001     0.0000 
      5 C5B        38.9330    6.3170   53.8730 C.3       1 NAD1001     0.0000 
      6 C4B        37.6260    6.3680   54.6760 C.3       1 NAD1001     0.0000 
      7 O4B        37.5080    5.1050   55.3530 O.3       1 NAD1001     0.0000 
      8 C3B        37.5860    7.4720   55.7160 C.3       1 NAD1001     0.0000 
      9 O3B        36.3610    8.1400   55.7100 O.3       1 NAD1001     0.0000 
     10 C2B        37.7190    6.7260   57.0370 C.3       1 NAD1001     0.0000 
     11 O2B        37.0090    7.3440   58.1050 O.3       1 NAD1001     0.0000 
     12 C1B        37.1570    5.3340   56.6910 C.3       1 NAD1001     0.0000 
     13 N9A        37.6520    4.2660   57.5760 N.pl3     1 NAD1001     0.0000 
     14 C8A        38.9270    4.0970   58.0500 C.2       1 NAD1001     0.0000 
     15 N7A        38.9470    3.0090   58.8130 N.2       1 NAD1001     0.0000 
     16 C5A        37.7060    2.4650   58.8390 C.ar      1 NAD1001     0.0000 
     17 C6A        37.1480    1.3740   59.5210 C.ar      1 NAD1001     0.0000 
     18 N6A        37.7990    0.5210   60.3670 N.pl3     1 NAD1001     0.0000 
     19 N1A        35.8320    1.1500   59.3090 N.ar      1 NAD1001     0.0000 
     20 C2A        35.0580    1.9650   58.5120 C.ar      1 NAD1001     0.0000 
     21 N3A        35.5630    3.0570   57.8560 N.ar      1 NAD1001     0.0000 
     22 C4A        36.8860    3.2930   58.0500 C.ar      1 NAD1001     0.0000 
     23 O3         39.2990    7.0570   50.7040 O.3       1 NAD1001     0.0000 
     24 PN         39.8310    6.5210   49.2400 P.3       1 NAD1001     0.0000 
     25 O1N        38.7690    6.7760   48.2250 O.co2     1 NAD1001     0.0000 
     26 O2N        41.2350    7.0300   49.0520 O.co2     1 NAD1001     0.0000 
     27 O5D        40.0450    4.9370   49.5670 O.3       1 NAD1001     0.0000 
     28 C5D        38.8740    4.0890   49.5450 C.3       1 NAD1001     0.0000 
     29 C4D        39.1560    2.7350   48.9390 C.3       1 NAD1001     0.0000 
     30 O4D        39.6270    2.9080   47.6180 O.3       1 NAD1001     0.0000 
     31 C3D        40.1970    1.9370   49.7120 C.3       1 NAD1001     0.0000 
     32 O3D        39.8880    0.5570   49.7020 O.3       1 NAD1001     0.0000 
     33 C2D        41.4550    2.1360   48.8760 C.3       1 NAD1001     0.0000 
     34 O2D        42.3710    1.0550   49.0630 O.3       1 NAD1001     0.0000 
     35 C1D        40.8150    2.1890   47.4740 C.3       1 NAD1001     0.0000 
     36 N1N        41.6590    2.7820   46.4280 N.pl3     1 NAD1001     0.0000 
     37 C2N        42.0510    4.1150   46.4840 C.ar      1 NAD1001     0.0000 
     38 C3N        42.8890    4.6790   45.4690 C.ar      1 NAD1001     0.0000 
     39 C7N        43.3890    6.1120   45.5150 C.2       1 NAD1001     0.0000 
     40 O7N        44.5720    6.5520   44.8020 O.2       1 NAD1001     0.0000 
     41 N7N        42.6990    6.9560   46.2920 N.am      1 NAD1001     0.0000 
     42 C4N        43.3460    3.8240   44.4400 C.ar      1 NAD1001     0.0000 
     43 C5N        42.9620    2.4740   44.4140 C.ar      1 NAD1001     0.0000 
     44 C6N        42.0930    1.9450   45.3870 C.ar      1 NAD1001     0.0000 
     45 H          39.7537    6.1892   54.5866 H         1 NAD1001     0.0000 
     46 H          38.8951    5.4260   53.2375 H         1 NAD1001     0.0000 
     47 H          36.8086    6.4941   53.9880 H         1 NAD1001     0.0000 
     48 H          38.4301    8.0888   55.5998 H         1 NAD1001     0.0000 
     49 H          38.7672    6.5972   57.2317 H         1 NAD1001     0.0000 
     50 H          36.0685    5.4148   56.7815 H         1 NAD1001     0.0000 
     51 H          39.6674    4.6821   57.8496 H         1 NAD1001     0.0000 
     52 H          34.0357    1.7364   58.4045 H         1 NAD1001     0.0000 
     53 H          38.0577    4.5629   48.9671 H         1 NAD1001     0.0000 
     54 H          38.4826    3.9346   50.5686 H         1 NAD1001     0.0000 
     55 H          38.2314    2.1599   48.9348 H         1 NAD1001     0.0000 
     56 H          40.3421    2.3565   50.6483 H         1 NAD1001     0.0000 
     57 H          41.8353    3.0950   49.0947 H         1 NAD1001     0.0000 
     58 H          40.5794    1.1461   47.2078 H         1 NAD1001     0.0000 
     59 H          41.7444    4.7189   47.2576 H         1 NAD1001     0.0000 
     60 H          41.9293    6.5621   46.7944 H         1 NAD1001     0.0000 
     61 H          43.0151    7.9047   46.3004 H         1 NAD1001     0.0000 
     62 H          43.9619    4.1966   43.7098 H         1 NAD1001     0.0000 
     63 H          43.3220    1.8574   43.6696 H         1 NAD1001     0.0000 
     64 H          41.7878    0.9800   45.3360 H         1 NAD1001     0.0000 
     65 H          35.6795    7.4323   55.8965 H         1 NAD1001     0.0000 
     66 H          36.0574    7.0633   57.9796 H         1 NAD1001     0.0000 
     67 H          37.1137   -0.1598   60.6256 H         1 NAD1001     0.0000 
     68 H          39.2725    0.4241   50.4788 H         1 NAD1001     0.0000 
     69 H          41.8396    0.3417   49.5199 H         1 NAD1001     0.0000 
@<TRIPOS>BOND
     1    2    1 ar   
     2    3    1 ar   
     3    4    1 1    
     4   23    1 1    
     5    5    4 1    
     6    6    5 1    
     7   45    5 1    
     8   46    5 1    
     9    7    6 1    
    10    8    6 1    
    11   47    6 1    
    12   12    7 1    
    13    9    8 1    
    14   10    8 1    
    15   48    8 1    
    16   65    9 1    
    17   11   10 1    
    18   12   10 1    
    19   49   10 1    
    20   66   11 1    
    21   13   12 1    
    22   50   12 1    
    23   14   13 1    
    24   22   13 1    
    25   15   14 2    
    26   51   14 1    
    27   16   15 1    
    28   17   16 ar   
    29   22   16 ar   
    30   18   17 1    
    31   19   17 ar   
    32   67   18 1    
    33   20   19 ar   
    34   21   20 ar   
    35   52   20 1    
    36   22   21 ar   
    37   24   23 1    
    38   25   24 ar   
    39   26   24 ar   
    40   27   24 1    
    41   28   27 1    
    42   29   28 1    
    43   53   28 1    
    44   54   28 1    
    45   30   29 1    
    46   31   29 1    
    47   55   29 1    
    48   35   30 1    
    49   32   31 1    
    50   33   31 1    
    51   56   31 1    
    52   68   32 1    
    53   34   33 1    
    54   35   33 1    
    55   57   33 1    
    56   69   34 1    
    57   36   35 1    
    58   58   35 1    
    59   37   36 ar   
    60   44   36 ar   
    61   38   37 ar   
    62   59   37 1    
    63   39   38 1    
    64   42   38 ar   
    65   40   39 2    
    66   41   39 am   
    67   60   41 1    
    68   61   41 1    
    69   43   42 ar   
    70   62   42 1    
    71   44   43 ar   
    72   63   43 1    
    73   64   44 1    
@<TRIPOS>SUBSTRUCTURE
     1 NAD1001     1 GROUP   
@<TRIPOS>SET

