#    Name: 3daa_PDD_1_INTS_M
#    Modification time : Mon Mar 24 22:59:07 2014

@<TRIPOS>MOLECULE
3daa_PDD_1_INTS_M
   65     0    12     0     0
SMALL
NO_CHARGES


@<TRIPOS>ATOM
      1 CA         31.7520   10.3845  -11.3685 C.3       4 GLC5        0.0000 
      2 CA         32.5810   11.5970   -9.7710 C.3      12 GLL5        0.0000 
      3 CA         30.9230    9.1720  -12.9660 C.3       8 GLP5        0.0000 
      4 CA         31.7160   14.0975  -11.1865 C.3       4 GLC5        0.0000 
      5 CA         31.8820   12.8460   -9.3520 C.3      12 GLL5        0.0000 
      6 CA         31.5500   15.3490  -13.0210 C.3       8 GLP5        0.0000 
      7 O          31.0445   11.3445   -6.9530 O.2       1 ALC1        0.0000 
      8 O          32.1190   10.5970   -7.6450 O.2       9 ALL1        0.0000 
      9 O          29.9700   12.0920   -6.2610 O.2       5 ALP1        0.0000 
     10 CA         32.3105    6.5825  -10.3580 C.3       4 GLC5        0.0000 
     11 CA         32.6240    7.9720   -8.7060 C.3      12 GLL5        0.0000 
     12 CA         31.9970    5.1930  -12.0100 C.3       8 GLP5        0.0000 
     13 CA         32.7220    8.6180  -12.0895 C.3       4 GLC5        0.0000 
     14 CA         34.5210    8.0640  -11.2130 C.3      12 GLL5        0.0000 
     15 CA         35.5040    9.6380  -10.0285 C.3       4 GLC5        0.0000 
     16 CA         36.4870   11.2120   -8.8440 C.3       8 GLP5        0.0000 
     17 CA         33.8930    6.4600  -12.0085 C.3       4 GLC5        0.0000 
     18 CA         33.2650    4.8560  -12.8040 C.3       8 GLP5        0.0000 
     19 N          35.1200    4.5770  -10.5370 N.am      2 SEC2        0.0000 
     20 N          35.7870    5.7000   -9.8740 N.am     10 SEL2        0.0000 
     21 N          34.4530    3.4540  -11.2000 N.am      6 SEP2        0.0000 
     22 N          36.3085    4.5230   -9.6690 N.am      2 SEC2        0.0000 
     23 N          36.8300    3.3460   -9.4640 N.am      6 SEP2        0.0000 
     24 NZ         38.7805    8.0140   -9.8815 N.4       3 LYC4        0.0000 
     25 NZ         37.9710    6.7890  -10.2280 N.4      11 LYL4        0.0000 
     26 NZ         39.7470    8.7420   -8.3170 N.4       7 LYP4        0.0000 
     27 N          38.7805    8.0140   -9.8815 N.am      2 SEC2        0.0000 
     28 N          37.9710    6.7890  -10.2280 N.am     10 SEL2        0.0000 
     29 N          39.5900    9.2390   -9.5350 N.am      6 SEP2        0.0000 
     30 N          38.4455    7.2945   -9.0560 N.am      2 SEC2        0.0000 
     31 N          38.9200    7.8000   -7.8840 N.am      6 SEP2        0.0000 
     32 N          38.8575    7.0635  -11.3440 N.am      2 SEC2        0.0000 
     33 N          39.7440    7.3380  -12.4600 N.am      6 SEP2        0.0000 
     34 N          37.7750    5.6580  -13.0705 N.am      2 SEC2        0.0000 
     35 N          36.6290    6.0610  -12.1320 N.am     10 SEL2        0.0000 
     36 N          38.9210    5.2550  -14.0090 N.am      6 SEP2        0.0000 
     37 N          36.6760    4.8335  -12.8220 N.am      2 SEC2        0.0000 
     38 N          36.7230    3.6060  -13.5120 N.am      6 SEP2        0.0000 
     39 CA         33.6310    5.2955   -5.2065 C.3       4 GLC5        0.0000 
     40 CA         33.1070    6.4500   -6.7160 C.3      12 GLL5        0.0000 
     41 CA         34.1550    4.1410   -3.6970 C.3       8 GLP5        0.0000 
     42 CA         34.8095    7.5630   -6.0755 C.3       4 GLC5        0.0000 
     43 CA         36.5120    8.6760   -5.4350 C.3       8 GLP5        0.0000 
     44 CA         33.9945    4.2430   -6.0545 C.3       4 GLC5        0.0000 
     45 CA         32.9250    5.1120   -7.4530 C.3      12 GLL5        0.0000 
     46 CA         35.0640    3.3740   -4.6560 C.3       8 GLP5        0.0000 
     47 CA         34.3250    3.7785   -8.3780 C.3       4 GLC5        0.0000 
     48 CA         35.7250    2.4450   -9.3030 C.3       8 GLP5        0.0000 
     49 N          32.1945    8.8665   -4.6625 N.am      2 SEC2        0.0000 
     50 N          31.5640    7.7840   -5.3270 N.am     10 SEL2        0.0000 
     51 N          32.8250    9.9490   -3.9980 N.am      6 SEP2        0.0000 
     52 N          31.2065    7.6500   -3.7270 N.am      2 SEC2        0.0000 
     53 N          30.8490    7.5160   -2.1270 N.am      6 SEP2        0.0000 
     54 N          30.7120    5.4600   -3.9490 N.am      2 SEC2        0.0000 
     55 N          31.1460    5.6190   -5.5860 N.am     10 SEL2        0.0000 
     56 N          30.2780    5.3010   -2.3120 N.am      6 SEP2        0.0000 
     57 CA         30.7543   10.9657   -9.5697 C.3       4 GLC5        0.0000 
     58 CA         29.2770    9.7100   -9.5780 C.3       8 GLP5        0.0000 
     59 CA         34.5328   11.1237   -9.1013 C.3       4 GLC5        0.0000 
     60 CA         30.9940    9.3123   -9.2656 C.3       4 GLC5        0.0000 
     61 CA         32.5760   10.4740   -8.9460 C.3      12 GLL5        0.0000 
     62 CA         32.2552    9.5179  -11.8426 C.3       4 GLC5        0.0000 
     63 CA         33.0200    9.2400   -9.4550 C.3      12 GLL5        0.0000 
     64 CA         35.0373   10.5379   -9.7816 C.3       4 GLC5        0.0000 
     65 CA         33.7790   10.4740  -11.3800 C.3      12 GLL5        0.0000 
@<TRIPOS>BOND
@<TRIPOS>SUBSTRUCTURE
     1 ALC1        7 GROUP        1 X    ALC  0     ROOT ALC X 1
     2 SEC2       19 GROUP        1 X    SEC  0     **** SEC X 2
     3 LYC4       24 GROUP        1 X    LYC  0     **** LYC X 4
     4 GLC5        1 GROUP        1 X    GLC  0     **** GLC X 6
     5 ALP1        9 GROUP        1 Y    ALP  0     ROOT ALP Y 8
     6 SEP2       21 GROUP        1 Y    SEP  0     **** SEP Y 9
     7 LYP4       26 GROUP        1 Y    LYP  0     **** LYP Y 11
     8 GLP5        3 GROUP        1 Y    GLP  0     **** GLP Y 13
     9 ALL1        8 GROUP        1 Z    ALL  0     ROOT ALL Z 15
    10 SEL2       20 GROUP        1 Z    SEL  0     **** SEL Z 16
    11 LYL4       25 GROUP        1 Z    LYL  0     **** LYL Z 18
    12 GLL5        2 GROUP        1 Z    GLL  0     **** GLL Z 20
@<TRIPOS>SET

