#    Name: 3daa_PDD_1_ligand
#    Modification time : Mon Mar 24 22:59:07 2014

@<TRIPOS>MOLECULE
3daa_PDD_1_ligand
   34    34     1     0     0
SMALL
NO_CHARGES


@<TRIPOS>ATOM
      1 N          33.5170    7.5360   -7.6290 N.4       1 PDD285      0.0000 
      2 N1         33.1990   11.6190  -10.9550 N.ar      1 PDD285      0.0000 
      3 C2         32.5810   11.5970   -9.7710 C.ar      1 PDD285      0.0000 
      4 C2A        31.8820   12.8460   -9.3520 C.3       1 PDD285      0.0000 
      5 C3         32.5760   10.4740   -8.9460 C.ar      1 PDD285      0.0000 
      6 O3A        32.1190   10.5970   -7.6450 O.3       1 PDD285      0.0000 
      7 C4         33.0200    9.2400   -9.4550 C.ar      1 PDD285      0.0000 
      8 C4A        32.6240    7.9720   -8.7060 C.3       1 PDD285      0.0000 
      9 C5         33.7720    9.2670  -10.6620 C.ar      1 PDD285      0.0000 
     10 C5A        34.5210    8.0640  -11.2130 C.3       1 PDD285      0.0000 
     11 OP4        35.8730    8.0110  -10.7740 O.3       1 PDD285      0.0000 
     12 P          36.5730    6.6220  -10.7470 P.3       1 PDD285      0.0000 
     13 OP1        35.7870    5.7000   -9.8740 O.co2     1 PDD285      0.0000 
     14 OP2        37.9710    6.7890  -10.2280 O.co2     1 PDD285      0.0000 
     15 OP3        36.6290    6.0610  -12.1320 O.co2     1 PDD285      0.0000 
     16 C6         33.7790   10.4740  -11.3800 C.ar      1 PDD285      0.0000 
     17 CA         33.1070    6.4500   -6.7160 C.3       1 PDD285      0.0000 
     18 CB         32.9250    5.1120   -7.4530 C.3       1 PDD285      0.0000 
     19 C          31.8720    6.7350   -5.8020 C.2       1 PDD285      0.0000 
     20 O          31.5640    7.7840   -5.3270 O.co2     1 PDD285      0.0000 
     21 OXT        31.1460    5.6190   -5.5860 O.co2     1 PDD285      0.0000 
     22 H          31.5872    8.1247   -8.3048 H         1 PDD285      0.0000 
     23 H          32.5098    7.1521   -9.4636 H         1 PDD285      0.0000 
     24 H          34.4557    8.1082  -12.3202 H         1 PDD285      0.0000 
     25 H          33.9608    7.1546  -10.9110 H         1 PDD285      0.0000 
     26 H          34.2794   10.4651  -12.3184 H         1 PDD285      0.0000 
     27 H          33.9657    6.2609   -5.9945 H         1 PDD285      0.0000 
     28 H          32.5119   13.6199   -9.2862 H         1 PDD285      0.0000 
     29 H          31.1654   13.1056   -9.9994 H         1 PDD285      0.0000 
     30 H          31.4465   12.7456   -8.4574 H         1 PDD285      0.0000 
     31 H          33.7694    4.8161   -7.8995 H         1 PDD285      0.0000 
     32 H          32.6505    4.3793   -6.8303 H         1 PDD285      0.0000 
     33 H          32.2233    5.1715   -8.1630 H         1 PDD285      0.0000 
     34 H          31.3435   11.2259   -7.7016 H         1 PDD285      0.0000 
@<TRIPOS>BOND
     1    8    1 1    
     2   17    1 1    
     3    3    2 ar   
     4   16    2 ar   
     5    4    3 1    
     6    5    3 ar   
     7   28    4 1    
     8   29    4 1    
     9   30    4 1    
    10    6    5 1    
    11    7    5 ar   
    12   34    6 1    
    13    8    7 1    
    14    9    7 ar   
    15   22    8 1    
    16   23    8 1    
    17   10    9 1    
    18   16    9 ar   
    19   11   10 1    
    20   24   10 1    
    21   25   10 1    
    22   12   11 1    
    23   13   12 ar   
    24   14   12 ar   
    25   15   12 ar   
    26   26   16 1    
    27   18   17 1    
    28   19   17 1    
    29   27   17 1    
    30   31   18 1    
    31   32   18 1    
    32   33   18 1    
    33   20   19 ar   
    34   21   19 ar   
@<TRIPOS>SUBSTRUCTURE
     1 PDD285      1 GROUP   
@<TRIPOS>SET

