#    Name: 3i0s_RT7_1_INTS_M
#    Modification time : Tue Mar 25 15:26:50 2014

@<TRIPOS>MOLECULE
3i0s_RT7_1_INTS_M
   85     0     9     0     0
SMALL
NO_CHARGES


@<TRIPOS>ATOM
      1 CA         12.3510   15.6225   21.1910 C.3       3 GLC5        0.0000 
      2 CA         10.5160   15.3650   21.2760 C.3       9 GLL5        0.0000 
      3 CA         14.1860   15.8800   21.1060 C.3       6 GLP5        0.0000 
      4 CA         11.9920   13.8180   21.6080 C.3       3 GLC5        0.0000 
      5 CA         13.4680   12.2710   21.9400 C.3       6 GLP5        0.0000 
      6 CA          9.8620   15.6665   22.9050 C.3       3 GLC5        0.0000 
      7 CA          9.2080   15.9680   24.5340 C.3       6 GLP5        0.0000 
      8 CA          9.8585    9.9185   17.3650 C.3       3 GLC5        0.0000 
      9 CA          8.8740   11.4100   18.0630 C.3       9 GLL5        0.0000 
     10 CA         10.8430    8.4270   16.6670 C.3       6 GLP5        0.0000 
     11 CA         10.2985   11.1750   19.5430 C.3       3 GLC5        0.0000 
     12 CA         11.7230   10.9400   21.0230 C.3       6 GLP5        0.0000 
     13 CA          8.3000    9.6955   19.2580 C.3       3 GLC5        0.0000 
     14 CA          7.7260    7.9810   20.4530 C.3       6 GLP5        0.0000 
     15 CA          7.8285   12.4405   19.6605 C.3       3 GLC5        0.0000 
     16 CA          6.7830   13.4710   21.2580 C.3       6 GLP5        0.0000 
     17 CA         14.1785   15.3680   14.9785 C.3       3 GLC5        0.0000 
     18 CA         12.4950   15.3050   16.4620 C.3       9 GLL5        0.0000 
     19 CA         15.8620   15.4310   13.4950 C.3       6 GLP5        0.0000 
     20 CA         12.9240   12.3440   17.4460 C.3       3 GLC5        0.0000 
     21 CA         12.2690   12.9810   15.3960 C.3       9 GLL5        0.0000 
     22 CA         13.5790   11.7070   19.4960 C.3       6 GLP5        0.0000 
     23 CA          8.1095   14.6595   16.3545 C.3       3 GLC5        0.0000 
     24 CA          8.2880   12.9400   15.4580 C.3       9 GLL5        0.0000 
     25 CA          7.9310   16.3790   17.2510 C.3       6 GLP5        0.0000 
     26 CA          6.3075   13.9040   15.4965 C.3       3 GLC5        0.0000 
     27 CA          4.3270   14.8680   15.5350 C.3       6 GLP5        0.0000 
     28 CA          7.5240   14.8945   14.4710 C.3       3 GLC5        0.0000 
     29 CA          7.1410   12.7580   14.1170 C.3       9 GLL5        0.0000 
     30 CA          7.9070   17.0310   14.8250 C.3       6 GLP5        0.0000 
     31 CA          6.7780   13.0845   11.9910 C.3       3 GLC5        0.0000 
     32 CA          6.4150   13.4110    9.8650 C.3       6 GLP5        0.0000 
     33 CA          5.4845   13.1680   14.8090 C.3       3 GLC5        0.0000 
     34 CA          3.8280   13.5780   15.5010 C.3       6 GLP5        0.0000 
     35 N           7.3290   11.2390   11.4085 N.am      2 SEC2        0.0000 
     36 N           6.8040   10.9770   12.6450 N.am      8 SEL2        0.0000 
     37 N           7.8540   11.5010   10.1720 N.am      5 SEP2        0.0000 
     38 CA          7.3405    8.5725   16.3690 C.3       3 GLC5        0.0000 
     39 CA          5.8130    9.1040   17.5030 C.3       9 GLL5        0.0000 
     40 CA          8.8680    8.0410   15.2350 C.3       6 GLP5        0.0000 
     41 CA          6.7695    8.5425   18.9780 C.3       3 GLC5        0.0000 
     42 CA          5.4285   10.5130   18.8345 C.3       3 GLC5        0.0000 
     43 CA          5.0440   11.9220   20.1660 C.3       6 GLP5        0.0000 
     44 CA          3.8550    9.2230   17.6315 C.3       3 GLC5        0.0000 
     45 CA          1.8970    9.3420   17.7600 C.3       6 GLP5        0.0000 
     46 CA          5.4040    6.0690   17.6230 C.3       3 GLC5        0.0000 
     47 CA          6.2290    6.9550   15.8080 C.3       9 GLL5        0.0000 
     48 CA          4.5790    5.1830   19.4380 C.3       6 GLP5        0.0000 
     49 O           9.1590    4.7425   15.7180 O.2       1 ALC1        0.0000 
     50 O           8.0940    4.3270   14.8360 O.2       7 ALL1        0.0000 
     51 O          10.2240    5.1580   16.6000 O.2       4 ALP1        0.0000 
     52 CA          8.6822   14.2348   20.8665 C.3       3 GLC5        0.0000 
     53 CA         10.6470   14.6320   19.6740 C.3       9 GLL5        0.0000 
     54 CA          9.0990   15.2245   18.4080 C.3       3 GLC5        0.0000 
     55 CA          9.8870   13.5080   19.4560 C.3       9 GLL5        0.0000 
     56 CA         11.9230   12.8885   19.5305 C.3       3 GLC5        0.0000 
     57 CA          8.3428   13.3298   20.0532 C.3       3 GLC5        0.0000 
     58 CA          9.1408   14.7675   17.4810 C.3       3 GLC5        0.0000 
     59 CA          9.9180   12.8690   18.2410 C.3       9 GLL5        0.0000 
     60 CA         11.9648   12.4315   18.6035 C.3       3 GLC5        0.0000 
     61 CA         10.7830   13.4430   17.1810 C.3       9 GLL5        0.0000 
     62 CA         10.6735   16.2980   17.1908 C.3       3 GLC5        0.0000 
     63 CA         11.5770   14.6570   17.4780 C.3       9 GLL5        0.0000 
     64 CA          9.8230   17.6610   16.2760 C.3       6 GLP5        0.0000 
     65 CA         12.5515   13.3210   18.8008 C.3       3 GLC5        0.0000 
     66 CA         11.4710   15.2130   18.7330 C.3       9 GLL5        0.0000 
     67 CA         11.1753   16.2740   16.0500 C.3       3 GLC5        0.0000 
     68 CA         13.6393   15.2475   18.0754 C.3       3 GLC5        0.0000 
     69 CA         15.2690   15.3750   18.8670 C.3       6 GLP5        0.0000 
     70 CA         13.4733   13.7650   13.7095 C.3       3 GLC5        0.0000 
     71 CA         12.5600   14.4690   15.1860 C.3       9 GLL5        0.0000 
     72 CA         14.5320   13.8050   12.1280 C.3       6 GLP5        0.0000 
     73 CA          7.5627    8.4022   15.2775 C.3       3 GLC5        0.0000 
     74 CA          6.3580    9.1860   14.7200 C.3       9 GLL5        0.0000 
     75 CA          4.5192    8.3908   14.8315 C.3       3 GLC5        0.0000 
     76 CA          2.7810    8.0180   14.3430 C.3       6 GLP5        0.0000 
     77 CA          7.6123    7.3468   15.2125 C.3       3 GLC5        0.0000 
     78 CA          4.5687    7.3353   14.7665 C.3       3 GLC5        0.0000 
     79 CA          8.0750    6.0520   12.7455 C.3       3 GLC5        0.0000 
     80 CA          6.4840    6.3500   14.5720 C.3       9 GLL5        0.0000 
     81 CA          9.5710    5.3470   11.4790 C.3       6 GLP5        0.0000 
     82 CA          7.7555    7.9488   14.3600 C.3       3 GLC5        0.0000 
     83 CA          6.6740    7.1640   13.4520 C.3       9 GLL5        0.0000 
     84 CA          4.7120    7.9373   13.9140 C.3       3 GLC5        0.0000 
     85 CA          6.6120    8.5490   13.5180 C.3       9 GLL5        0.0000 
@<TRIPOS>BOND
@<TRIPOS>SUBSTRUCTURE
     1 ALC1       49 GROUP        1 X    ALC  0     ROOT ALC X 1
     2 SEC2       35 GROUP        1 X    SEC  0     **** SEC X 2
     3 GLC5        1 GROUP        1 X    GLC  0     **** GLC X 6
     4 ALP1       51 GROUP        1 Y    ALP  0     ROOT ALP Y 8
     5 SEP2       37 GROUP        1 Y    SEP  0     **** SEP Y 9
     6 GLP5        3 GROUP        1 Y    GLP  0     **** GLP Y 13
     7 ALL1       50 GROUP        1 Z    ALL  0     ROOT ALL Z 15
     8 SEL2       36 GROUP        1 Z    SEL  0     **** SEL Z 16
     9 GLL5        2 GROUP        1 Z    GLL  0     **** GLL Z 20
@<TRIPOS>SET

