#    Name: 3i0s_RT7_1_ligand
#    Modification time : Tue Mar 25 15:26:51 2014

@<TRIPOS>MOLECULE
3i0s_RT7_1_ligand
   46    48     1     0     0
SMALL
NO_CHARGES


@<TRIPOS>ATOM
      1 CL30       10.5160   15.3650   21.2760 Cl        1 RT7601      0.0000 
      2 C4         10.6470   14.6320   19.6740 C.ar      1 RT7601      0.0000 
      3 C3          9.8870   13.5080   19.4560 C.ar      1 RT7601      0.0000 
      4 C2          9.9180   12.8690   18.2410 C.ar      1 RT7601      0.0000 
      5 CL29        8.8740   11.4100   18.0630 Cl        1 RT7601      0.0000 
      6 C5         11.4710   15.2130   18.7330 C.ar      1 RT7601      0.0000 
      7 C6         11.5770   14.6570   17.4780 C.ar      1 RT7601      0.0000 
      8 C10        12.4950   15.3050   16.4620 C.3       1 RT7601      0.0000 
      9 C9         12.5600   14.4690   15.1860 C.3       1 RT7601      0.0000 
     10 C8         12.2690   12.9810   15.3960 C.3       1 RT7601      0.0000 
     11 N7         10.9150   12.9020   15.9160 N.am      1 RT7601      0.0000 
     12 C1         10.7830   13.4430   17.1810 C.ar      1 RT7601      0.0000 
     13 C11         9.8720   12.3890   15.2450 C.2       1 RT7601      0.0000 
     14 O22        10.0720   11.4910   14.4430 O.2       1 RT7601      0.0000 
     15 S12         8.2880   12.9400   15.4580 S.3       1 RT7601      0.0000 
     16 C13         7.1410   12.7580   14.1170 C.3       1 RT7601      0.0000 
     17 C14         6.7370   11.3340   13.8050 C.2       1 RT7601      0.0000 
     18 O23         6.8040   10.9770   12.6450 O.2       1 RT7601      0.0000 
     19 N15         6.3000   10.5430   14.7950 N.am      1 RT7601      0.0000 
     20 C16         6.3580    9.1860   14.7200 C.ar      1 RT7601      0.0000 
     21 C17         6.1570    8.3410   15.9200 C.ar      1 RT7601      0.0000 
     22 CL24        5.8130    9.1040   17.5030 Cl        1 RT7601      0.0000 
     23 C18         6.2290    6.9550   15.8080 C.ar      1 RT7601      0.0000 
     24 C19         6.4840    6.3500   14.5720 C.ar      1 RT7601      0.0000 
     25 S25         6.5950    4.7310   14.4300 S.o2      1 RT7601      0.0000 
     26 N28         8.0940    4.3270   14.8360 N.pl3     1 RT7601      0.0000 
     27 O27         5.6300    4.1020   15.2970 O.2       1 RT7601      0.0000 
     28 O26         6.3960    4.3210   13.0560 O.2       1 RT7601      0.0000 
     29 C20         6.6740    7.1640   13.4520 C.ar      1 RT7601      0.0000 
     30 C21         6.6120    8.5490   13.5180 C.ar      1 RT7601      0.0000 
     31 H           9.2846   13.1393   20.2165 H         1 RT7601      0.0000 
     32 H          12.0063   16.0623   18.9700 H         1 RT7601      0.0000 
     33 H          13.4968   15.3953   16.8804 H         1 RT7601      0.0000 
     34 H          12.1248   16.3000   16.2178 H         1 RT7601      0.0000 
     35 H          13.5625   14.5756   14.7383 H         1 RT7601      0.0000 
     36 H          11.8386   14.8729   14.4557 H         1 RT7601      0.0000 
     37 H          12.9873   12.5896   16.0988 H         1 RT7601      0.0000 
     38 H          12.3588   12.4792   14.4457 H         1 RT7601      0.0000 
     39 H           7.6550   13.2454   13.2904 H         1 RT7601      0.0000 
     40 H           6.3033   13.3795   14.4284 H         1 RT7601      0.0000 
     41 H           5.8947   10.9808   15.6679 H         1 RT7601      0.0000 
     42 H           6.0934    6.3650   16.6432 H         1 RT7601      0.0000 
     43 H           8.5428    4.9180   15.5063 H         1 RT7601      0.0000 
     44 H           8.4673    3.5145   14.3883 H         1 RT7601      0.0000 
     45 H           6.8699    6.7088   12.5319 H         1 RT7601      0.0000 
     46 H           6.7571    9.1081   12.6605 H         1 RT7601      0.0000 
@<TRIPOS>BOND
     1    2    1 1    
     2    3    2 ar   
     3    6    2 ar   
     4    4    3 ar   
     5   31    3 1    
     6    5    4 1    
     7   12    4 ar   
     8    7    6 ar   
     9   32    6 1    
    10    8    7 1    
    11   12    7 ar   
    12    9    8 1    
    13   33    8 1    
    14   34    8 1    
    15   10    9 1    
    16   35    9 1    
    17   36    9 1    
    18   11   10 1    
    19   37   10 1    
    20   38   10 1    
    21   12   11 1    
    22   13   11 am   
    23   14   13 2    
    24   15   13 1    
    25   16   15 1    
    26   17   16 1    
    27   39   16 1    
    28   40   16 1    
    29   18   17 2    
    30   19   17 am   
    31   20   19 1    
    32   41   19 1    
    33   21   20 ar   
    34   30   20 ar   
    35   22   21 1    
    36   23   21 ar   
    37   24   23 ar   
    38   42   23 1    
    39   25   24 1    
    40   29   24 ar   
    41   26   25 1    
    42   27   25 2    
    43   28   25 2    
    44   43   26 1    
    45   44   26 1    
    46   30   29 ar   
    47   45   29 1    
    48   46   30 1    
@<TRIPOS>SUBSTRUCTURE
     1 RT7601      1 GROUP   
@<TRIPOS>SET

