#    Name: 4hdc_13Y_1_INTS_M
#    Modification time : Tue Mar 25 00:50:48 2014

@<TRIPOS>MOLECULE
4hdc_13Y_1_INTS_M
   77     0    12     0     0
SMALL
NO_CHARGES


@<TRIPOS>ATOM
      1 CA         20.4515   -0.3655    3.4730 C.3       4 GLC5        0.0000 
      2 CA         18.6210   -0.5640    2.4550 C.3      12 GLL5        0.0000 
      3 CA         22.2820   -0.1670    4.4910 C.3       8 GLP5        0.0000 
      4 CA         21.2595    0.0140    0.0125 C.3       4 GLC5        0.0000 
      5 CA         19.6990   -0.2680    1.1600 C.3      12 GLL5        0.0000 
      6 CA         22.8200    0.2960   -1.1350 C.3       8 GLP5        0.0000 
      7 CA         21.0530    0.3530    2.3135 C.3       4 GLC5        0.0000 
      8 CA         22.4070    0.9740    3.4670 C.3       8 GLP5        0.0000 
      9 CA         19.7970    1.6580    0.7845 C.3       4 GLC5        0.0000 
     10 CA         19.8950    3.5840    0.4090 C.3       8 GLP5        0.0000 
     11 CA         17.7655   -0.1160    0.6280 C.3       4 GLC5        0.0000 
     12 CA         15.8320    0.0360    0.0960 C.3       8 GLP5        0.0000 
     13 CA         20.1765   -1.6985    0.2325 C.3       4 GLC5        0.0000 
     14 CA         20.6540   -3.1290   -0.6950 C.3       8 GLP5        0.0000 
     15 CA         19.2415   -2.4205    0.8745 C.3       4 GLC5        0.0000 
     16 CA         17.8290   -1.7120    2.4440 C.3      12 GLL5        0.0000 
     17 CA         18.4505    2.3625    2.8715 C.3       4 GLC5        0.0000 
     18 CA         18.5180    0.3980    3.4600 C.3      12 GLL5        0.0000 
     19 CA         18.3830    4.3270    2.2830 C.3       8 GLP5        0.0000 
     20 CA         14.3345    3.2565    2.8975 C.3       4 GLC5        0.0000 
     21 CA         13.4970    4.4440    4.6110 C.3      12 GLL5        0.0000 
     22 CA         15.1720    2.0690    1.1840 C.3       8 GLP5        0.0000 
     23 CA         16.4565    4.9155    6.0660 C.3       4 GLC5        0.0000 
     24 CA         14.5670    5.3970    5.1620 C.3      12 GLL5        0.0000 
     25 CA         18.3460    4.4340    6.9700 C.3       8 GLP5        0.0000 
     26 CA         16.7575    5.2755    3.1380 C.3       4 GLC5        0.0000 
     27 CA         15.1320    6.2240    3.9930 C.3      12 GLL5        0.0000 
     28 CA         10.2980   -1.7240    4.1310 C.3       4 GLC5        0.0000 
     29 CA         10.4220    0.1580    4.1430 C.3      12 GLL5        0.0000 
     30 CA         10.1740   -3.6060    4.1190 C.3       8 GLP5        0.0000 
     31 CA          9.5520    1.7630    2.4650 C.3       4 GLC5        0.0000 
     32 CA         11.2310    0.9840    3.1180 C.3      12 GLL5        0.0000 
     33 CA          7.8730    2.5420    1.8120 C.3       8 GLP5        0.0000 
     34 CA         13.8120    1.8315    2.4975 C.3       4 GLC5        0.0000 
     35 CA         12.4520    1.5940    3.8110 C.3      12 GLL5        0.0000 
     36 CA         13.8735   -0.1400    1.6615 C.3       4 GLC5        0.0000 
     37 CA         12.1810   -1.0400    2.0600 C.3      12 GLL5        0.0000 
     38 CA         15.5660    0.7600    1.2630 C.3       8 GLP5        0.0000 
     39 N          13.3435   -3.0700   -1.5780 N.am      2 SEC2        0.0000 
     40 N          12.9330   -1.7420   -1.3510 N.am     10 SEL2        0.0000 
     41 N          13.7540   -4.3980   -1.8050 N.am      6 SEP2        0.0000 
     42 N          12.8170   -1.5935   -2.6110 N.am      2 SEC2        0.0000 
     43 N          12.7010   -1.4450   -3.8710 N.am      6 SEP2        0.0000 
     44 O          11.9310    0.8035   -1.4285 O.2       1 ALC1        0.0000 
     45 O          12.0320    0.0910   -0.3460 O.2       9 ALL1        0.0000 
     46 O          11.8300    1.5160   -2.5110 O.2       5 ALP1        0.0000 
     47 N          11.5375    2.7435   -0.5350 N.am      2 SEC2        0.0000 
     48 N          11.1430    1.9600    0.5090 N.am     10 SEL2        0.0000 
     49 N          11.9320    3.5270   -1.5790 N.am      6 SEP2        0.0000 
     50 CA         12.0715   -4.4155    2.0600 C.3       4 GLC5        0.0000 
     51 CA         13.2110   -3.1470    1.1740 C.3      12 GLL5        0.0000 
     52 CA         10.9320   -5.6840    2.9460 C.3       8 GLP5        0.0000 
     53 NZ         19.1085    0.0235    8.5580 N.4       3 LYC4        0.0000 
     54 NZ         17.7370    0.6880    9.3270 N.4      11 LYL4        0.0000 
     55 NZ         21.0970   -0.1540    8.8540 N.4       7 LYP4        0.0000 
     56 N          19.1085    0.0235    8.5580 N.am      2 SEC2        0.0000 
     57 N          17.7370    0.6880    9.3270 N.am     10 SEL2        0.0000 
     58 N          20.4800   -0.6410    7.7890 N.am      6 SEP2        0.0000 
     59 N          19.0695    0.4410    9.6275 N.am      2 SEC2        0.0000 
     60 N          20.4020    0.1940    9.9280 N.am      6 SEP2        0.0000 
     61 NZ         17.6370   -0.8650    7.7320 N.4      11 LYL4        0.0000 
     62 N          19.0585   -0.7530    7.7605 N.am      2 SEC2        0.0000 
     63 N          17.6370   -0.8650    7.7320 N.am     10 SEL2        0.0000 
     64 CA         18.9557   -2.7553    3.8546 C.3       4 GLC5        0.0000 
     65 CA         20.3520   -3.9930    4.7620 C.3       8 GLP5        0.0000 
     66 CA         19.6865    0.2082    4.7985 C.3       4 GLC5        0.0000 
     67 CA         21.3130    0.1250    5.6210 C.3       8 GLP5        0.0000 
     68 CA         17.0915    3.0507    6.5874 C.3       4 GLC5        0.0000 
     69 CA         16.3780    1.3980    6.1830 C.3      12 GLL5        0.0000 
     70 CA          8.7722    1.3642    3.8840 C.3       4 GLC5        0.0000 
     71 CA         10.0150    1.0550    5.3230 C.3      12 GLL5        0.0000 
     72 CA          7.3260    2.1220    3.0350 C.3       8 GLP5        0.0000 
     73 CA         11.2942   -2.5032    2.8290 C.3       4 GLC5        0.0000 
     74 CA         14.3807   -1.2090    0.5960 C.3       4 GLC5        0.0000 
     75 CA         12.6480   -1.7610    1.0180 C.3      12 GLL5        0.0000 
     76 CA         11.1214   -2.8869    0.6997 C.3       4 GLC5        0.0000 
     77 CA          9.4300   -3.5000    0.0430 C.3       8 GLP5        0.0000 
@<TRIPOS>BOND
@<TRIPOS>SUBSTRUCTURE
     1 ALC1       44 GROUP        1 X    ALC  0     ROOT ALC X 1
     2 SEC2       39 GROUP        1 X    SEC  0     **** SEC X 2
     3 LYC4       53 GROUP        1 X    LYC  0     **** LYC X 4
     4 GLC5        1 GROUP        1 X    GLC  0     **** GLC X 6
     5 ALP1       46 GROUP        1 Y    ALP  0     ROOT ALP Y 8
     6 SEP2       41 GROUP        1 Y    SEP  0     **** SEP Y 9
     7 LYP4       55 GROUP        1 Y    LYP  0     **** LYP Y 11
     8 GLP5        3 GROUP        1 Y    GLP  0     **** GLP Y 13
     9 ALL1       45 GROUP        1 Z    ALL  0     ROOT ALL Z 15
    10 SEL2       40 GROUP        1 Z    SEL  0     **** SEL Z 16
    11 LYL4       54 GROUP        1 Z    LYL  0     **** LYL Z 18
    12 GLL5        2 GROUP        1 Z    GLL  0     **** GLL Z 20
@<TRIPOS>SET

