#    Name: 4hdc_13Y_1_ligand
#    Modification time : Tue Mar 25 00:50:48 2014

@<TRIPOS>MOLECULE
4hdc_13Y_1_ligand
   69    72     1     0     0
SMALL
NO_CHARGES


@<TRIPOS>ATOM
      1 C2         18.6210   -0.5640    2.4550 C.ar      1 13Y301      0.0000 
      2 C4         16.8940   -1.8970    3.4450 C.ar      1 13Y301      0.0000 
      3 C5         16.7960   -0.9630    4.4750 C.ar      1 13Y301      0.0000 
      4 C6         17.6020    0.1850    4.4920 C.ar      1 13Y301      0.0000 
      5 CL1        19.6990   -0.2680    1.1600 Cl        1 13Y301      0.0000 
      6 C3         17.8290   -1.7120    2.4440 C.ar      1 13Y301      0.0000 
      7 C7         18.5180    0.3980    3.4600 C.ar      1 13Y301      0.0000 
      8 O8         17.5220    1.1250    5.5080 O.3       1 13Y301      0.0000 
      9 C9         16.3780    1.3980    6.1830 C.ar      1 13Y301      0.0000 
     10 C10        16.2260    1.0600    7.5540 C.ar      1 13Y301      0.0000 
     11 C11        15.0730    1.4670    8.2460 C.ar      1 13Y301      0.0000 
     12 C12        14.0790    2.1610    7.5770 C.ar      1 13Y301      0.0000 
     13 C13        14.2160    2.4820    6.2220 C.ar      1 13Y301      0.0000 
     14 C14        15.3720    2.1060    5.5410 C.ar      1 13Y301      0.0000 
     15 C15        13.1050    3.2740    5.5430 C.3       1 13Y301      0.0000 
     16 C16        13.4970    4.4440    4.6110 C.3       1 13Y301      0.0000 
     17 C17        14.5670    5.3970    5.1620 C.3       1 13Y301      0.0000 
     18 C18        13.9860    6.3030    6.2570 C.3       1 13Y301      0.0000 
     19 C19        15.1320    6.2240    3.9930 C.3       1 13Y301      0.0000 
     20 N20        12.0210    2.4720    4.9330 N.4       1 13Y301      0.0000 
     21 C22        11.2720    1.6530    5.9370 C.3       1 13Y301      0.0000 
     22 C23        10.0150    1.0550    5.3230 C.3       1 13Y301      0.0000 
     23 C24        10.4220    0.1580    4.1430 C.3       1 13Y301      0.0000 
     24 C25        11.2310    0.9840    3.1180 C.3       1 13Y301      0.0000 
     25 C26        12.4520    1.5940    3.8110 C.3       1 13Y301      0.0000 
     26 N27        11.6560    0.2370    1.9100 N.am      1 13Y301      0.0000 
     27 C28        12.1810   -1.0400    2.0600 C.2       1 13Y301      0.0000 
     28 C29        12.6480   -1.7610    1.0180 C.2       1 13Y301      0.0000 
     29 C30        12.5800   -1.1770   -0.2990 C.2       1 13Y301      0.0000 
     30 O31        12.9330   -1.7420   -1.3510 O.2       1 13Y301      0.0000 
     31 N32        12.0320    0.0910   -0.3460 N.am      1 13Y301      0.0000 
     32 C34        11.5820    0.8330    0.6800 C.2       1 13Y301      0.0000 
     33 O35        11.1430    1.9600    0.5090 O.2       1 13Y301      0.0000 
     34 C36        13.2110   -3.1470    1.1740 C.3       1 13Y301      0.0000 
     35 C37        17.2580    0.2840    8.2620 C.2       1 13Y301      0.0000 
     36 O38        17.7370    0.6880    9.3270 O.co2     1 13Y301      0.0000 
     37 O39        17.6370   -0.8650    7.7320 O.co2     1 13Y301      0.0000 
     38 H          16.2740   -2.7143    3.4347 H         1 13Y301      0.0000 
     39 H          16.1191   -1.1153    5.2412 H         1 13Y301      0.0000 
     40 H          17.9432   -2.4064    1.7005 H         1 13Y301      0.0000 
     41 H          19.0951    1.2333    3.4420 H         1 13Y301      0.0000 
     42 H          14.9766    1.2465    9.2426 H         1 13Y301      0.0000 
     43 H          13.2225    2.4485    8.0793 H         1 13Y301      0.0000 
     44 H          15.4793    2.3592    4.5438 H         1 13Y301      0.0000 
     45 H          12.5604    3.8335    6.4352 H         1 13Y301      0.0000 
     46 H          12.5854    5.0260    4.3780 H         1 13Y301      0.0000 
     47 H          13.8528    4.0229    3.6518 H         1 13Y301      0.0000 
     48 H          15.3669    4.8065    5.5778 H         1 13Y301      0.0000 
     49 H          11.2660    3.1915    4.5023 H         1 13Y301      0.0000 
     50 H          10.9877    2.2772    6.7887 H         1 13Y301      0.0000 
     51 H          11.9072    0.8421    6.3040 H         1 13Y301      0.0000 
     52 H           9.3736    1.8448    4.9623 H         1 13Y301      0.0000 
     53 H           9.4975    0.4584    6.0589 H         1 13Y301      0.0000 
     54 H           9.5345   -0.2297    3.6633 H         1 13Y301      0.0000 
     55 H          11.0349   -0.6555    4.5045 H         1 13Y301      0.0000 
     56 H          10.5943    1.8337    2.8125 H         1 13Y301      0.0000 
     57 H          13.0812    0.7852    4.1834 H         1 13Y301      0.0000 
     58 H          13.0182    2.1680    3.0771 H         1 13Y301      0.0000 
     59 H          12.2089   -1.4477    3.0307 H         1 13Y301      0.0000 
     60 H          11.9625    0.5306   -1.3436 H         1 13Y301      0.0000 
     61 H          14.6739    6.9283    6.6254 H         1 13Y301      0.0000 
     62 H          13.2333    6.8647    5.9136 H         1 13Y301      0.0000 
     63 H          13.6292    5.7734    7.0266 H         1 13Y301      0.0000 
     64 H          15.8378    6.8636    4.2975 H         1 13Y301      0.0000 
     65 H          15.5459    5.6425    3.2926 H         1 13Y301      0.0000 
     66 H          14.4212    6.7645    3.5428 H         1 13Y301      0.0000 
     67 H          13.5042   -3.5296    0.2978 H         1 13Y301      0.0000 
     68 H          14.0065   -3.1587    1.7798 H         1 13Y301      0.0000 
     69 H          12.5394   -3.7794    1.5599 H         1 13Y301      0.0000 
@<TRIPOS>BOND
     1    5    1 1    
     2    6    1 ar   
     3    7    1 ar   
     4    3    2 ar   
     5    6    2 ar   
     6   38    2 1    
     7    4    3 ar   
     8   39    3 1    
     9    7    4 ar   
    10    8    4 1    
    11   40    6 1    
    12   41    7 1    
    13    9    8 1    
    14   10    9 ar   
    15   14    9 ar   
    16   11   10 ar   
    17   35   10 1    
    18   12   11 ar   
    19   42   11 1    
    20   13   12 ar   
    21   43   12 1    
    22   14   13 ar   
    23   15   13 1    
    24   44   14 1    
    25   16   15 1    
    26   20   15 1    
    27   45   15 1    
    28   17   16 1    
    29   46   16 1    
    30   47   16 1    
    31   18   17 1    
    32   19   17 1    
    33   48   17 1    
    34   61   18 1    
    35   62   18 1    
    36   63   18 1    
    37   64   19 1    
    38   65   19 1    
    39   66   19 1    
    40   21   20 1    
    41   25   20 1    
    42   49   20 1    
    43   22   21 1    
    44   50   21 1    
    45   51   21 1    
    46   23   22 1    
    47   52   22 1    
    48   53   22 1    
    49   24   23 1    
    50   54   23 1    
    51   55   23 1    
    52   25   24 1    
    53   26   24 1    
    54   56   24 1    
    55   57   25 1    
    56   58   25 1    
    57   27   26 1    
    58   32   26 am   
    59   28   27 2    
    60   59   27 1    
    61   29   28 1    
    62   34   28 1    
    63   30   29 2    
    64   31   29 am   
    65   32   31 am   
    66   60   31 1    
    67   33   32 2    
    68   67   34 1    
    69   68   34 1    
    70   69   34 1    
    71   36   35 ar   
    72   37   35 ar   
@<TRIPOS>SUBSTRUCTURE
     1 13Y301      1 GROUP   
@<TRIPOS>SET

