#    Name: 3okh_OKH_2_INTS_M
#    Modification time : Tue Mar 25 04:48:16 2014

@<TRIPOS>MOLECULE
3okh_OKH_2_INTS_M
   89     0     9     0     0
SMALL
NO_CHARGES


@<TRIPOS>ATOM
      1 CA         15.8565   58.5020   14.3295 C.3       3 GLC5        0.0000 
      2 CA         16.5250   59.0630   16.3820 C.3       9 GLL5        0.0000 
      3 CA         15.1880   57.9410   12.2770 C.3       6 GLP5        0.0000 
      4 N          12.4780   57.2420   15.7125 N.am      2 SEC2        0.0000 
      5 N          12.8340   58.4090   16.2710 N.am      8 SEL2        0.0000 
      6 N          12.1220   56.0750   15.1540 N.am      5 SEP2        0.0000 
      7 CA         10.3515   62.8510   15.6400 C.3       3 GLC5        0.0000 
      8 CA         12.1170   62.0060   16.1810 C.3       9 GLL5        0.0000 
      9 CA          8.5860   63.6960   15.0990 C.3       6 GLP5        0.0000 
     10 O          13.2780   60.7665   13.2765 O.2       1 ALC1        0.0000 
     11 O          13.3250   62.2320   14.0230 O.2       7 ALL1        0.0000 
     12 O          13.2310   59.3010   12.5300 O.2       4 ALP1        0.0000 
     13 CA         10.3180   58.5530   19.0455 C.3       3 GLC5        0.0000 
     14 CA          9.6440   59.3270   17.1860 C.3       9 GLL5        0.0000 
     15 CA         10.9920   57.7790   20.9050 C.3       6 GLP5        0.0000 
     16 CA          8.7265   60.7325   12.7400 C.3       3 GLC5        0.0000 
     17 CA          8.8360   60.0670   14.5780 C.3       9 GLL5        0.0000 
     18 CA          8.6170   61.3980   10.9020 C.3       6 GLP5        0.0000 
     19 CA         13.5640   65.9640   18.7760 C.3       3 GLC5        0.0000 
     20 CA         13.1320   64.2410   19.1850 C.3       9 GLL5        0.0000 
     21 CA         13.9960   67.6870   18.3670 C.3       6 GLP5        0.0000 
     22 CA         11.1720   64.8315   21.9175 C.3       3 GLC5        0.0000 
     23 CA         12.1980   63.7270   20.2670 C.3       9 GLL5        0.0000 
     24 CA         10.1460   65.9360   23.5680 C.3       6 GLP5        0.0000 
     25 CA         13.0285   63.4995   21.9950 C.3       3 GLC5        0.0000 
     26 CA         13.8590   63.2720   23.7230 C.3       6 GLP5        0.0000 
     27 CA          9.4140   63.1625   20.9225 C.3       3 GLC5        0.0000 
     28 CA         10.9060   63.1410   19.6880 C.3       9 GLL5        0.0000 
     29 CA          7.9220   63.1840   22.1570 C.3       6 GLP5        0.0000 
     30 CA         12.0610   60.6575   19.4610 C.3       3 GLC5        0.0000 
     31 CA         11.1010   62.1910   18.5000 C.3       9 GLL5        0.0000 
     32 CA         13.0210   59.1240   20.4220 C.3       6 GLP5        0.0000 
     33 CA         13.1575   64.1970    8.9610 C.3       3 GLC5        0.0000 
     34 CA         13.4930   63.3870   10.4470 C.3       9 GLL5        0.0000 
     35 CA         12.8220   65.0070    7.4750 C.3       6 GLP5        0.0000 
     36 CA         14.4365   62.8710    8.1990 C.3       3 GLC5        0.0000 
     37 CA         14.7460   62.6350   10.0720 C.3       9 GLL5        0.0000 
     38 CA         14.1270   63.1070    6.3260 C.3       6 GLP5        0.0000 
     39 CA         15.2090   60.0570   12.3895 C.3       3 GLC5        0.0000 
     40 CA         15.2300   62.1730   12.5020 C.3       9 GLL5        0.0000 
     41 CA          7.4350   61.8505   15.1060 C.3       3 GLC5        0.0000 
     42 CA          6.2840   60.0050   15.1130 C.3       9 GLL5        0.0000 
     43 CA          6.4970   58.5470   14.0200 C.3       3 GLC5        0.0000 
     44 CA          6.7100   57.0890   12.9270 C.3       6 GLP5        0.0000 
     45 CA          5.6740   59.6800   16.8520 C.3       3 GLC5        0.0000 
     46 CA          5.0640   59.3550   18.5910 C.3       6 GLP5        0.0000 
     47 CA          4.7485   59.9230   13.6395 C.3       3 GLC5        0.0000 
     48 CA          3.2130   59.8410   12.1660 C.3       6 GLP5        0.0000 
     49 CA          4.8070   58.7355   15.7490 C.3       3 GLC5        0.0000 
     50 CA          3.3300   57.4660   16.3850 C.3       6 GLP5        0.0000 
     51 CA          4.9895   61.0605   15.9255 C.3       3 GLC5        0.0000 
     52 CA          3.6950   62.1160   16.7380 C.3       6 GLP5        0.0000 
     53 CA         16.8270   57.1022   16.3140 C.3       3 GLC5        0.0000 
     54 CA         15.3930   58.2620   16.3680 C.3       9 GLL5        0.0000 
     55 CA         17.6950   55.5420   16.2530 C.3       6 GLP5        0.0000 
     56 CA         17.2435   58.9567   17.8645 C.3       3 GLC5        0.0000 
     57 CA         18.5280   59.2510   19.3540 C.3       6 GLP5        0.0000 
     58 CA         14.9545   58.3148   18.1370 C.3       3 GLC5        0.0000 
     59 CA         13.9500   57.9670   19.8990 C.3       6 GLP5        0.0000 
     60 CA         16.4573   61.0228   18.1480 C.3       3 GLC5        0.0000 
     61 CA         16.4200   60.4750   16.4120 C.3       9 GLL5        0.0000 
     62 CA         17.0980   61.2310   19.8890 C.3       6 GLP5        0.0000 
     63 CA         14.0287   58.8040   18.1245 C.3       3 GLC5        0.0000 
     64 CA         14.1420   58.9150   16.3370 C.3       9 GLL5        0.0000 
     65 CA         14.1011   58.7569   14.6079 C.3       3 GLC5        0.0000 
     66 CA         13.7820   58.0360   12.8580 C.3       6 GLP5        0.0000 
     67 CA         13.4715   64.9145   12.8565 C.3       3 GLC5        0.0000 
     68 CA         13.9250   62.8960   12.8940 C.3       9 GLL5        0.0000 
     69 CA         13.5370   66.9290   13.3930 C.3       6 GLP5        0.0000 
     70 CA          6.5760   59.5015   17.4173 C.3       3 GLC5        0.0000 
     71 CA          7.8980   59.8240   15.5890 C.3       9 GLL5        0.0000 
     72 CA          9.0446   57.5927   17.2188 C.3       3 GLC5        0.0000 
     73 CA          8.2780   59.4720   16.8980 C.3       9 GLL5        0.0000 
     74 CA          8.8930   55.7360   17.6540 C.3       6 GLP5        0.0000 
     75 CA          8.9293   61.8071   15.0349 C.3       3 GLC5        0.0000 
     76 CA         11.4330   61.6910   21.0648 C.3       3 GLC5        0.0000 
     77 CA         11.3140   59.9480   22.1520 C.3       6 GLP5        0.0000 
     78 CA         10.0474   64.1481   17.8742 C.3       3 GLC5        0.0000 
     79 CA          8.8640   65.4620   16.9120 C.3       6 GLP5        0.0000 
     80 CA         11.7280   64.6688   10.7607 C.3       3 GLC5        0.0000 
     81 CA         12.8870   62.9040   11.7460 C.3       9 GLL5        0.0000 
     82 CA         10.2660   66.1920   10.4250 C.3       6 GLP5        0.0000 
     83 CA         11.6740   62.0457   10.5772 C.3       3 GLC5        0.0000 
     84 CA         10.1580   60.9460   10.0580 C.3       6 GLP5        0.0000 
     85 CA         15.9345   61.5790    9.4725 C.3       3 GLC5        0.0000 
     86 CA         16.6060   60.4960    8.3190 C.3       6 GLP5        0.0000 
     87 CA         15.6289   64.8385   10.4524 C.3       3 GLC5        0.0000 
     88 CA         15.7800   62.6890   11.1800 C.3       9 GLL5        0.0000 
     89 CA         16.3080   66.8270   10.1850 C.3       6 GLP5        0.0000 
@<TRIPOS>BOND
@<TRIPOS>SUBSTRUCTURE
     1 ALC1       10 GROUP        1 X    ALC  0     ROOT ALC X 1
     2 SEC2        4 GROUP        1 X    SEC  0     **** SEC X 2
     3 GLC5        1 GROUP        1 X    GLC  0     **** GLC X 6
     4 ALP1       12 GROUP        1 Y    ALP  0     ROOT ALP Y 8
     5 SEP2        6 GROUP        1 Y    SEP  0     **** SEP Y 9
     6 GLP5        3 GROUP        1 Y    GLP  0     **** GLP Y 13
     7 ALL1       11 GROUP        1 Z    ALL  0     ROOT ALL Z 15
     8 SEL2        5 GROUP        1 Z    SEL  0     **** SEL Z 16
     9 GLL5        2 GROUP        1 Z    GLL  0     **** GLL Z 20
@<TRIPOS>SET

