#    Name: 3okh_OKH_2_ligand
#    Modification time : Tue Mar 25 04:48:16 2014

@<TRIPOS>MOLECULE
3okh_OKH_2_ligand
   66    70     1     0     0
SMALL
NO_CHARGES


@<TRIPOS>ATOM
      1 C1         16.5250   59.0630   16.3820 C.ar      1 OKH2        0.0000 
      2 C2         16.4200   60.4750   16.4120 C.ar      1 OKH2        0.0000 
      3 C3         15.2130   61.1540   16.4020 C.ar      1 OKH2        0.0000 
      4 C4         15.3930   58.2620   16.3680 C.ar      1 OKH2        0.0000 
      5 C5         14.1420   58.9150   16.3370 C.ar      1 OKH2        0.0000 
      6 C6         14.0730   60.3670   16.3630 C.ar      1 OKH2        0.0000 
      7 N7         12.7230   60.7030   16.2880 N.pl3     1 OKH2        0.0000 
      8 C8         12.0250   59.4890   16.3530 C.2       1 OKH2        0.0000 
      9 N9         12.8340   58.4090   16.2710 N.2       1 OKH2        0.0000 
     10 C10        10.5850   59.5270   16.1520 C.ar      1 OKH2        0.0000 
     11 C11        12.1170   62.0060   16.1810 C.3       1 OKH2        0.0000 
     12 C12        12.6930   62.8800   15.0390 C.2       1 OKH2        0.0000 
     13 C13        12.0100   62.8640   17.4700 C.3       1 OKH2        0.0000 
     14 O14        12.5470   64.1080   15.0750 O.2       1 OKH2        0.0000 
     15 N15        13.3250   62.2320   14.0230 N.am      1 OKH2        0.0000 
     16 C16        13.9250   62.8960   12.8940 C.3       1 OKH2        0.0000 
     17 C17        17.5690   61.3370   16.3900 C.2       1 OKH2        0.0000 
     18 O18        18.7690   60.6900   16.4690 O.co2     1 OKH2        0.0000 
     19 O19        17.5330   62.5730   16.2810 O.co2     1 OKH2        0.0000 
     20 C20         9.6440   59.3270   17.1860 C.ar      1 OKH2        0.0000 
     21 C21         8.2780   59.4720   16.8980 C.ar      1 OKH2        0.0000 
     22 C22         7.8980   59.8240   15.5890 C.ar      1 OKH2        0.0000 
     23 C23         8.8360   60.0670   14.5780 C.ar      1 OKH2        0.0000 
     24 C24        10.1780   59.8910   14.8580 C.ar      1 OKH2        0.0000 
     25 C25        13.3540   63.2280   18.0730 C.3       1 OKH2        0.0000 
     26 C26        13.1320   64.2410   19.1850 C.3       1 OKH2        0.0000 
     27 C27        12.1980   63.7270   20.2670 C.3       1 OKH2        0.0000 
     28 C28        10.9060   63.1410   19.6880 C.3       1 OKH2        0.0000 
     29 C29        11.1010   62.1910   18.5000 C.3       1 OKH2        0.0000 
     30 C30        12.8870   62.9040   11.7460 C.3       1 OKH2        0.0000 
     31 C31        13.4930   63.3870   10.4470 C.3       1 OKH2        0.0000 
     32 C32        14.7460   62.6350   10.0720 C.3       1 OKH2        0.0000 
     33 C33        15.7800   62.6890   11.1800 C.3       1 OKH2        0.0000 
     34 C34        15.2300   62.1730   12.5020 C.3       1 OKH2        0.0000 
     35 CL35        6.2840   60.0050   15.1130 Cl        1 OKH2        0.0000 
     36 H          17.4644   58.6357   16.3706 H         1 OKH2        0.0000 
     37 H          15.1663   62.1552   16.4218 H         1 OKH2        0.0000 
     38 H          15.4486   57.2580   16.3792 H         1 OKH2        0.0000 
     39 H          11.0145   61.8604   15.8603 H         1 OKH2        0.0000 
     40 H          11.5056   63.8125   17.1760 H         1 OKH2        0.0000 
     41 H          13.3971   61.1806   14.0327 H         1 OKH2        0.0000 
     42 H          14.1586   63.9194   13.1376 H         1 OKH2        0.0000 
     43 H           9.9545   59.0825   18.1208 H         1 OKH2        0.0000 
     44 H           7.5779   59.3267   17.6165 H         1 OKH2        0.0000 
     45 H           8.5260   60.3682   13.6543 H         1 OKH2        0.0000 
     46 H          10.8865   60.0243   14.1253 H         1 OKH2        0.0000 
     47 H          13.9880   63.6619   17.3112 H         1 OKH2        0.0000 
     48 H          13.8209   62.3413   18.4809 H         1 OKH2        0.0000 
     49 H          12.7136   65.1610   18.7548 H         1 OKH2        0.0000 
     50 H          14.1001   64.4972   19.6363 H         1 OKH2        0.0000 
     51 H          11.9416   64.5473   20.9461 H         1 OKH2        0.0000 
     52 H          12.7080   62.9525   20.8500 H         1 OKH2        0.0000 
     53 H          10.2476   63.9720   19.3738 H         1 OKH2        0.0000 
     54 H          10.3691   62.6012   20.4900 H         1 OKH2        0.0000 
     55 H          11.5620   61.2773   18.8449 H         1 OKH2        0.0000 
     56 H          10.1421   61.9793   18.0505 H         1 OKH2        0.0000 
     57 H          12.0586   63.5550   12.0335 H         1 OKH2        0.0000 
     58 H          12.5019   61.8897   11.6210 H         1 OKH2        0.0000 
     59 H          13.7257   64.4594   10.5347 H         1 OKH2        0.0000 
     60 H          12.7505   63.2801    9.6413 H         1 OKH2        0.0000 
     61 H          15.1726   63.0680    9.1611 H         1 OKH2        0.0000 
     62 H          14.4957   61.5892    9.8648 H         1 OKH2        0.0000 
     63 H          16.1167   63.7238   11.3114 H         1 OKH2        0.0000 
     64 H          16.6495   62.0862   10.8939 H         1 OKH2        0.0000 
     65 H          15.0278   61.1040   12.4212 H         1 OKH2        0.0000 
     66 H          15.9677   62.3292   13.2904 H         1 OKH2        0.0000 
@<TRIPOS>BOND
     1    2    1 ar   
     2    4    1 ar   
     3   36    1 1    
     4    3    2 ar   
     5   17    2 1    
     6    6    3 ar   
     7   37    3 1    
     8    5    4 ar   
     9   38    4 1    
    10    6    5 ar   
    11    9    5 1    
    12    7    6 1    
    13    8    7 1    
    14   11    7 1    
    15    9    8 2    
    16   10    8 1    
    17   20   10 ar   
    18   24   10 ar   
    19   12   11 1    
    20   13   11 1    
    21   39   11 1    
    22   14   12 2    
    23   15   12 am   
    24   25   13 1    
    25   29   13 1    
    26   40   13 1    
    27   16   15 1    
    28   41   15 1    
    29   30   16 1    
    30   34   16 1    
    31   42   16 1    
    32   18   17 ar   
    33   19   17 ar   
    34   21   20 ar   
    35   43   20 1    
    36   22   21 ar   
    37   44   21 1    
    38   23   22 ar   
    39   35   22 1    
    40   24   23 ar   
    41   45   23 1    
    42   46   24 1    
    43   26   25 1    
    44   47   25 1    
    45   48   25 1    
    46   27   26 1    
    47   49   26 1    
    48   50   26 1    
    49   28   27 1    
    50   51   27 1    
    51   52   27 1    
    52   29   28 1    
    53   53   28 1    
    54   54   28 1    
    55   55   29 1    
    56   56   29 1    
    57   31   30 1    
    58   57   30 1    
    59   58   30 1    
    60   32   31 1    
    61   59   31 1    
    62   60   31 1    
    63   33   32 1    
    64   61   32 1    
    65   62   32 1    
    66   34   33 1    
    67   63   33 1    
    68   64   33 1    
    69   65   34 1    
    70   66   34 1    
@<TRIPOS>SUBSTRUCTURE
     1 OKH2        1 GROUP   
@<TRIPOS>SET

