#    Name: 1sej_F89_5_INTS_M
#    Modification time : Tue Mar 25 02:22:11 2014

@<TRIPOS>MOLECULE
1sej_F89_5_INTS_M
   63     0     6     0     0
SMALL
NO_CHARGES


@<TRIPOS>ATOM
      1 O         -82.2290  109.5090   65.9165 O.2       1 ALC1        0.0000 
      2 O         -83.5610  109.1690   66.5450 O.2       5 ALL1        0.0000 
      3 O         -80.8970  109.8490   65.2880 O.2       3 ALP1        0.0000 
      4 CA        -80.8470  110.0360   68.3855 C.3       2 GLC5        0.0000 
      5 CA        -82.1760  108.8060   68.6490 C.3       6 GLL5        0.0000 
      6 CA        -79.5180  111.2660   68.1220 C.3       4 GLP5        0.0000 
      7 CA        -82.4730  106.9660   68.2720 C.3       2 GLC5        0.0000 
      8 CA        -82.7700  105.1260   67.8950 C.3       4 GLP5        0.0000 
      9 CA        -80.6195  107.7790   69.8225 C.3       2 GLC5        0.0000 
     10 CA        -79.0630  106.7520   70.9960 C.3       4 GLP5        0.0000 
     11 CA        -83.4460  110.2985   69.2000 C.3       2 GLC5        0.0000 
     12 CA        -84.7160  111.7910   69.7510 C.3       4 GLP5        0.0000 
     13 CA        -85.9245  109.7055   63.0615 C.3       2 GLC5        0.0000 
     14 CA        -87.2470  108.8200   64.4630 C.3       6 GLL5        0.0000 
     15 CA        -84.6020  110.5910   61.6600 C.3       4 GLP5        0.0000 
     16 CA        -86.5960  109.8965   61.9990 C.3       2 GLC5        0.0000 
     17 CA        -88.5900  109.2020   62.3380 C.3       6 GLL5        0.0000 
     18 CA        -88.1340  109.2205   60.3345 C.3       2 GLC5        0.0000 
     19 CA        -87.6780  109.2390   58.3310 C.3       4 GLP5        0.0000 
     20 O         -91.0400  108.2535   61.3810 O.2       1 ALC1        0.0000 
     21 O         -89.3760  108.2310   61.5600 O.2       5 ALL1        0.0000 
     22 O         -92.7040  108.2760   61.2020 O.2       3 ALP1        0.0000 
     23 CA        -89.7340  103.7050   58.4175 C.3       2 GLC5        0.0000 
     24 CA        -89.1450  105.1000   59.7490 C.3       6 GLL5        0.0000 
     25 CA        -90.3230  102.3100   57.0860 C.3       4 GLP5        0.0000 
     26 CA        -88.6695  107.7595   59.3060 C.3       2 GLC5        0.0000 
     27 CA        -89.6610  106.2800   60.2810 C.3       6 GLL5        0.0000 
     28 CA        -83.6260  105.4730   61.1425 C.3       2 GLC5        0.0000 
     29 CA        -85.7390  105.1490   60.6240 C.3       6 GLL5        0.0000 
     30 CA        -81.5130  105.7970   61.6610 C.3       4 GLP5        0.0000 
     31 CA        -85.5215  105.4995   58.8660 C.3       2 GLC5        0.0000 
     32 CA        -85.3040  105.8500   57.1080 C.3       4 GLP5        0.0000 
     33 CA        -86.1900  103.3985   61.4345 C.3       2 GLC5        0.0000 
     34 CA        -84.5930  103.0710   59.9290 C.3       6 GLL5        0.0000 
     35 CA        -87.7870  103.7260   62.9400 C.3       4 GLP5        0.0000 
     36 CA        -83.0530  104.4340   60.7950 C.3       2 GLC5        0.0000 
     37 CA        -84.9485  104.4605   58.5185 C.3       2 GLC5        0.0000 
     38 CA        -86.6740  102.5395   62.2230 C.3       2 GLC5        0.0000 
     39 CA        -85.5610  101.3530   61.5060 C.3       6 GLL5        0.0000 
     40 CA        -85.3678  106.1298   68.1153 C.3       2 GLC5        0.0000 
     41 CA        -85.7340  108.0370   67.7610 C.3       6 GLL5        0.0000 
     42 CA        -84.4660  104.5090   68.1310 C.3       4 GLP5        0.0000 
     43 CA        -85.5755  110.1020   67.2920 C.3       2 GLC5        0.0000 
     44 CA        -85.3430  111.9450   67.4810 C.3       4 GLP5        0.0000 
     45 CA        -88.2157  108.4230   69.5695 C.3       2 GLC5        0.0000 
     46 CA        -86.8050  107.4640   68.4380 C.3       6 GLL5        0.0000 
     47 CA        -88.9610  109.4460   71.0650 C.3       4 GLP5        0.0000 
     48 CA        -89.9905  106.5692   64.0923 C.3       2 GLC5        0.0000 
     49 CA        -89.4320  107.6980   65.7330 C.3       6 GLL5        0.0000 
     50 CA        -90.4850  105.2100   63.1050 C.3       4 GLP5        0.0000 
     51 CA        -89.2130  109.5968   65.6442 C.3       2 GLC5        0.0000 
     52 CA        -89.5600  108.1590   64.4260 C.3       6 GLL5        0.0000 
     53 CA        -88.9300  111.2650   66.2090 C.3       4 GLP5        0.0000 
     54 CA        -89.5050  107.0857   63.0835 C.3       2 GLC5        0.0000 
     55 CA        -88.4600  108.7210   63.7860 C.3       6 GLL5        0.0000 
     56 CA        -88.2844  109.6154   66.3119 C.3       2 GLC5        0.0000 
     57 CA        -87.1020  108.3640   65.7740 C.3       6 GLL5        0.0000 
     58 CA        -88.5759  110.1256   64.7201 C.3       2 GLC5        0.0000 
     59 CA        -87.6194  107.7906   59.5796 C.3       2 GLC5        0.0000 
     60 CA        -86.9610  105.6790   60.5990 C.3       6 GLL5        0.0000 
     61 CA        -89.8410  105.5595   61.6479 C.3       2 GLC5        0.0000 
     62 CA        -87.2056  104.5337   61.7235 C.3       2 GLC5        0.0000 
     63 CA        -87.4840  106.8550   61.1310 C.3       6 GLL5        0.0000 
@<TRIPOS>BOND
@<TRIPOS>SUBSTRUCTURE
     1 ALC1        1 GROUP        1 X    ALC  0     ROOT ALC X 1
     2 GLC5        4 GROUP        1 X    GLC  0     **** GLC X 6
     3 ALP1        3 GROUP        1 Y    ALP  0     ROOT ALP Y 8
     4 GLP5        6 GROUP        1 Y    GLP  0     **** GLP Y 13
     5 ALL1        2 GROUP        1 Z    ALL  0     ROOT ALL Z 15
     6 GLL5        5 GROUP        1 Z    GLL  0     **** GLL Z 20
@<TRIPOS>SET

