#    Name: 1sej_F89_5_ligand
#    Modification time : Tue Mar 25 02:22:11 2014

@<TRIPOS>MOLECULE
1sej_F89_5_ligand
   59    63     1     0     0
SMALL
NO_CHARGES


@<TRIPOS>ATOM
      1 C1        -84.7650  109.0540   65.8390 C.2       1 F89612      0.0000 
      2 O1A       -84.8090  109.4620   64.6800 O.2       1 F89612      0.0000 
      3 N2        -83.5610  109.1690   66.5450 N.am      1 F89612      0.0000 
      4 C3        -83.4840  108.7020   67.8620 C.2       1 F89612      0.0000 
      5 C3M       -82.1760  108.8060   68.6490 C.3       1 F89612      0.0000 
      6 N4        -84.5720  108.1540   68.4220 N.2       1 F89612      0.0000 
      7 C4A       -85.7340  108.0370   67.7610 C.ar      1 F89612      0.0000 
      8 C5        -86.8050  107.4640   68.4380 C.ar      1 F89612      0.0000 
      9 C6        -88.1360  107.3360   67.7100 C.ar      1 F89612      0.0000 
     10 C6A       -88.2150  107.7990   66.4010 C.ar      1 F89612      0.0000 
     11 C7        -89.4320  107.6980   65.7330 C.ar      1 F89612      0.0000 
     12 C8        -89.5600  108.1590   64.4260 C.ar      1 F89612      0.0000 
     13 C9        -88.4600  108.7210   63.7860 C.ar      1 F89612      0.0000 
     14 C10       -87.2470  108.8200   64.4630 C.ar      1 F89612      0.0000 
     15 C1B       -87.1020  108.3640   65.7740 C.ar      1 F89612      0.0000 
     16 C1A       -85.8820  108.4810   66.4450 C.ar      1 F89612      0.0000 
     17 C11       -88.5900  109.2020   62.3380 C.3       1 F89612      0.0000 
     18 N12       -89.3760  108.2310   61.5600 N.pl3     1 F89612      0.0000 
     19 C13       -88.8370  107.1560   60.9840 C.ar      1 F89612      0.0000 
     20 C14       -87.4840  106.8550   61.1310 C.ar      1 F89612      0.0000 
     21 C15       -86.9610  105.6790   60.5990 C.ar      1 F89612      0.0000 
     22 C16       -87.7960  104.8010   59.9150 C.ar      1 F89612      0.0000 
     23 C17       -89.1450  105.1000   59.7490 C.ar      1 F89612      0.0000 
     24 C18       -89.6610  106.2800   60.2810 C.ar      1 F89612      0.0000 
     25 C19       -85.7390  105.1490   60.6240 C.3       1 F89612      0.0000 
     26 C         -86.9880  103.7290   59.5570 C.2       1 F89612      0.0000 
     27 O         -87.3570  102.7190   58.9580 O.2       1 F89612      0.0000 
     28 N         -85.7570  103.9710   60.0030 N.am      1 F89612      0.0000 
     29 CA        -84.5930  103.0710   59.9290 C.3       1 F89612      0.0000 
     30 CT        -83.8140  103.2320   58.6200 C.2       1 F89612      0.0000 
     31 O1        -84.2720  102.7980   57.5620 O.co2     1 F89612      0.0000 
     32 O2        -82.7110  103.7780   58.6180 O.co2     1 F89612      0.0000 
     33 CB        -85.0060  101.6070   60.1020 C.3       1 F89612      0.0000 
     34 CG        -85.5610  101.3530   61.5060 C.3       1 F89612      0.0000 
     35 CD        -84.4860  101.5320   62.5810 C.2       1 F89612      0.0000 
     36 OE1       -83.5390  102.2960   62.3980 O.co2     1 F89612      0.0000 
     37 OE2       -84.5600  100.9030   63.6360 O.co2     1 F89612      0.0000 
     38 H         -82.7431  109.5918   66.1004 H         1 F89612      0.0000 
     39 H         -86.7636  107.1277   69.3747 H         1 F89612      0.0000 
     40 H         -88.8915  106.9243   68.2087 H         1 F89612      0.0000 
     41 H         -90.2444  107.2787   66.2098 H         1 F89612      0.0000 
     42 H         -90.4584  108.0848   63.9387 H         1 F89612      0.0000 
     43 H         -86.4299  109.2431   63.9818 H         1 F89612      0.0000 
     44 H         -87.5886  109.3118   61.9209 H         1 F89612      0.0000 
     45 H         -89.0758  110.1781   62.3423 H         1 F89612      0.0000 
     46 H         -90.3988  108.4446   61.4891 H         1 F89612      0.0000 
     47 H         -86.8670  107.5073   61.6367 H         1 F89612      0.0000 
     48 H         -89.7571  104.4555   59.2377 H         1 F89612      0.0000 
     49 H         -90.6581  106.5058   60.1535 H         1 F89612      0.0000 
     50 H         -85.3679  105.0411   61.6831 H         1 F89612      0.0000 
     51 H         -84.9884  105.8438   60.1496 H         1 F89612      0.0000 
     52 H         -83.8978  103.3053   60.7494 H         1 F89612      0.0000 
     53 H         -84.1390  100.9683   59.9384 H         1 F89612      0.0000 
     54 H         -85.7691  101.3604   59.3649 H         1 F89612      0.0000 
     55 H         -85.9530  100.3352   61.5574 H         1 F89612      0.0000 
     56 H         -86.3798  102.0492   61.6988 H         1 F89612      0.0000 
     57 H         -81.4336  108.3057   68.2034 H         1 F89612      0.0000 
     58 H         -81.8743  109.7546   68.7443 H         1 F89612      0.0000 
     59 H         -82.2676  108.4334   69.5725 H         1 F89612      0.0000 
@<TRIPOS>BOND
     1    2    1 2    
     2    3    1 am   
     3   16    1 1    
     4    4    3 1    
     5   38    3 1    
     6    5    4 1    
     7    6    4 2    
     8   57    5 1    
     9   58    5 1    
    10   59    5 1    
    11    7    6 1    
    12    8    7 ar   
    13   16    7 ar   
    14    9    8 ar   
    15   39    8 1    
    16   10    9 ar   
    17   40    9 1    
    18   11   10 ar   
    19   15   10 ar   
    20   12   11 ar   
    21   41   11 1    
    22   13   12 ar   
    23   42   12 1    
    24   14   13 ar   
    25   17   13 1    
    26   15   14 ar   
    27   43   14 1    
    28   16   15 ar   
    29   18   17 1    
    30   44   17 1    
    31   45   17 1    
    32   19   18 1    
    33   46   18 1    
    34   20   19 ar   
    35   24   19 ar   
    36   21   20 ar   
    37   47   20 1    
    38   22   21 ar   
    39   25   21 1    
    40   23   22 ar   
    41   26   22 1    
    42   24   23 ar   
    43   48   23 1    
    44   49   24 1    
    45   28   25 1    
    46   50   25 1    
    47   51   25 1    
    48   27   26 2    
    49   28   26 am   
    50   29   28 1    
    51   30   29 1    
    52   33   29 1    
    53   52   29 1    
    54   31   30 ar   
    55   32   30 ar   
    56   34   33 1    
    57   53   33 1    
    58   54   33 1    
    59   35   34 1    
    60   55   34 1    
    61   56   34 1    
    62   36   35 ar   
    63   37   35 ar   
@<TRIPOS>SUBSTRUCTURE
     1 F89612      1 GROUP   
@<TRIPOS>SET

