#    Name: 3c1o_NAP_1_INTS_M
#    Modification time : Mon Mar 24 20:21:11 2014

@<TRIPOS>MOLECULE
3c1o_NAP_1_INTS_M
   84     0    12     0     0
SMALL
NO_CHARGES


@<TRIPOS>ATOM
      1 N          55.3585   -4.6890   17.7490 N.am      2 SEC2        0.0000 
      2 N          56.2120   -3.7440   17.2690 N.am     10 SEL2        0.0000 
      3 N          54.5050   -5.6340   18.2290 N.am      6 SEP2        0.0000 
      4 CA         56.2670   -6.6655   12.4175 C.3       4 GLC5        0.0000 
      5 CA         57.6710   -5.6790   13.6790 C.3      12 GLL5        0.0000 
      6 CA         54.8630   -7.6520   11.1560 C.3       8 GLP5        0.0000 
      7 O          57.7085   -9.2390   14.0485 O.2       1 ALC1        0.0000 
      8 O          57.3930   -8.0030   13.7220 O.2       9 ALL1        0.0000 
      9 O          58.0240  -10.4750   14.3750 O.2       5 ALP1        0.0000 
     10 CA         58.1480   -4.4590   11.7905 C.3       4 GLC5        0.0000 
     11 CA         59.2830   -6.3770   11.9700 C.3      12 GLL5        0.0000 
     12 CA         57.0130   -2.5410   11.6110 C.3       8 GLP5        0.0000 
     13 CA         61.7665   -3.4145    8.0000 C.3       4 GLC5        0.0000 
     14 CA         62.6580   -4.3930    9.1100 C.3      12 GLL5        0.0000 
     15 CA         60.8750   -2.4360    6.8900 C.3       8 GLP5        0.0000 
     16 CA         62.6540   -7.3860    9.1115 C.3       4 GLC5        0.0000 
     17 CA         61.5270   -6.3010    8.2510 C.3      12 GLL5        0.0000 
     18 CA         63.7810   -8.4710    9.9720 C.3       8 GLP5        0.0000 
     19 CA         60.8295   -5.0660    7.1465 C.3       4 GLC5        0.0000 
     20 CA         60.1320   -3.8310    6.0420 C.3       8 GLP5        0.0000 
     21 N          52.3950   -3.9795   17.4140 N.am      2 SEC2        0.0000 
     22 N          53.1910   -2.9020   16.6190 N.am     10 SEL2        0.0000 
     23 N          51.5990   -5.0570   18.2090 N.am      6 SEP2        0.0000 
     24 N          53.1910   -4.0465   15.8820 N.am      2 SEC2        0.0000 
     25 N          53.1910   -5.1910   15.1450 N.am      6 SEP2        0.0000 
     26 CA         51.7855   -2.9595   12.7300 C.3       4 GLC5        0.0000 
     27 CA         52.4470   -1.3670   14.1690 C.3      12 GLL5        0.0000 
     28 CA         51.1240   -4.5520   11.2910 C.3       8 GLP5        0.0000 
     29 CA         54.3085   -0.8445   13.1225 C.3       4 GLC5        0.0000 
     30 CA         56.1700   -0.3220   12.0760 C.3       8 GLP5        0.0000 
     31 N          50.7535    2.6295   11.6500 N.am      2 SEC2        0.0000 
     32 N          51.1530    1.2410   11.9050 N.am     10 SEL2        0.0000 
     33 N          50.3540    4.0180   11.3950 N.am      6 SEP2        0.0000 
     34 O          51.1510    0.1165   11.1485 O.2       1 ALC1        0.0000 
     35 O          51.1530    1.2410   11.9050 O.2       9 ALL1        0.0000 
     36 O          51.1490   -1.0080   10.3920 O.2       5 ALP1        0.0000 
     37 N          51.0755    3.5915   12.5350 N.am      2 SEC2        0.0000 
     38 N          51.7970    3.1650   13.6750 N.am     10 SEL2        0.0000 
     39 CA         49.3580    0.4060   16.2390 C.3       4 GLC5        0.0000 
     40 CA         50.6470    1.4160   14.9470 C.3      12 GLL5        0.0000 
     41 CA         48.0690   -0.6040   17.5310 C.3       8 GLP5        0.0000 
     42 N          47.1060    3.0905   20.7630 N.am      2 SEC2        0.0000 
     43 N          48.1200    3.7360   19.9430 N.am     10 SEL2        0.0000 
     44 N          46.0920    2.4450   21.5830 N.am      6 SEP2        0.0000 
     45 O          46.8215    2.8475   16.6205 O.2       1 ALC1        0.0000 
     46 O          47.1000    3.5060   17.9390 O.2       9 ALL1        0.0000 
     47 O          46.5430    2.1890   15.3020 O.2       5 ALP1        0.0000 
     48 O          45.7810    3.4815   18.3735 O.2       1 ALC1        0.0000 
     49 O          44.4620    3.4570   18.8080 O.2       5 ALP1        0.0000 
     50 NZ         60.8020  -11.4250   14.6740 N.4       3 LYC4        0.0000 
     51 NZ         60.4900  -10.0230   14.9630 N.4      11 LYL4        0.0000 
     52 NZ         61.3290  -13.2300   13.1360 N.4       7 LYP4        0.0000 
     53 N          59.2570  -10.2490   14.6690 N.am      2 SEC2        0.0000 
     54 N          60.4900  -10.0230   14.9630 N.am     10 SEL2        0.0000 
     55 N          58.0240  -10.4750   14.3750 N.am      6 SEP2        0.0000 
     56 N          60.8020  -11.4250   14.6740 N.am      2 SEC2        0.0000 
     57 N          61.1140  -12.8270   14.3850 N.am      6 SEP2        0.0000 
     58 NZ         62.8180   -8.8955   12.1435 N.4       3 LYC4        0.0000 
     59 NZ         62.0510   -9.7750   12.9410 N.4      11 LYL4        0.0000 
     60 NZ         64.0510   -6.8670   11.8200 N.4       7 LYP4        0.0000 
     61 NZ         61.7630  -11.0530   12.5540 N.4       3 LYC4        0.0000 
     62 N          62.8180   -8.8955   12.1435 N.am      2 SEC2        0.0000 
     63 N          62.0510   -9.7750   12.9410 N.am     10 SEL2        0.0000 
     64 N          63.5850   -8.0160   11.3460 N.am      6 SEP2        0.0000 
     65 N          61.7630  -11.0530   12.5540 N.am      2 SEC2        0.0000 
     66 N          61.4750  -12.3310   12.1670 N.am      6 SEP2        0.0000 
     67 NZ         62.8480   -7.2405   13.8760 N.4       3 LYC4        0.0000 
     68 NZ         61.8850   -7.9620   14.6760 N.4      11 LYL4        0.0000 
     69 N          62.8480   -7.2405   13.8760 N.am      2 SEC2        0.0000 
     70 N          61.8850   -7.9620   14.6760 N.am     10 SEL2        0.0000 
     71 N          63.8110   -6.5190   13.0760 N.am      6 SEP2        0.0000 
     72 CA         57.4262   -3.8110   12.8565 C.3       4 GLC5        0.0000 
     73 CA         56.7379   -6.5100   15.2555 C.3       4 GLC5        0.0000 
     74 CA         55.3940   -6.9890   16.4310 C.3       8 GLP5        0.0000 
     75 CA         60.5733   -3.6290    9.2840 C.3       4 GLC5        0.0000 
     76 CA         60.9510   -5.5530   10.3110 C.3      12 GLL5        0.0000 
     77 CA         59.7380   -2.2270    8.2690 C.3       8 GLP5        0.0000 
     78 CA         62.6937   -6.7365    9.9884 C.3       4 GLC5        0.0000 
     79 CA         61.8660   -4.5090   10.2870 C.3      12 GLL5        0.0000 
     80 CA         50.8580   -2.4465   14.8898 C.3       4 GLC5        0.0000 
     81 CA         49.8090   -4.0040   15.8450 C.3       8 GLP5        0.0000 
     82 CA         48.8680    1.6772   20.1373 C.3       4 GLC5        0.0000 
     83 CA         49.4300    2.8450   18.1840 C.3      12 GLL5        0.0000 
     84 CA         47.7420    0.6090   21.6610 C.3       8 GLP5        0.0000 
@<TRIPOS>BOND
@<TRIPOS>SUBSTRUCTURE
     1 ALC1        7 GROUP        1 X    ALC  0     ROOT ALC X 1
     2 SEC2        1 GROUP        1 X    SEC  0     **** SEC X 2
     3 LYC4       50 GROUP        1 X    LYC  0     **** LYC X 4
     4 GLC5        4 GROUP        1 X    GLC  0     **** GLC X 6
     5 ALP1        9 GROUP        1 Y    ALP  0     ROOT ALP Y 8
     6 SEP2        3 GROUP        1 Y    SEP  0     **** SEP Y 9
     7 LYP4       52 GROUP        1 Y    LYP  0     **** LYP Y 11
     8 GLP5        6 GROUP        1 Y    GLP  0     **** GLP Y 13
     9 ALL1        8 GROUP        1 Z    ALL  0     ROOT ALL Z 15
    10 SEL2        2 GROUP        1 Z    SEL  0     **** SEL Z 16
    11 LYL4       51 GROUP        1 Z    LYL  0     **** LYL Z 18
    12 GLL5        5 GROUP        1 Z    GLL  0     **** GLL Z 20
@<TRIPOS>SET

