#    Name: 3c1o_NAP_1_ligand
#    Modification time : Mon Mar 24 20:21:12 2014

@<TRIPOS>MOLECULE
3c1o_NAP_1_ligand
   73    77     1     0     0
SMALL
NO_CHARGES


@<TRIPOS>ATOM
      1 PA         56.5290   -2.9500   16.0610 P.3       1 NAP401      0.0000 
      2 O1A        57.6590   -1.9870   16.0560 O.co2     1 NAP401      0.0000 
      3 O2A        56.2120   -3.7440   17.2690 O.co2     1 NAP401      0.0000 
      4 O5B        56.7510   -3.8670   14.7830 O.3       1 NAP401      0.0000 
      5 C5B        58.0080   -4.4830   14.5250 C.3       1 NAP401      0.0000 
      6 C4B        57.6710   -5.6790   13.6790 C.3       1 NAP401      0.0000 
      7 O4B        58.0440   -5.7140   12.1920 O.3       1 NAP401      0.0000 
      8 C3B        58.3240   -6.9810   14.0580 C.3       1 NAP401      0.0000 
      9 O3B        57.3930   -8.0030   13.7220 O.3       1 NAP401      0.0000 
     10 C2B        59.5930   -7.1400   13.2310 C.3       1 NAP401      0.0000 
     11 O2B        60.0430   -8.4480   13.0260 O.3       1 NAP401      0.0000 
     12 C1B        59.2830   -6.3770   11.9700 C.3       1 NAP401      0.0000 
     13 N9A        60.3290   -5.4700   11.5070 N.pl3     1 NAP401      0.0000 
     14 C8A        60.8780   -4.3760   12.1560 C.2       1 NAP401      0.0000 
     15 N7A        61.8130   -3.7780   11.4380 N.2       1 NAP401      0.0000 
     16 C5A        61.8660   -4.5090   10.2870 C.ar      1 NAP401      0.0000 
     17 C6A        62.6580   -4.3930    9.1100 C.ar      1 NAP401      0.0000 
     18 N6A        63.5730   -3.4200    8.9730 N.pl3     1 NAP401      0.0000 
     19 N1A        62.4550   -5.3160    8.1120 N.ar      1 NAP401      0.0000 
     20 C2A        61.5270   -6.3010    8.2510 C.ar      1 NAP401      0.0000 
     21 N3A        60.7240   -6.5010    9.3300 N.ar      1 NAP401      0.0000 
     22 C4A        60.9510   -5.5530   10.3110 C.ar      1 NAP401      0.0000 
     23 O3         55.2390   -2.1630   15.4740 O.3       1 NAP401      0.0000 
     24 PN         53.9890   -1.6740   16.3190 P.3       1 NAP401      0.0000 
     25 O1N        54.4220   -0.8480   17.4710 O.co2     1 NAP401      0.0000 
     26 O2N        53.1910   -2.9020   16.6190 O.co2     1 NAP401      0.0000 
     27 O5D        53.1550   -0.7880   15.2870 O.3       1 NAP401      0.0000 
     28 C5D        52.4470   -1.3670   14.1690 C.3       1 NAP401      0.0000 
     29 C4D        51.3670   -0.4110   13.7000 C.3       1 NAP401      0.0000 
     30 O4D        50.5750   -0.0270   14.8620 O.3       1 NAP401      0.0000 
     31 C3D        51.9190    0.8710   13.0230 C.3       1 NAP401      0.0000 
     32 O3D        51.1530    1.2410   11.9050 O.3       1 NAP401      0.0000 
     33 C2D        51.8580    1.8400   14.1680 C.3       1 NAP401      0.0000 
     34 O2D        51.7970    3.1650   13.6750 O.3       1 NAP401      0.0000 
     35 C1D        50.6470    1.4160   14.9470 C.3       1 NAP401      0.0000 
     36 N1N        50.6860    1.9140   16.3520 N.pl3     1 NAP401      0.0000 
     37 C2N        49.5340    2.4970   16.8320 C.ar      1 NAP401      0.0000 
     38 C3N        49.4300    2.8450   18.1840 C.ar      1 NAP401      0.0000 
     39 C7N        48.1590    3.4070   18.7560 C.2       1 NAP401      0.0000 
     40 O7N        48.1200    3.7360   19.9430 O.2       1 NAP401      0.0000 
     41 N7N        47.1000    3.5060   17.9390 N.am      1 NAP401      0.0000 
     42 C4N        50.5580    2.6460   19.0430 C.ar      1 NAP401      0.0000 
     43 C5N        51.7240    2.0500   18.5350 C.ar      1 NAP401      0.0000 
     44 C6N        51.7780    1.6550   17.2000 C.ar      1 NAP401      0.0000 
     45 P2B        61.1790   -9.1070   13.9690 P.3       1 NAP401      0.0000 
     46 O1X        60.4900  -10.0230   14.9630 O.co2     1 NAP401      0.0000 
     47 O2X        62.0510   -9.7750   12.9410 O.co2     1 NAP401      0.0000 
     48 O3X        61.8850   -7.9620   14.6760 O.co2     1 NAP401      0.0000 
     49 H          58.4858   -4.8219   15.4298 H         1 NAP401      0.0000 
     50 H          58.6675   -3.8384   13.9670 H         1 NAP401      0.0000 
     51 H          56.5795   -5.8949   13.7032 H         1 NAP401      0.0000 
     52 H          58.5631   -6.9686   15.0834 H         1 NAP401      0.0000 
     53 H          60.3592   -6.5178   13.7614 H         1 NAP401      0.0000 
     54 H          59.1088   -7.1545   11.1801 H         1 NAP401      0.0000 
     55 H          60.5792   -4.0994   13.0595 H         1 NAP401      0.0000 
     56 H          63.6892   -2.8116    9.7581 H         1 NAP401      0.0000 
     57 H          64.0565   -3.3907    8.0981 H         1 NAP401      0.0000 
     58 H          61.4177   -6.9903    7.4248 H         1 NAP401      0.0000 
     59 H          51.9716   -2.3127   14.4480 H         1 NAP401      0.0000 
     60 H          53.1225   -1.5610   13.3298 H         1 NAP401      0.0000 
     61 H          50.7332   -0.9214   12.9862 H         1 NAP401      0.0000 
     62 H          52.9513    0.6704   12.8124 H         1 NAP401      0.0000 
     63 H          52.7312    1.6634   14.7802 H         1 NAP401      0.0000 
     64 H          49.7723    1.8464   14.4414 H         1 NAP401      0.0000 
     65 H          48.7399    2.6819   16.2014 H         1 NAP401      0.0000 
     66 H          46.2793    3.9217   18.3309 H         1 NAP401      0.0000 
     67 H          47.2259    3.1552   17.0110 H         1 NAP401      0.0000 
     68 H          50.5032    2.9393   20.0155 H         1 NAP401      0.0000 
     69 H          52.5317    1.9080   19.1499 H         1 NAP401      0.0000 
     70 H          52.6053    1.1785   16.8325 H         1 NAP401      0.0000 
     71 H          57.8143   -8.8519   14.0413 H         1 NAP401      0.0000 
     72 H          51.1262    0.4246   11.3281 H         1 NAP401      0.0000 
     73 H          52.4781    3.6699   14.2052 H         1 NAP401      0.0000 
@<TRIPOS>BOND
     1    2    1 ar   
     2    3    1 ar   
     3    4    1 1    
     4   23    1 1    
     5    5    4 1    
     6    6    5 1    
     7   49    5 1    
     8   50    5 1    
     9    7    6 1    
    10    8    6 1    
    11   51    6 1    
    12   12    7 1    
    13    9    8 1    
    14   10    8 1    
    15   52    8 1    
    16   71    9 1    
    17   11   10 1    
    18   12   10 1    
    19   53   10 1    
    20   45   11 1    
    21   13   12 1    
    22   54   12 1    
    23   14   13 1    
    24   22   13 1    
    25   15   14 2    
    26   55   14 1    
    27   16   15 1    
    28   17   16 ar   
    29   22   16 ar   
    30   18   17 1    
    31   19   17 ar   
    32   56   18 1    
    33   57   18 1    
    34   20   19 ar   
    35   21   20 ar   
    36   58   20 1    
    37   22   21 ar   
    38   24   23 1    
    39   25   24 ar   
    40   26   24 ar   
    41   27   24 1    
    42   28   27 1    
    43   29   28 1    
    44   59   28 1    
    45   60   28 1    
    46   30   29 1    
    47   31   29 1    
    48   61   29 1    
    49   35   30 1    
    50   32   31 1    
    51   33   31 1    
    52   62   31 1    
    53   72   32 1    
    54   34   33 1    
    55   35   33 1    
    56   63   33 1    
    57   73   34 1    
    58   36   35 1    
    59   64   35 1    
    60   37   36 ar   
    61   44   36 ar   
    62   38   37 ar   
    63   65   37 1    
    64   39   38 1    
    65   42   38 ar   
    66   40   39 2    
    67   41   39 am   
    68   66   41 1    
    69   67   41 1    
    70   43   42 ar   
    71   68   42 1    
    72   44   43 ar   
    73   69   43 1    
    74   70   44 1    
    75   46   45 ar   
    76   47   45 ar   
    77   48   45 ar   
@<TRIPOS>SUBSTRUCTURE
     1 NAP401      1 GROUP   
@<TRIPOS>SET

