#    Name: 2qyo_QSO_2_INTS_M
#    Modification time : Mon Mar 24 22:58:19 2014

@<TRIPOS>MOLECULE
2qyo_QSO_2_INTS_M
   37     0     9     0     0
SMALL
NO_CHARGES


@<TRIPOS>ATOM
      1 CA         -0.7805   -4.1000   12.3475 C.3       3 GLC5        0.0000 
      2 CA         -2.0560   -3.1840   10.7900 C.3       9 GLL5        0.0000 
      3 CA          0.4950   -5.0160   13.9050 C.3       6 GLP5        0.0000 
      4 O          -5.0120    1.3670   14.9750 O.2       1 ALC1        0.0000 
      5 O          -5.3860    0.0570   14.6970 O.2       7 ALL1        0.0000 
      6 O          -4.6380    2.6770   15.2530 O.2       4 ALP1        0.0000 
      7 CA         -6.7045    0.3830   13.3850 C.3       3 GLC5        0.0000 
      8 CA         -4.8160   -0.2110   13.4960 C.3       9 GLL5        0.0000 
      9 CA         -8.5930    0.9770   13.2740 C.3       6 GLP5        0.0000 
     10 CA         -6.5740    1.3235   11.7070 C.3       3 GLC5        0.0000 
     11 CA         -4.9740    0.6550   12.3810 C.3       9 GLL5        0.0000 
     12 CA         -8.1740    1.9920   11.0330 C.3       6 GLP5        0.0000 
     13 CA         -4.1695   -2.7660    7.1640 C.3       3 GLC5        0.0000 
     14 CA         -2.0940   -3.2990    7.2100 C.3       9 GLL5        0.0000 
     15 CA         -6.2450   -2.2330    7.1180 C.3       6 GLP5        0.0000 
     16 N          -5.2520    2.2230    9.2875 N.am      2 SEC2        0.0000 
     17 N          -4.6050    1.3060   10.1060 N.am      8 SEL2        0.0000 
     18 N          -5.8990    3.1400    8.4690 N.am      5 SEP2        0.0000 
     19 CA          2.3345   -6.5145    3.6775 C.3       3 GLC5        0.0000 
     20 CA          0.7070   -5.5450    4.6260 C.3       9 GLL5        0.0000 
     21 CA          3.9620   -7.4840    2.7290 C.3       6 GLP5        0.0000 
     22 CA          1.6710   -6.5740    5.7920 C.3       3 GLC5        0.0000 
     23 CA          2.6350   -7.6030    6.9580 C.3       6 GLP5        0.0000 
     24 CA         -0.8190   -6.2895    6.1010 C.3       3 GLC5        0.0000 
     25 CA         -2.3450   -7.0340    7.5760 C.3       6 GLP5        0.0000 
     26 CA         -3.2908   -4.4258    9.2873 C.3       3 GLC5        0.0000 
     27 CA         -2.1110   -2.4530    9.6310 C.3       9 GLL5        0.0000 
     28 CA         -4.4980   -6.0330    8.3640 C.3       6 GLP5        0.0000 
     29 CA         -4.0115    1.8740   13.2683 C.3       3 GLC5        0.0000 
     30 CA         -3.1280    3.5260   13.5980 C.3       6 GLP5        0.0000 
     31 CA         -2.0468   -5.0657    7.6890 C.3       3 GLC5        0.0000 
     32 CA         -1.4030   -2.8960    8.3940 C.3       9 GLL5        0.0000 
     33 CA         -1.5038   -5.3827    6.8033 C.3       3 GLC5        0.0000 
     34 CA         -1.3810   -3.7140    6.0500 C.3       9 GLL5        0.0000 
     35 CA          0.9230   -5.5315    7.2495 C.3       3 GLC5        0.0000 
     36 CA          0.0560   -3.7490    6.0110 C.3       9 GLL5        0.0000 
     37 CA          1.4480   -7.5170    7.8940 C.3       6 GLP5        0.0000 
@<TRIPOS>BOND
@<TRIPOS>SUBSTRUCTURE
     1 ALC1        4 GROUP        1 X    ALC  0     ROOT ALC X 1
     2 SEC2       16 GROUP        1 X    SEC  0     **** SEC X 2
     3 GLC5        1 GROUP        1 X    GLC  0     **** GLC X 6
     4 ALP1        6 GROUP        1 Y    ALP  0     ROOT ALP Y 8
     5 SEP2       18 GROUP        1 Y    SEP  0     **** SEP Y 9
     6 GLP5        3 GROUP        1 Y    GLP  0     **** GLP Y 13
     7 ALL1        5 GROUP        1 Z    ALL  0     ROOT ALL Z 15
     8 SEL2       17 GROUP        1 Z    SEL  0     **** SEL Z 16
     9 GLL5        2 GROUP        1 Z    GLL  0     **** GLL Z 20
@<TRIPOS>SET

