#    Name: 2qyo_QSO_2_ligand
#    Modification time : Mon Mar 24 22:58:19 2014

@<TRIPOS>MOLECULE
2qyo_QSO_2_ligand
   32    34     1     0     0
SMALL
NO_CHARGES


@<TRIPOS>ATOM
      1 C2         -2.0560   -3.1840   10.7900 C.2       1 QSO701      0.0000 
      2 C4         -2.9190   -1.1640    9.6510 C.2       1 QSO701      0.0000 
      3 O4         -5.3860    0.0570   14.6970 O.3       1 QSO701      0.0000 
      4 C4A        -3.5940   -0.7960   10.9600 C.ar      1 QSO701      0.0000 
      5 C8A        -3.4080   -1.7070   12.0680 C.ar      1 QSO701      0.0000 
      6 C7         -4.8160   -0.2110   13.4960 C.ar      1 QSO701      0.0000 
      7 C6         -4.9740    0.6550   12.3810 C.ar      1 QSO701      0.0000 
      8 C5         -4.3870    0.4030   11.1080 C.ar      1 QSO701      0.0000 
      9 C8         -4.0310   -1.3790   13.3080 C.ar      1 QSO701      0.0000 
     10 C3         -2.1110   -2.4530    9.6310 C.2       1 QSO701      0.0000 
     11 O1         -2.6660   -2.8660   11.9930 O.3       1 QSO701      0.0000 
     12 C1'        -1.4030   -2.8960    8.3940 C.ar      1 QSO701      0.0000 
     13 O2         -3.0090   -0.4610    8.6410 O.2       1 QSO701      0.0000 
     14 C2'        -2.0940   -3.2990    7.2100 C.ar      1 QSO701      0.0000 
     15 C3'        -1.3810   -3.7140    6.0500 C.ar      1 QSO701      0.0000 
     16 C4'         0.0560   -3.7490    6.0110 C.ar      1 QSO701      0.0000 
     17 C5'         0.7400   -3.3430    7.1990 C.ar      1 QSO701      0.0000 
     18 C6'         0.0330   -2.9260    8.3630 C.ar      1 QSO701      0.0000 
     19 O5          0.7490   -4.1490    4.8870 O.3       1 QSO701      0.0000 
     20 O3         -4.6050    1.3060   10.1060 O.co2     1 QSO701      0.0000 
     21 CM          0.7070   -5.5450    4.6260 C.3       1 QSO701      0.0000 
     22 H          -1.4834   -4.0966   10.7688 H         1 QSO701      0.0000 
     23 H          -5.5465    1.5163   12.4986 H         1 QSO701      0.0000 
     24 H          -3.9029   -2.0273   14.1108 H         1 QSO701      0.0000 
     25 H          -3.1176   -3.2883    7.1981 H         1 QSO701      0.0000 
     26 H          -1.9043   -3.9988    5.2106 H         1 QSO701      0.0000 
     27 H           1.7679   -3.3531    7.2111 H         1 QSO701      0.0000 
     28 H           0.5542   -2.6407    9.1977 H         1 QSO701      0.0000 
     29 H           1.2200   -5.7843    3.8017 H         1 QSO701      0.0000 
     30 H           1.0974   -6.0754    5.3785 H         1 QSO701      0.0000 
     31 H          -0.2293   -5.8700    4.4931 H         1 QSO701      0.0000 
     32 H          -5.1201    0.9982   14.9052 H         1 QSO701      0.0000 
@<TRIPOS>BOND
     1   10    1 2    
     2   11    1 1    
     3   22    1 1    
     4    4    2 1    
     5   10    2 1    
     6   13    2 2    
     7    6    3 1    
     8   32    3 1    
     9    5    4 ar   
    10    8    4 ar   
    11    9    5 ar   
    12   11    5 1    
    13    7    6 ar   
    14    9    6 ar   
    15    8    7 ar   
    16   23    7 1    
    17   20    8 ar   
    18   24    9 1    
    19   12   10 1    
    20   14   12 ar   
    21   18   12 ar   
    22   15   14 ar   
    23   25   14 1    
    24   16   15 ar   
    25   26   15 1    
    26   17   16 ar   
    27   19   16 1    
    28   18   17 ar   
    29   27   17 1    
    30   28   18 1    
    31   21   19 1    
    32   29   21 1    
    33   30   21 1    
    34   31   21 1    
@<TRIPOS>SUBSTRUCTURE
     1 QSO701      1 GROUP   
@<TRIPOS>SET

