#    Name: 2etk_HFS_1_INTS_M
#    Modification time : Tue Mar 25 11:30:21 2014

@<TRIPOS>MOLECULE
2etk_HFS_1_INTS_M
   45     0     9     0     0
SMALL
NO_CHARGES


@<TRIPOS>ATOM
      1 N          50.4185   98.0255   23.7020 N.am      1 SEC2        0.0000 
      2 N          50.1370   98.4500   24.9940 N.am      7 SEL2        0.0000 
      3 N          50.7000   97.6010   22.4100 N.am      4 SEP2        0.0000 
      4 CA         49.2840   98.6830   23.7505 C.3       3 GLC5        0.0000 
      5 CA         50.2380   99.5810   25.5210 C.3       9 GLL5        0.0000 
      6 CA         48.3300   97.7850   21.9800 C.3       6 GLP5        0.0000 
      7 CA         51.6015   99.0370   24.1350 C.3       3 GLC5        0.0000 
      8 CA         52.9650   98.4930   22.7490 C.3       6 GLP5        0.0000 
      9 CA         48.3625  100.4290   25.3875 C.3       3 GLC5        0.0000 
     10 CA         49.9940  101.9200   25.3480 C.3       9 GLL5        0.0000 
     11 CA         46.7310   98.9380   25.4270 C.3       6 GLP5        0.0000 
     12 CA         50.0580  103.1445   23.9880 C.3       3 GLC5        0.0000 
     13 CA         50.1220  104.3690   22.6280 C.3       6 GLP5        0.0000 
     14 CA         52.0865  103.3170   26.3010 C.3       3 GLC5        0.0000 
     15 CA         50.4390  102.1680   26.6510 C.3       9 GLL5        0.0000 
     16 CA         53.7340  104.4660   25.9510 C.3       6 GLP5        0.0000 
     17 CA         52.8330  100.8100   26.6550 C.3       3 GLC5        0.0000 
     18 CA         50.8150  101.1100   27.4760 C.3       9 GLL5        0.0000 
     19 CA         54.8510  100.5100   25.8340 C.3       6 GLP5        0.0000 
     20 CA         49.6500  101.2390   30.2235 C.3       3 GLC5        0.0000 
     21 CA         51.3050  101.2740   28.8820 C.3       9 GLL5        0.0000 
     22 CA         47.9950  101.2040   31.5650 C.3       6 GLP5        0.0000 
     23 CA         53.5305  105.5740   30.7765 C.3       3 GLC5        0.0000 
     24 CA         54.0230  104.0180   31.6420 C.3       9 GLL5        0.0000 
     25 CA         53.0380  107.1300   29.9110 C.3       6 GLP5        0.0000 
     26 OD1        52.4805  105.5765   32.9140 O.co2     2 ASC3        0.0000 
     27 OD1        52.4730  104.1420   33.6000 O.co2     8 ASL3        0.0000 
     28 OD1        52.4880  107.0110   32.2280 O.co2     5 ASP3        0.0000 
     29 CA         49.5440  104.8175   32.5285 C.3       3 GLC5        0.0000 
     30 CA         51.2960  103.7010   32.8630 C.3       9 GLL5        0.0000 
     31 CA         47.7920  105.9340   32.1940 C.3       6 GLP5        0.0000 
     32 CA         48.6058   99.2975   25.8240 C.3       3 GLC5        0.0000 
     33 CA         50.7230   99.7330   26.9210 C.3       9 GLL5        0.0000 
     34 CA         48.7449  102.4320   26.8889 C.3       3 GLC5        0.0000 
     35 CA         46.9740  103.2870   27.0400 C.3       6 GLP5        0.0000 
     36 CA         50.0108   97.3103   28.3212 C.3       3 GLC5        0.0000 
     37 CA         51.5380   98.8390   29.0160 C.3       9 GLL5        0.0000 
     38 CA         48.7080   95.8790   28.2800 C.3       6 GLP5        0.0000 
     39 CA         52.8556   99.1201   26.8604 C.3       3 GLC5        0.0000 
     40 CA         54.6930   99.0030   26.0790 C.3       6 GLP5        0.0000 
     41 CA         49.6882  102.1150   32.0388 C.3       3 GLC5        0.0000 
     42 CA         51.4670  102.3510   32.1620 C.3       9 GLL5        0.0000 
     43 CA         49.3312   99.5886   29.0294 C.3       3 GLC5        0.0000 
     44 CA         51.6420  100.1120   29.5840 C.3       9 GLL5        0.0000 
     45 CA         47.4030   99.6730   29.6820 C.3       6 GLP5        0.0000 
@<TRIPOS>BOND
@<TRIPOS>SUBSTRUCTURE
     1 SEC2        1 GROUP        1 X    SEC  0     ROOT SEC X 2
     2 ASC3       26 GROUP        1 X    ASC  0     **** ASC X 3
     3 GLC5        4 GROUP        1 X    GLC  0     **** GLC X 6
     4 SEP2        3 GROUP        1 Y    SEP  0     ROOT SEP Y 9
     5 ASP3       28 GROUP        1 Y    ASP  0     **** ASP Y 10
     6 GLP5        6 GROUP        1 Y    GLP  0     **** GLP Y 13
     7 SEL2        2 GROUP        1 Z    SEL  0     ROOT SEL Z 16
     8 ASL3       27 GROUP        1 Z    ASL  0     **** ASL Z 17
     9 GLL5        5 GROUP        1 Z    GLL  0     **** GLL Z 20
@<TRIPOS>SET

