#    Name: 2etk_HFS_1_ligand
#    Modification time : Tue Mar 25 11:30:21 2014

@<TRIPOS>MOLECULE
2etk_HFS_1_ligand
   37    39     1     0     0
SMALL
NO_CHARGES


@<TRIPOS>ATOM
      1 O1         50.1370   98.4500   24.9940 O.3       1 HFS416      0.0000 
      2 C1         50.2380   99.5810   25.5210 C.ar      1 HFS416      0.0000 
      3 N1         49.9040  100.6800   24.8260 N.ar      1 HFS416      0.0000 
      4 C2         49.9940  101.9200   25.3480 C.ar      1 HFS416      0.0000 
      5 C3         50.4390  102.1680   26.6510 C.ar      1 HFS416      0.0000 
      6 C4         50.8150  101.1100   27.4760 C.ar      1 HFS416      0.0000 
      7 C5         51.3050  101.2740   28.8820 C.ar      1 HFS416      0.0000 
      8 C6         51.6420  100.1120   29.5840 C.ar      1 HFS416      0.0000 
      9 C7         51.5380   98.8390   29.0160 C.ar      1 HFS416      0.0000 
     10 C8         51.0890   98.6440   27.7090 C.ar      1 HFS416      0.0000 
     11 C9         50.7230   99.7330   26.9210 C.ar      1 HFS416      0.0000 
     12 S1         51.4400  102.7120   29.5830 S.o2      1 HFS416      0.0000 
     13 O2         52.1500  103.6120   28.7190 O.2       1 HFS416      0.0000 
     14 O3         50.1220  103.2420   29.7990 O.2       1 HFS416      0.0000 
     15 N2         52.1950  102.6000   30.9140 N.pl3     1 HFS416      0.0000 
     16 C10        53.6590  102.7090   30.9350 C.3       1 HFS416      0.0000 
     17 C11        54.0230  104.0180   31.6420 C.3       1 HFS416      0.0000 
     18 C12        53.8410  103.9030   33.1570 C.3       1 HFS416      0.0000 
     19 N3         52.4730  104.1420   33.6000 N.4       1 HFS416      0.0000 
     20 C13        51.2960  103.7010   32.8630 C.3       1 HFS416      0.0000 
     21 C14        51.4670  102.3510   32.1620 C.3       1 HFS416      0.0000 
     22 H          49.7213  102.7554   24.7640 H         1 HFS416      0.0000 
     23 H          50.4878  103.1340   26.9982 H         1 HFS416      0.0000 
     24 H          51.9826  100.1988   30.5651 H         1 HFS416      0.0000 
     25 H          51.8043   98.0101   29.5871 H         1 HFS416      0.0000 
     26 H          51.0284   97.6904   27.3264 H         1 HFS416      0.0000 
     27 H          54.0615  102.7381   29.9299 H         1 HFS416      0.0000 
     28 H          54.1026  101.8874   31.4838 H         1 HFS416      0.0000 
     29 H          53.3859  104.8181   31.2638 H         1 HFS416      0.0000 
     30 H          55.0621  104.2658   31.4233 H         1 HFS416      0.0000 
     31 H          54.5377  104.6194   33.6367 H         1 HFS416      0.0000 
     32 H          54.1797  102.8927   33.4626 H         1 HFS416      0.0000 
     33 H          51.0156  104.4488   32.0910 H         1 HFS416      0.0000 
     34 H          50.4187  103.6210   33.5396 H         1 HFS416      0.0000 
     35 H          52.0241  101.6935   32.8140 H         1 HFS416      0.0000 
     36 H          50.4873  101.9389   31.9666 H         1 HFS416      0.0000 
     37 H          50.5635   97.8222   25.6451 H         1 HFS416      0.0000 
@<TRIPOS>BOND
     1    2    1 1    
     2   37    1 1    
     3    3    2 ar   
     4   11    2 ar   
     5    4    3 ar   
     6    5    4 ar   
     7   22    4 1    
     8    6    5 ar   
     9   23    5 1    
    10    7    6 ar   
    11   11    6 ar   
    12    8    7 ar   
    13   12    7 1    
    14    9    8 ar   
    15   24    8 1    
    16   10    9 ar   
    17   25    9 1    
    18   11   10 ar   
    19   26   10 1    
    20   13   12 2    
    21   14   12 2    
    22   15   12 1    
    23   16   15 1    
    24   21   15 1    
    25   17   16 1    
    26   27   16 1    
    27   28   16 1    
    28   18   17 1    
    29   29   17 1    
    30   30   17 1    
    31   19   18 1    
    32   31   18 1    
    33   32   18 1    
    34   20   19 1    
    35   21   20 1    
    36   33   20 1    
    37   34   20 1    
    38   35   21 1    
    39   36   21 1    
@<TRIPOS>SUBSTRUCTURE
     1 HFS416      1 GROUP   
@<TRIPOS>SET

