#    Name: 2zsa_ADP_1_INTS_M
#    Modification time : Tue Mar 25 11:01:10 2014

@<TRIPOS>MOLECULE
2zsa_ADP_1_INTS_M
   48     0     9     0     0
SMALL
NO_CHARGES


@<TRIPOS>ATOM
      1 N          68.2585   31.4095   -3.6830 N.am      1 SEC2        0.0000 
      2 N          66.7340   31.5400   -3.1080 N.am      7 SEL2        0.0000 
      3 N          69.7830   31.2790   -4.2580 N.am      4 SEP2        0.0000 
      4 N          65.4115   31.9180   -3.9095 N.am      1 SEC2        0.0000 
      5 N          64.0890   32.2960   -4.7110 N.am      4 SEP2        0.0000 
      6 NZ         68.7980   32.2100   -0.3830 N.4       2 LYC4        0.0000 
      7 NZ         68.7350   31.4650   -1.5120 N.4       8 LYL4        0.0000 
      8 NZ         68.8610   32.9550    0.7460 N.4       5 LYP4        0.0000 
      9 N          69.2590   31.3720   -2.8850 N.am      1 SEC2        0.0000 
     10 N          68.7350   31.4650   -1.5120 N.am      7 SEL2        0.0000 
     11 N          69.6105   30.5940   -1.7620 N.am      1 SEC2        0.0000 
     12 N          70.4860   29.7230   -2.0120 N.am      4 SEP2        0.0000 
     13 N          68.7980   32.2100   -0.3830 N.am      1 SEC2        0.0000 
     14 N          68.8610   32.9550    0.7460 N.am      4 SEP2        0.0000 
     15 N          67.9825   28.6085   -1.2165 N.am      1 SEC2        0.0000 
     16 N          66.9760   29.5930   -1.4490 N.am      7 SEL2        0.0000 
     17 N          68.9890   27.6240   -0.9840 N.am      4 SEP2        0.0000 
     18 N          66.5105   28.5425   -1.0580 N.am      1 SEC2        0.0000 
     19 N          66.0450   27.4920   -0.6670 N.am      4 SEP2        0.0000 
     20 NZ         64.2720   32.7285   -3.3715 N.4       2 LYC4        0.0000 
     21 NZ         64.4550   33.1610   -2.0320 N.4       8 LYL4        0.0000 
     22 NZ         63.1230   33.1910   -4.8600 N.4       5 LYP4        0.0000 
     23 N          65.5205   33.8940   -2.5430 N.am      1 SEC2        0.0000 
     24 N          64.4550   33.1610   -2.0320 N.am      7 SEL2        0.0000 
     25 N          66.5860   34.6270   -3.0540 N.am      4 SEP2        0.0000 
     26 N          64.2720   32.7285   -3.3715 N.am      1 SEC2        0.0000 
     27 N          63.7235   33.6665   -3.0050 N.am      1 SEC2        0.0000 
     28 N          62.9920   34.1720   -3.9780 N.am      4 SEP2        0.0000 
     29 N          67.6330   32.4530    0.0875 N.am      1 SEC2        0.0000 
     30 N          66.4050   31.9510   -0.5710 N.am      7 SEL2        0.0000 
     31 CA         59.5710   30.3805   -0.2115 C.3       3 GLC5        0.0000 
     32 CA         60.6190   29.6250   -1.8210 C.3       9 GLL5        0.0000 
     33 CA         58.5230   31.1360    1.3980 C.3       6 GLP5        0.0000 
     34 CA         59.5250   30.1960   -3.6565 C.3       3 GLC5        0.0000 
     35 CA         58.4310   30.7670   -5.4920 C.3       6 GLP5        0.0000 
     36 CA         57.4030   32.5510   -4.1535 C.3       3 GLC5        0.0000 
     37 CA         56.9530   32.7750   -2.2760 C.3       9 GLL5        0.0000 
     38 CA         57.8530   32.3270   -6.0310 C.3       6 GLP5        0.0000 
     39 CA         56.5110   29.9060   -0.4080 C.3       3 GLC5        0.0000 
     40 CA         56.2950   30.5540   -2.1860 C.3       9 GLL5        0.0000 
     41 CA         56.7270   29.2580    1.3700 C.3       6 GLP5        0.0000 
     42 CA         57.3630   30.6605   -3.8390 C.3       3 GLC5        0.0000 
     43 CA         55.4275   30.0230   -3.7540 C.3       3 GLC5        0.0000 
     44 CA         54.5600   29.4920   -5.3220 C.3       6 GLP5        0.0000 
     45 CA         58.4228   31.2330   -3.7942 C.3       3 GLC5        0.0000 
     46 CA         58.2770   32.3780   -2.1490 C.3       9 GLL5        0.0000 
     47 CA         58.3033   31.4671   -0.3651 C.3       3 GLC5        0.0000 
     48 CA         58.5520   31.0200   -2.0440 C.3       9 GLL5        0.0000 
@<TRIPOS>BOND
@<TRIPOS>SUBSTRUCTURE
     1 SEC2        1 GROUP        1 X    SEC  0     ROOT SEC X 2
     2 LYC4        6 GROUP        1 X    LYC  0     **** LYC X 4
     3 GLC5       31 GROUP        1 X    GLC  0     **** GLC X 6
     4 SEP2        3 GROUP        1 Y    SEP  0     ROOT SEP Y 9
     5 LYP4        8 GROUP        1 Y    LYP  0     **** LYP Y 11
     6 GLP5       33 GROUP        1 Y    GLP  0     **** GLP Y 13
     7 SEL2        2 GROUP        1 Z    SEL  0     ROOT SEL Z 16
     8 LYL4        7 GROUP        1 Z    LYL  0     **** LYL Z 18
     9 GLL5       32 GROUP        1 Z    GLL  0     **** GLL Z 20
@<TRIPOS>SET

