#    Name: 2zsa_ADP_1_ligand
#    Modification time : Tue Mar 25 11:01:10 2014

@<TRIPOS>MOLECULE
2zsa_ADP_1_ligand
   39    41     1     0     0
SMALL
NO_CHARGES


@<TRIPOS>ATOM
      1 PB         67.1710   31.1620   -1.7460 P.3       1 ADP800      0.0000 
      2 O1B        66.7340   31.5400   -3.1080 O.co2     1 ADP800      0.0000 
      3 O2B        68.7350   31.4650   -1.5120 O.co2     1 ADP800      0.0000 
      4 O3B        66.9760   29.5930   -1.4490 O.co2     1 ADP800      0.0000 
      5 PA         64.9180   32.5400   -0.7720 P.3       1 ADP800      0.0000 
      6 O1A        64.4550   33.1610   -2.0320 O.co2     1 ADP800      0.0000 
      7 O2A        64.2100   32.8430    0.6410 O.co2     1 ADP800      0.0000 
      8 O3A        66.4050   31.9510   -0.5710 O.3       1 ADP800      0.0000 
      9 O5'        64.2600   31.0780   -0.9180 O.3       1 ADP800      0.0000 
     10 C5'        62.9400   30.8630   -0.4170 C.3       1 ADP800      0.0000 
     11 C4'        62.5200   29.3950   -0.5150 C.3       1 ADP800      0.0000 
     12 O4'        61.0830   29.3640   -0.4840 O.3       1 ADP800      0.0000 
     13 C3'        62.8430   28.8720   -1.9150 C.3       1 ADP800      0.0000 
     14 O3'        62.4610   27.4990   -2.0290 O.3       1 ADP800      0.0000 
     15 C2'        61.8620   29.7320   -2.7070 C.3       1 ADP800      0.0000 
     16 O2'        61.5950   29.1090   -3.9650 O.3       1 ADP800      0.0000 
     17 C1'        60.6190   29.6250   -1.8210 C.3       1 ADP800      0.0000 
     18 N9         59.8710   30.8980   -1.9250 N.pl3     1 ADP800      0.0000 
     19 C8         60.4030   32.1180   -1.9530 C.2       1 ADP800      0.0000 
     20 N7         59.4380   33.0240   -2.0900 N.2       1 ADP800      0.0000 
     21 C5         58.2770   32.3780   -2.1490 C.ar      1 ADP800      0.0000 
     22 C6         56.9530   32.7750   -2.2760 C.ar      1 ADP800      0.0000 
     23 N6         56.6350   34.0640   -2.3790 N.pl3     1 ADP800      0.0000 
     24 N1         55.9960   31.8360   -2.2910 N.ar      1 ADP800      0.0000 
     25 C2         56.2950   30.5540   -2.1860 C.ar      1 ADP800      0.0000 
     26 N3         57.5450   30.1390   -2.0650 N.ar      1 ADP800      0.0000 
     27 C4         58.5520   31.0200   -2.0440 C.ar      1 ADP800      0.0000 
     28 H          62.1930   31.4595   -0.9726 H         1 ADP800      0.0000 
     29 H          62.8550   31.1622    0.6440 H         1 ADP800      0.0000 
     30 H          62.9585   28.8191    0.2019 H         1 ADP800      0.0000 
     31 H          63.7977   29.1138   -2.1670 H         1 ADP800      0.0000 
     32 H          62.1869   30.7001   -2.7368 H         1 ADP800      0.0000 
     33 H          60.0295   28.8135   -2.1963 H         1 ADP800      0.0000 
     34 H          61.3604   32.3183   -1.8833 H         1 ADP800      0.0000 
     35 H          57.3997   34.7082   -2.3668 H         1 ADP800      0.0000 
     36 H          55.6601   34.2716   -2.4593 H         1 ADP800      0.0000 
     37 H          55.5113   29.8362   -2.1990 H         1 ADP800      0.0000 
     38 H          63.2888   27.0241   -2.3277 H         1 ADP800      0.0000 
     39 H          61.8905   28.1604   -3.8518 H         1 ADP800      0.0000 
@<TRIPOS>BOND
     1    2    1 ar   
     2    3    1 ar   
     3    4    1 ar   
     4    8    1 1    
     5    6    5 ar   
     6    7    5 ar   
     7    8    5 1    
     8    9    5 1    
     9   10    9 1    
    10   11   10 1    
    11   28   10 1    
    12   29   10 1    
    13   12   11 1    
    14   13   11 1    
    15   30   11 1    
    16   17   12 1    
    17   14   13 1    
    18   15   13 1    
    19   31   13 1    
    20   38   14 1    
    21   16   15 1    
    22   17   15 1    
    23   32   15 1    
    24   39   16 1    
    25   18   17 1    
    26   33   17 1    
    27   19   18 1    
    28   27   18 1    
    29   20   19 2    
    30   34   19 1    
    31   21   20 1    
    32   22   21 ar   
    33   27   21 ar   
    34   23   22 1    
    35   24   22 ar   
    36   35   23 1    
    37   36   23 1    
    38   25   24 ar   
    39   26   25 ar   
    40   37   25 1    
    41   27   26 ar   
@<TRIPOS>SUBSTRUCTURE
     1 ADP800      1 GROUP   
@<TRIPOS>SET

