#    Name: 1uyi_PUZ_1_INTS_M
#    Modification time : Tue Mar 25 07:19:49 2014

@<TRIPOS>MOLECULE
1uyi_PUZ_1_INTS_M
   67     0     6     0     0
SMALL
NO_CHARGES


@<TRIPOS>ATOM
      1 CA          5.1345    9.5105   30.5045 C.3       2 GLC5        0.0000 
      2 CA          5.1990    7.9820   29.0130 C.3       6 GLL5        0.0000 
      3 CA          5.0700   11.0390   31.9960 C.3       4 GLP5        0.0000 
      4 CA          6.3355    6.6285   27.0600 C.3       2 GLC5        0.0000 
      5 CA          4.6800    7.2890   26.3660 C.3       6 GLL5        0.0000 
      6 CA          7.9910    5.9680   27.7540 C.3       4 GLP5        0.0000 
      7 CA          3.1615   10.8805   27.1410 C.3       2 GLC5        0.0000 
      8 CA          3.4660    9.4610   26.0310 C.3       6 GLL5        0.0000 
      9 CA          2.8570   12.3000   28.2510 C.3       4 GLP5        0.0000 
     10 CA          1.9450   11.2235   27.0505 C.3       2 GLC5        0.0000 
     11 CA          1.0330   10.1470   25.8500 C.3       6 GLL5        0.0000 
     12 CA          0.0335   10.1135   22.9350 C.3       2 GLC5        0.0000 
     13 CA          0.2250   10.7470   24.9230 C.3       6 GLL5        0.0000 
     14 CA         -0.1580    9.4800   20.9470 C.3       4 GLP5        0.0000 
     15 CA          0.9785   12.2470   26.3175 C.3       2 GLC5        0.0000 
     16 CA          1.7320   13.7470   27.7120 C.3       4 GLP5        0.0000 
     17 CA         -2.2370    9.3725   25.8290 C.3       2 GLC5        0.0000 
     18 CA         -1.1230   10.9340   25.2300 C.3       6 GLL5        0.0000 
     19 CA         -3.3510    7.8110   26.4280 C.3       4 GLP5        0.0000 
     20 CA         -2.0650   12.5115   26.1235 C.3       2 GLC5        0.0000 
     21 CA         -3.0070   14.0890   27.0170 C.3       4 GLP5        0.0000 
     22 O          -3.4255   11.7375   24.3965 O.2       1 ALC1        0.0000 
     23 O          -2.0080   11.4920   24.3850 O.2       5 ALL1        0.0000 
     24 O          -4.8430   11.9830   24.4080 O.2       3 ALP1        0.0000 
     25 CA         -1.7815    8.3210   29.4110 C.3       2 GLC5        0.0000 
     26 CA         -1.1800    9.6000   28.4740 C.3       6 GLL5        0.0000 
     27 CA         -2.3830    7.0420   30.3480 C.3       4 GLP5        0.0000 
     28 CA         -1.9130   10.4650   29.8270 C.3       2 GLC5        0.0000 
     29 CA         -2.6460   11.3300   31.1800 C.3       4 GLP5        0.0000 
     30 CA          1.6615   10.0485   22.1030 C.3       2 GLC5        0.0000 
     31 CA          3.4810   10.6170   23.2590 C.3       6 GLL5        0.0000 
     32 CA          6.9885   10.4290   24.9690 C.3       2 GLC5        0.0000 
     33 CA          7.4960   10.0370   23.0230 C.3       6 GLL5        0.0000 
     34 CA          6.4810   10.8210   26.9150 C.3       4 GLP5        0.0000 
     35 CA          9.6665   10.0890   23.0895 C.3       2 GLC5        0.0000 
     36 CA         11.8370   10.1410   23.1560 C.3       4 GLP5        0.0000 
     37 CA          8.6720   11.3100   21.8870 C.3       2 GLC5        0.0000 
     38 CA          9.8480   12.5830   20.7510 C.3       4 GLP5        0.0000 
     39 CA          5.1590   11.8700   25.5945 C.3       2 GLC5        0.0000 
     40 CA          3.8370   12.9190   24.2740 C.3       6 GLL5        0.0000 
     41 CA          4.7335   15.9785   27.7660 C.3       2 GLC5        0.0000 
     42 CA          4.9430   16.2520   25.5770 C.3       6 GLL5        0.0000 
     43 CA          4.5240   15.7050   29.9550 C.3       4 GLP5        0.0000 
     44 CA          5.8430   14.7515   26.6135 C.3       2 GLC5        0.0000 
     45 CA          6.7430   13.2510   27.6500 C.3       4 GLP5        0.0000 
     46 CA          4.7230   16.5800   23.6440 C.3       2 GLC5        0.0000 
     47 CA          4.5030   16.9080   21.7110 C.3       4 GLP5        0.0000 
     48 CA          3.5785   17.2880   25.0045 C.3       2 GLC5        0.0000 
     49 CA          2.2140   18.3240   24.4320 C.3       4 GLP5        0.0000 
     50 CA          5.6220   17.6970   25.8905 C.3       2 GLC5        0.0000 
     51 CA          6.3010   19.1420   26.2040 C.3       4 GLP5        0.0000 
     52 CA          5.7855    9.3195   27.6550 C.3       2 GLC5        0.0000 
     53 CA          6.5405    6.8930   28.0745 C.3       2 GLC5        0.0000 
     54 CA          4.9810    7.6540   27.7770 C.3       6 GLL5        0.0000 
     55 CA          5.1113    9.6785   26.4995 C.3       2 GLC5        0.0000 
     56 CA         -2.1520    8.8003   27.1593 C.3       2 GLC5        0.0000 
     57 CA         -0.7260    9.9790   27.3070 C.3       6 GLL5        0.0000 
     58 CA          0.4840   10.7423   28.7503 C.3       2 GLC5        0.0000 
     59 CA          1.9210   11.6950   29.6100 C.3       4 GLP5        0.0000 
     60 CA          6.1566   11.5520   25.2354 C.3       2 GLC5        0.0000 
     61 CA          6.6110   12.8020   23.6220 C.3       6 GLL5        0.0000 
     62 CA          6.0590   13.6077   26.0282 C.3       2 GLC5        0.0000 
     63 CA          6.0550   13.9340   24.2360 C.3       6 GLL5        0.0000 
     64 CA          5.4736   12.9817   22.0354 C.3       2 GLC5        0.0000 
     65 CA          4.8320   12.8630   20.2140 C.3       4 GLP5        0.0000 
     66 CA          2.9990   13.6020   26.0688 C.3       2 GLC5        0.0000 
     67 CA          4.3563   12.4629   22.0386 C.3       2 GLC5        0.0000 
@<TRIPOS>BOND
@<TRIPOS>SUBSTRUCTURE
     1 ALC1       22 GROUP        1 X    ALC  0     ROOT ALC X 1
     2 GLC5        1 GROUP        1 X    GLC  0     **** GLC X 6
     3 ALP1       24 GROUP        1 Y    ALP  0     ROOT ALP Y 8
     4 GLP5        3 GROUP        1 Y    GLP  0     **** GLP Y 13
     5 ALL1       23 GROUP        1 Z    ALL  0     ROOT ALL Z 15
     6 GLL5        2 GROUP        1 Z    GLL  0     **** GLL Z 20
@<TRIPOS>SET

