#    Name: 1uyi_PUZ_1_ligand
#    Modification time : Tue Mar 25 07:19:49 2014

@<TRIPOS>MOLECULE
1uyi_PUZ_1_ligand
   46    48     1     0     0
SMALL
NO_CHARGES


@<TRIPOS>ATOM
      1 C19         5.1990    7.9820   29.0130 C.1       1 PUZ1224     0.0000 
      2 C18         4.9810    7.6540   27.7770 C.1       1 PUZ1224     0.0000 
      3 C17         4.6800    7.2890   26.3660 C.3       1 PUZ1224     0.0000 
      4 C16         3.3540    7.9330   25.9080 C.3       1 PUZ1224     0.0000 
      5 C15         3.4660    9.4610   26.0310 C.3       1 PUZ1224     0.0000 
      6 N2          2.2830   10.0330   25.3560 N.pl3     1 PUZ1224     0.0000 
      7 C12         1.0330   10.1470   25.8500 C.ar      1 PUZ1224     0.0000 
      8 N4          0.5660    9.7670   27.0420 N.ar      1 PUZ1224     0.0000 
      9 C11         0.2250   10.7470   24.9230 C.ar      1 PUZ1224     0.0000 
     10 C13        -1.1230   10.9340   25.2300 C.ar      1 PUZ1224     0.0000 
     11 N5         -2.0080   11.4920   24.3850 N.pl3     1 PUZ1224     0.0000 
     12 N3         -1.5600   10.5490   26.4280 N.ar      1 PUZ1224     0.0000 
     13 C14        -0.7260    9.9790   27.3070 C.ar      1 PUZ1224     0.0000 
     14 F1         -1.1800    9.6000   28.4740 F         1 PUZ1224     0.0000 
     15 N1          0.9970   11.0240   23.8410 N.2       1 PUZ1224     0.0000 
     16 C10         2.2460   10.5480   24.1200 C.2       1 PUZ1224     0.0000 
     17 C9          3.4810   10.6170   23.2590 C.3       1 PUZ1224     0.0000 
     18 C1          4.3670   11.7960   23.6460 C.ar      1 PUZ1224     0.0000 
     19 C2          5.7400   11.7320   23.3330 C.ar      1 PUZ1224     0.0000 
     20 O2          6.2150   10.5960   22.7090 O.3       1 PUZ1224     0.0000 
     21 C7          7.4960   10.0370   23.0230 C.3       1 PUZ1224     0.0000 
     22 C3          6.6110   12.8020   23.6220 C.ar      1 PUZ1224     0.0000 
     23 C4          6.0550   13.9340   24.2360 C.ar      1 PUZ1224     0.0000 
     24 C5          4.6950   13.9950   24.5770 C.ar      1 PUZ1224     0.0000 
     25 C6          3.8370   12.9190   24.2740 C.ar      1 PUZ1224     0.0000 
     26 O5          4.1630   15.1080   25.1890 O.3       1 PUZ1224     0.0000 
     27 C8          4.9430   16.2520   25.5770 C.3       1 PUZ1224     0.0000 
     28 H           4.5880    6.2069   26.2629 H         1 PUZ1224     0.0000 
     29 H           5.4749    7.6356   25.7042 H         1 PUZ1224     0.0000 
     30 H           2.5522    7.5797   26.5378 H         1 PUZ1224     0.0000 
     31 H           3.1682    7.6681   24.8786 H         1 PUZ1224     0.0000 
     32 H           4.3762    9.7783   25.5500 H         1 PUZ1224     0.0000 
     33 H           3.4778    9.7213   27.0763 H         1 PUZ1224     0.0000 
     34 H          -2.9459   11.5749   24.7218 H         1 PUZ1224     0.0000 
     35 H          -1.6492   11.7743   23.4953 H         1 PUZ1224     0.0000 
     36 H           3.1918   10.7200   22.2087 H         1 PUZ1224     0.0000 
     37 H           4.0553    9.6916   23.3648 H         1 PUZ1224     0.0000 
     38 H           7.5876   12.7528   23.3966 H         1 PUZ1224     0.0000 
     39 H           6.6639   14.7464   24.4433 H         1 PUZ1224     0.0000 
     40 H           2.8504   12.9701   24.5131 H         1 PUZ1224     0.0000 
     41 H           8.2370   10.6854   22.8486 H         1 PUZ1224     0.0000 
     42 H           7.5595    9.7711   23.9849 H         1 PUZ1224     0.0000 
     43 H           7.6878    9.2197   22.4797 H         1 PUZ1224     0.0000 
     44 H           5.6588   16.0088   26.2316 H         1 PUZ1224     0.0000 
     45 H           5.3951   16.6766   24.7926 H         1 PUZ1224     0.0000 
     46 H           4.3794   16.9571   26.0075 H         1 PUZ1224     0.0000 
@<TRIPOS>BOND
     1    2    1 3    
     2    3    2 1    
     3    4    3 1    
     4   28    3 1    
     5   29    3 1    
     6    5    4 1    
     7   30    4 1    
     8   31    4 1    
     9    6    5 1    
    10   32    5 1    
    11   33    5 1    
    12    7    6 1    
    13   16    6 1    
    14    8    7 ar   
    15    9    7 ar   
    16   13    8 ar   
    17   10    9 ar   
    18   15    9 1    
    19   11   10 1    
    20   12   10 ar   
    21   34   11 1    
    22   35   11 1    
    23   13   12 ar   
    24   14   13 1    
    25   16   15 2    
    26   17   16 1    
    27   18   17 1    
    28   36   17 1    
    29   37   17 1    
    30   19   18 ar   
    31   25   18 ar   
    32   20   19 1    
    33   22   19 ar   
    34   21   20 1    
    35   41   21 1    
    36   42   21 1    
    37   43   21 1    
    38   23   22 ar   
    39   38   22 1    
    40   24   23 ar   
    41   39   23 1    
    42   25   24 ar   
    43   26   24 1    
    44   40   25 1    
    45   27   26 1    
    46   44   27 1    
    47   45   27 1    
    48   46   27 1    
@<TRIPOS>SUBSTRUCTURE
     1 PUZ1224     1 GROUP   
@<TRIPOS>SET

