#    Name: 1m2w_NAD_1_INTS_M
#    Modification time : Tue Mar 25 11:24:09 2014

@<TRIPOS>MOLECULE
1m2w_NAD_1_INTS_M
   69     0     9     0     0
SMALL
NO_CHARGES


@<TRIPOS>ATOM
      1 N          58.8970   81.0320   45.1300 N.am      2 SEC2        0.0000 
      2 N          58.7890   81.7480   43.9090 N.am      8 SEL2        0.0000 
      3 N          59.0050   80.3160   46.3510 N.am      5 SEP2        0.0000 
      4 O          57.1445   88.9815   45.4280 O.2       1 ALC1        0.0000 
      5 O          58.3620   89.0430   44.6590 O.2       7 ALL1        0.0000 
      6 O          55.9270   88.9200   46.1970 O.2       4 ALP1        0.0000 
      7 CA         60.7690   88.0330   47.1515 C.3       3 GLC5        0.0000 
      8 CA         60.6930   88.4120   45.1930 C.3       9 GLL5        0.0000 
      9 CA         60.8450   87.6540   49.1100 C.3       6 GLP5        0.0000 
     10 CA         64.5810   91.3060   45.5190 C.3       3 GLC5        0.0000 
     11 CA         63.3040   92.3510   44.2690 C.3       9 GLL5        0.0000 
     12 CA         65.8580   90.2610   46.7690 C.3       6 GLP5        0.0000 
     13 CA         62.5595   91.8520   48.7490 C.3       3 GLC5        0.0000 
     14 CA         62.6060   92.0700   46.6180 C.3       9 GLL5        0.0000 
     15 CA         62.5130   91.6340   50.8800 C.3       6 GLP5        0.0000 
     16 CA         62.0680   93.4630   47.9250 C.3       3 GLC5        0.0000 
     17 CA         61.5300   94.8560   49.2320 C.3       6 GLP5        0.0000 
     18 CA         63.8860   91.2845   47.3880 C.3       3 GLC5        0.0000 
     19 CA         65.1660   90.4990   48.1580 C.3       6 GLP5        0.0000 
     20 N          61.7020   79.4845   45.2795 N.am      2 SEC2        0.0000 
     21 N          61.8970   79.8750   43.6990 N.am      8 SEL2        0.0000 
     22 N          61.5070   79.0940   46.8600 N.am      5 SEP2        0.0000 
     23 N          61.5525   80.3385   46.1985 N.am      2 SEC2        0.0000 
     24 N          61.5980   81.5830   45.5370 N.am      8 SEL2        0.0000 
     25 CA         63.9430   81.1780   45.6715 C.3       3 GLC5        0.0000 
     26 CA         63.9050   83.0480   44.5270 C.3       9 GLL5        0.0000 
     27 CA         63.9810   79.3080   46.8160 C.3       6 GLP5        0.0000 
     28 O          67.2770   84.3190   41.4065 O.2       1 ALC1        0.0000 
     29 O          66.2300   84.0620   42.4940 O.2       7 ALL1        0.0000 
     30 O          68.3240   84.5760   40.3190 O.2       4 ALP1        0.0000 
     31 N          70.0435   83.2660   44.6045 N.am      2 SEC2        0.0000 
     32 N          68.6320   83.5450   44.1010 N.am      8 SEL2        0.0000 
     33 N          71.4550   82.9870   45.1080 N.am      5 SEP2        0.0000 
     34 O          68.1990   84.5150   44.9855 O.2       1 ALC1        0.0000 
     35 O          68.6320   83.5450   44.1010 O.2       7 ALL1        0.0000 
     36 O          67.7660   85.4850   45.8700 O.2       4 ALP1        0.0000 
     37 CA         66.7320   80.6415   46.5535 C.3       3 GLC5        0.0000 
     38 CA         67.2800   81.7090   45.0940 C.3       9 GLL5        0.0000 
     39 CA         66.1840   79.5740   48.0130 C.3       6 GLP5        0.0000 
     40 N          64.3340   75.0105   43.0530 N.am      2 SEC2        0.0000 
     41 N          65.2710   76.1490   42.9010 N.am      8 SEL2        0.0000 
     42 N          63.3970   73.8720   43.2050 N.am      5 SEP2        0.0000 
     43 O          62.7870   77.0385   42.3555 O.2       1 ALC1        0.0000 
     44 O          64.0320   78.1290   42.7790 O.2       7 ALL1        0.0000 
     45 O          61.5420   75.9480   41.9320 O.2       4 ALP1        0.0000 
     46 CA         59.6402   84.0648   45.9110 C.3       3 GLC5        0.0000 
     47 CA         60.7170   85.1100   44.0840 C.3       9 GLL5        0.0000 
     48 CA         58.6930   82.5670   47.1180 C.3       6 GLP5        0.0000 
     49 CA         60.3095   87.0137   47.2193 C.3       3 GLC5        0.0000 
     50 CA         60.4580   86.0150   45.3240 C.3       9 GLL5        0.0000 
     51 CA         59.4067   90.1315   44.1480 C.3       3 GLC5        0.0000 
     52 CA         58.7870   92.0500   43.4200 C.3       6 GLP5        0.0000 
     53 CA         60.5385   91.4373   43.9548 C.3       3 GLC5        0.0000 
     54 CA         61.9630   90.4780   45.0060 C.3       9 GLL5        0.0000 
     55 CA         63.8415   89.8642   45.3337 C.3       3 GLC5        0.0000 
     56 CA         65.3930   88.9040   46.1780 C.3       6 GLP5        0.0000 
     57 CA         64.7327   83.7965   46.4663 C.3       3 GLC5        0.0000 
     58 CA         64.8090   84.4960   48.3480 C.3       6 GLP5        0.0000 
     59 CA         66.3190   85.0553   43.5362 C.3       3 GLC5        0.0000 
     60 CA         65.4080   83.1460   44.6420 C.3       9 GLL5        0.0000 
     61 CA         66.8060   87.0700   43.0830 C.3       6 GLP5        0.0000 
     62 CA         68.8443   83.1118   45.6590 C.3       3 GLC5        0.0000 
     63 CA         67.6430   82.5040   43.8520 C.3       9 GLL5        0.0000 
     64 CA         70.2270   84.1170   46.8450 C.3       6 GLP5        0.0000 
     65 CA         65.3303   78.7575   45.5350 C.3       3 GLC5        0.0000 
     66 CA         66.0170   79.6120   44.1190 C.3       9 GLL5        0.0000 
     67 CA         69.6898   79.1265   46.7302 C.3       3 GLC5        0.0000 
     68 CA         68.2270   79.5700   45.3280 C.3       9 GLL5        0.0000 
     69 CA         71.1150   79.3620   48.2190 C.3       6 GLP5        0.0000 
@<TRIPOS>BOND
@<TRIPOS>SUBSTRUCTURE
     1 ALC1        4 GROUP        1 X    ALC  0     ROOT ALC X 1
     2 SEC2        1 GROUP        1 X    SEC  0     **** SEC X 2
     3 GLC5        7 GROUP        1 X    GLC  0     **** GLC X 6
     4 ALP1        6 GROUP        1 Y    ALP  0     ROOT ALP Y 8
     5 SEP2        3 GROUP        1 Y    SEP  0     **** SEP Y 9
     6 GLP5        9 GROUP        1 Y    GLP  0     **** GLP Y 13
     7 ALL1        5 GROUP        1 Z    ALL  0     ROOT ALL Z 15
     8 SEL2        2 GROUP        1 Z    SEL  0     **** SEL Z 16
     9 GLL5        8 GROUP        1 Z    GLL  0     **** GLL Z 20
@<TRIPOS>SET

