#    Name: 1m2w_NAD_1_ligand
#    Modification time : Tue Mar 25 11:24:09 2014

@<TRIPOS>MOLECULE
1m2w_NAD_1_ligand
   70    74     1     0     0
SMALL
NO_CHARGES


@<TRIPOS>ATOM
      1 PA         59.6510   82.8380   43.2500 P.3       1 NAD5500     0.0000 
      2 O1A        59.4010   83.4070   41.9500 O.co2     1 NAD5500     0.0000 
      3 O2A        58.7890   81.7480   43.9090 O.co2     1 NAD5500     0.0000 
      4 O5B        59.7580   84.0450   44.3220 O.3       1 NAD5500     0.0000 
      5 C5B        60.7170   85.1100   44.0840 C.3       1 NAD5500     0.0000 
      6 C4B        60.4580   86.0150   45.3240 C.3       1 NAD5500     0.0000 
      7 O4B        61.4110   87.1660   45.2060 O.3       1 NAD5500     0.0000 
      8 C3B        59.0900   86.7320   45.3330 C.3       1 NAD5500     0.0000 
      9 O3B        58.8310   86.9400   46.7100 O.3       1 NAD5500     0.0000 
     10 C2B        59.3600   88.0140   44.5590 C.3       1 NAD5500     0.0000 
     11 O2B        58.3620   89.0430   44.6590 O.3       1 NAD5500     0.0000 
     12 C1B        60.6930   88.4120   45.1930 C.3       1 NAD5500     0.0000 
     13 N9A        61.4200   89.3850   44.4180 N.pl3     1 NAD5500     0.0000 
     14 C8A        61.7350   89.4540   43.0720 C.2       1 NAD5500     0.0000 
     15 N7A        62.4600   90.5150   42.7450 N.2       1 NAD5500     0.0000 
     16 C5A        62.6170   91.1710   43.9730 C.ar      1 NAD5500     0.0000 
     17 C6A        63.3040   92.3510   44.2690 C.ar      1 NAD5500     0.0000 
     18 N6A        63.9800   93.1030   43.3960 N.pl3     1 NAD5500     0.0000 
     19 N1A        63.2850   92.7940   45.6180 N.ar      1 NAD5500     0.0000 
     20 C2A        62.6060   92.0700   46.6180 C.ar      1 NAD5500     0.0000 
     21 N3A        61.9220   90.8790   46.3620 N.ar      1 NAD5500     0.0000 
     22 C4A        61.9630   90.4780   45.0060 C.ar      1 NAD5500     0.0000 
     23 O3         61.1410   82.2720   43.2330 O.3       1 NAD5500     0.0000 
     24 PN         62.0010   81.2900   44.1520 P.3       1 NAD5500     0.0000 
     25 O1N        61.8970   79.8750   43.6990 O.co2     1 NAD5500     0.0000 
     26 O2N        61.5980   81.5830   45.5370 O.co2     1 NAD5500     0.0000 
     27 O5D        63.5030   81.8190   43.8320 O.3       1 NAD5500     0.0000 
     28 C5D        63.9050   83.0480   44.5270 C.3       1 NAD5500     0.0000 
     29 C4D        65.4080   83.1460   44.6420 C.3       1 NAD5500     0.0000 
     30 O4D        66.0220   82.2870   45.6370 O.3       1 NAD5500     0.0000 
     31 C3D        66.2560   82.9350   43.3370 C.3       1 NAD5500     0.0000 
     32 O3D        66.2300   84.0620   42.4940 O.3       1 NAD5500     0.0000 
     33 C2D        67.6430   82.5040   43.8520 C.3       1 NAD5500     0.0000 
     34 O2D        68.6320   83.5450   44.1010 O.3       1 NAD5500     0.0000 
     35 C1D        67.2800   81.7090   45.0940 C.3       1 NAD5500     0.0000 
     36 N1N        67.1010   80.2590   44.8150 N.pl3     1 NAD5500     0.0000 
     37 C2N        66.0170   79.6120   44.1190 C.ar      1 NAD5500     0.0000 
     38 C3N        66.1330   78.2080   43.9570 C.ar      1 NAD5500     0.0000 
     39 C7N        65.0630   77.4350   43.1840 C.2       1 NAD5500     0.0000 
     40 O7N        65.2710   76.1490   42.9010 O.2       1 NAD5500     0.0000 
     41 N7N        64.0320   78.1290   42.7790 N.am      1 NAD5500     0.0000 
     42 C4N        67.2840   77.5040   44.4700 C.ar      1 NAD5500     0.0000 
     43 C5N        68.3020   78.2120   45.1550 C.ar      1 NAD5500     0.0000 
     44 C6N        68.2270   79.5700   45.3280 C.ar      1 NAD5500     0.0000 
     45 H          60.4897   85.6685   43.2184 H         1 NAD5500     0.0000 
     46 H          61.7144   84.7695   44.1303 H         1 NAD5500     0.0000 
     47 H          60.6198   85.5112   46.2104 H         1 NAD5500     0.0000 
     48 H          58.4120   86.1291   44.8394 H         1 NAD5500     0.0000 
     49 H          59.5892   87.7263   43.5425 H         1 NAD5500     0.0000 
     50 H          60.5008   88.7314   46.1880 H         1 NAD5500     0.0000 
     51 H          61.4295   88.7528   42.4292 H         1 NAD5500     0.0000 
     52 H          64.3943   93.9365   43.7615 H         1 NAD5500     0.0000 
     53 H          64.0110   92.7648   42.4554 H         1 NAD5500     0.0000 
     54 H          62.6174   92.4448   47.5936 H         1 NAD5500     0.0000 
     55 H          63.4724   83.0752   45.5373 H         1 NAD5500     0.0000 
     56 H          63.5352   83.9313   43.9871 H         1 NAD5500     0.0000 
     57 H          65.6619   84.2143   44.9504 H         1 NAD5500     0.0000 
     58 H          65.8143   82.0415   42.8655 H         1 NAD5500     0.0000 
     59 H          68.0127   81.7572   43.1268 H         1 NAD5500     0.0000 
     60 H          68.0661   81.8500   45.8263 H         1 NAD5500     0.0000 
     61 H          65.2457   80.1253   43.7800 H         1 NAD5500     0.0000 
     62 H          64.0612   79.1108   42.9668 H         1 NAD5500     0.0000 
     63 H          63.3087   77.6145   42.3185 H         1 NAD5500     0.0000 
     64 H          67.3531   76.4999   44.3336 H         1 NAD5500     0.0000 
     65 H          69.1080   77.6771   45.5237 H         1 NAD5500     0.0000 
     66 H          68.9550   80.0915   45.8124 H         1 NAD5500     0.0000 
     67 H          58.2378   86.1813   46.9791 H         1 NAD5500     0.0000 
     68 H          57.6453   88.6529   45.2371 H         1 NAD5500     0.0000 
     69 H          67.0061   83.9402   41.8752 H         1 NAD5500     0.0000 
     70 H          68.1808   84.1878   44.7201 H         1 NAD5500     0.0000 
@<TRIPOS>BOND
     1    2    1 ar   
     2    3    1 ar   
     3    4    1 1    
     4   23    1 1    
     5    5    4 1    
     6    6    5 1    
     7   45    5 1    
     8   46    5 1    
     9    7    6 1    
    10    8    6 1    
    11   47    6 1    
    12   12    7 1    
    13    9    8 1    
    14   10    8 1    
    15   48    8 1    
    16   67    9 1    
    17   11   10 1    
    18   12   10 1    
    19   49   10 1    
    20   68   11 1    
    21   13   12 1    
    22   50   12 1    
    23   14   13 1    
    24   22   13 1    
    25   15   14 2    
    26   51   14 1    
    27   16   15 1    
    28   17   16 ar   
    29   22   16 ar   
    30   18   17 1    
    31   19   17 ar   
    32   52   18 1    
    33   53   18 1    
    34   20   19 ar   
    35   21   20 ar   
    36   54   20 1    
    37   22   21 ar   
    38   24   23 1    
    39   25   24 ar   
    40   26   24 ar   
    41   27   24 1    
    42   28   27 1    
    43   29   28 1    
    44   55   28 1    
    45   56   28 1    
    46   30   29 1    
    47   31   29 1    
    48   57   29 1    
    49   35   30 1    
    50   32   31 1    
    51   33   31 1    
    52   58   31 1    
    53   69   32 1    
    54   34   33 1    
    55   35   33 1    
    56   59   33 1    
    57   70   34 1    
    58   36   35 1    
    59   60   35 1    
    60   37   36 ar   
    61   44   36 ar   
    62   38   37 ar   
    63   61   37 1    
    64   39   38 1    
    65   42   38 ar   
    66   40   39 2    
    67   41   39 am   
    68   62   41 1    
    69   63   41 1    
    70   43   42 ar   
    71   64   42 1    
    72   44   43 ar   
    73   65   43 1    
    74   66   44 1    
@<TRIPOS>SUBSTRUCTURE
     1 NAD5500     1 GROUP   
@<TRIPOS>SET

