#    Name: 2who_VGI_2_INTS_M
#    Modification time : Tue Mar 25 04:21:42 2014

@<TRIPOS>MOLECULE
2who_VGI_2_INTS_M
   48     0     3     0     0
SMALL
NO_CHARGES


@<TRIPOS>ATOM
      1 CA         10.5370  -33.4125   79.3935 C.3       1 GLC5        0.0000 
      2 CA          9.8290  -35.1320   79.0620 C.3       3 GLL5        0.0000 
      3 CA         11.2450  -31.6930   79.7250 C.3       2 GLP5        0.0000 
      4 CA         11.0975  -35.5240   80.6020 C.3       1 GLC5        0.0000 
      5 CA         12.3660  -35.9160   82.1420 C.3       2 GLP5        0.0000 
      6 CA         10.4665  -35.8265   77.1850 C.3       1 GLC5        0.0000 
      7 CA         11.1040  -36.5210   75.3080 C.3       2 GLP5        0.0000 
      8 CA          8.4530  -34.7245   80.2265 C.3       1 GLC5        0.0000 
      9 CA          7.0770  -34.3170   81.3910 C.3       2 GLP5        0.0000 
     10 CA          7.8780  -37.8615   75.8640 C.3       1 GLC5        0.0000 
     11 CA          8.3040  -37.3350   77.8830 C.3       3 GLL5        0.0000 
     12 CA          7.4520  -38.3880   73.8450 C.3       2 GLP5        0.0000 
     13 CA          7.1125  -38.8685   76.0705 C.3       1 GLC5        0.0000 
     14 CA          8.0080  -38.6780   77.6680 C.3       3 GLL5        0.0000 
     15 CA          6.2170  -39.0590   74.4730 C.3       2 GLP5        0.0000 
     16 CA         12.0960  -39.5795   81.8600 C.3       1 GLC5        0.0000 
     17 CA         11.4270  -41.4900   81.7170 C.3       3 GLL5        0.0000 
     18 CA         12.7650  -37.6690   82.0030 C.3       2 GLP5        0.0000 
     19 CA          9.8345  -41.2800   84.1480 C.3       1 GLC5        0.0000 
     20 CA         11.3480  -41.8220   83.0640 C.3       3 GLL5        0.0000 
     21 CA          8.3210  -40.7380   85.2320 C.3       2 GLP5        0.0000 
     22 CA         16.3550  -41.9555   81.4020 C.3       1 GLC5        0.0000 
     23 CA         16.4210  -43.9910   81.7750 C.3       3 GLL5        0.0000 
     24 CA         16.2890  -39.9200   81.0290 C.3       2 GLP5        0.0000 
     25 CA         19.2730  -43.5365   80.5840 C.3       1 GLC5        0.0000 
     26 CA         17.5560  -44.6230   80.9680 C.3       3 GLL5        0.0000 
     27 CA         20.9900  -42.4500   80.2000 C.3       2 GLP5        0.0000 
     28 CA          7.5240  -36.1325   79.3780 C.3       1 GLC5        0.0000 
     29 CA          9.3620  -36.9730   78.7230 C.3       3 GLL5        0.0000 
     30 CA          6.2150  -35.1110   80.4530 C.3       2 GLP5        0.0000 
     31 CA         11.1992  -38.1069   79.7916 C.3       1 GLC5        0.0000 
     32 CA         10.0920  -37.9840   79.3380 C.3       3 GLL5        0.0000 
     33 CA         12.6390  -37.8120   80.4980 C.3       2 GLP5        0.0000 
     34 CA         13.2203  -42.5667   85.1335 C.3       1 GLC5        0.0000 
     35 CA         13.2270  -43.3120   82.8180 C.3       3 GLL5        0.0000 
     36 CA         13.7050  -42.1130   87.0460 C.3       2 GLP5        0.0000 
     37 CA         14.3554  -41.5564   82.8775 C.3       1 GLC5        0.0000 
     38 CA         12.2440  -42.7290   83.6240 C.3       3 GLL5        0.0000 
     39 CA         15.6850  -40.1150   83.4100 C.3       2 GLP5        0.0000 
     40 CA         12.5568  -39.8560   80.3723 C.3       1 GLC5        0.0000 
     41 CA         12.4210  -42.0690   80.9220 C.3       3 GLL5        0.0000 
     42 CA         14.3818  -40.9100   80.6377 C.3       1 GLC5        0.0000 
     43 CA         12.5280  -41.7310   79.5710 C.3       3 GLL5        0.0000 
     44 CA         15.5473  -42.8630   77.9047 C.3       1 GLC5        0.0000 
     45 CA         13.5050  -42.3110   78.7720 C.3       3 GLL5        0.0000 
     46 CA         17.1410  -42.9650   76.7620 C.3       2 GLP5        0.0000 
     47 CA         15.2089  -41.5360   80.4436 C.3       1 GLC5        0.0000 
     48 CA         14.4020  -43.2110   79.3230 C.3       3 GLL5        0.0000 
@<TRIPOS>BOND
@<TRIPOS>SUBSTRUCTURE
     1 GLC5        1 GROUP        1 X    GLC  0     ROOT GLC X 6
     2 GLP5        3 GROUP        1 Y    GLP  0     ROOT GLP Y 13
     3 GLL5        2 GROUP        1 Z    GLL  0     ROOT GLL Z 20
@<TRIPOS>SET

