#    Name: 2who_VGI_2_ligand
#    Modification time : Tue Mar 25 04:21:42 2014

@<TRIPOS>MOLECULE
2who_VGI_2_ligand
   41    44     1     0     0
SMALL
NO_CHARGES


@<TRIPOS>ATOM
      1 C14        10.0920  -37.9840   79.3380 C.ar      1 VGI1534     0.0000 
      2 C15         9.3620  -36.9730   78.7230 C.ar      1 VGI1534     0.0000 
      3 BR1         9.8290  -35.1320   79.0620 Br        1 VGI1534     0.0000 
      4 C16         8.3040  -37.3350   77.8830 C.ar      1 VGI1534     0.0000 
      5 C17         8.0080  -38.6780   77.6680 C.ar      1 VGI1534     0.0000 
      6 C18         8.7520  -39.6820   78.2920 C.ar      1 VGI1534     0.0000 
      7 C13         9.7920  -39.3250   79.1400 C.ar      1 VGI1534     0.0000 
      8 N2         10.6160  -40.2560   79.7810 N.am      1 VGI1534     0.0000 
      9 C9         11.6350  -40.8300   79.0060 C.2       1 VGI1534     0.0000 
     10 O1         11.7230  -40.5470   77.8120 O.2       1 VGI1534     0.0000 
     11 C12        10.5250  -40.5730   81.1660 C.2       1 VGI1534     0.0000 
     12 O2          9.6520  -40.0620   81.8780 O.2       1 VGI1534     0.0000 
     13 C8         11.4270  -41.4900   81.7170 C.ar      1 VGI1534     0.0000 
     14 C10        11.3480  -41.8220   83.0640 C.ar      1 VGI1534     0.0000 
     15 C11        12.2440  -42.7290   83.6240 C.ar      1 VGI1534     0.0000 
     16 C7         13.2270  -43.3120   82.8180 C.ar      1 VGI1534     0.0000 
     17 C1         13.3160  -42.9750   81.4690 C.ar      1 VGI1534     0.0000 
     18 C2         12.4210  -42.0690   80.9220 C.ar      1 VGI1534     0.0000 
     19 C3         12.5280  -41.7310   79.5710 C.ar      1 VGI1534     0.0000 
     20 C4         13.5050  -42.3110   78.7720 C.ar      1 VGI1534     0.0000 
     21 C5         14.4020  -43.2110   79.3230 C.ar      1 VGI1534     0.0000 
     22 C6         14.3040  -43.5430   80.6690 C.ar      1 VGI1534     0.0000 
     23 N1         15.1610  -44.4170   81.1760 N.pl3     1 VGI1534     0.0000 
     24 C19        16.4210  -43.9910   81.7750 C.3       1 VGI1534     0.0000 
     25 C20        17.5560  -44.6230   80.9680 C.3       1 VGI1534     0.0000 
     26 O3         18.6730  -44.8500   81.8260 O.3       1 VGI1534     0.0000 
     27 H          10.8839  -37.7279   79.9630 H         1 VGI1534     0.0000 
     28 H           7.7446  -36.6044   77.4240 H         1 VGI1534     0.0000 
     29 H           7.2302  -38.9371   77.0407 H         1 VGI1534     0.0000 
     30 H           8.5310  -40.6652   78.1243 H         1 VGI1534     0.0000 
     31 H          10.6191  -41.3932   83.6559 H         1 VGI1534     0.0000 
     32 H          12.1859  -42.9687   84.6168 H         1 VGI1534     0.0000 
     33 H          13.8839  -43.9900   83.2236 H         1 VGI1534     0.0000 
     34 H          13.5607  -42.0714   77.7733 H         1 VGI1534     0.0000 
     35 H          15.1365  -43.6321   78.7418 H         1 VGI1534     0.0000 
     36 H          14.9846  -45.4424   81.1748 H         1 VGI1534     0.0000 
     37 H          16.5021  -44.3282   82.8017 H         1 VGI1534     0.0000 
     38 H          16.5311  -42.9137   81.7347 H         1 VGI1534     0.0000 
     39 H          17.8027  -43.9410   80.1489 H         1 VGI1534     0.0000 
     40 H          17.1787  -45.5540   80.5345 H         1 VGI1534     0.0000 
     41 H          18.7807  -43.9995   82.3409 H         1 VGI1534     0.0000 
@<TRIPOS>BOND
     1    2    1 ar   
     2    7    1 ar   
     3   27    1 1    
     4    3    2 1    
     5    4    2 ar   
     6    5    4 ar   
     7   28    4 1    
     8    6    5 ar   
     9   29    5 1    
    10    7    6 ar   
    11   30    6 1    
    12    8    7 1    
    13    9    8 am   
    14   11    8 am   
    15   10    9 2    
    16   19    9 1    
    17   12   11 2    
    18   13   11 1    
    19   14   13 ar   
    20   18   13 ar   
    21   15   14 ar   
    22   31   14 1    
    23   16   15 ar   
    24   32   15 1    
    25   17   16 ar   
    26   33   16 1    
    27   18   17 ar   
    28   22   17 ar   
    29   19   18 ar   
    30   20   19 ar   
    31   21   20 ar   
    32   34   20 1    
    33   22   21 ar   
    34   35   21 1    
    35   23   22 1    
    36   24   23 1    
    37   36   23 1    
    38   25   24 1    
    39   37   24 1    
    40   38   24 1    
    41   26   25 1    
    42   39   25 1    
    43   40   25 1    
    44   41   26 1    
@<TRIPOS>SUBSTRUCTURE
     1 VGI1534     1 GROUP   
@<TRIPOS>SET

