#    Name: 1m8k_NAD_3_INTS_M
#    Modification time : Mon Apr  7 14:33:19 2014

@<TRIPOS>MOLECULE
1m8k_NAD_3_INTS_M
   65     0     9     0     0
SMALL
NO_CHARGES


@<TRIPOS>ATOM
      1 N          38.8730   24.3350  -49.1005 N.am      2 SEC2        0.0000 
      2 N          39.2560   25.4730  -48.0900 N.am      8 SEL2        0.0000 
      3 N          38.4900   23.1970  -50.1110 N.am      5 SEP2        0.0000 
      4 N          37.1770   25.2810  -45.4895 N.am      2 SEC2        0.0000 
      5 N          38.7440   25.7830  -45.6250 N.am      8 SEL2        0.0000 
      6 N          35.6100   24.7790  -45.3540 N.am      5 SEP2        0.0000 
      7 N          41.9905   20.3820  -44.1035 N.am      2 SEC2        0.0000 
      8 N          42.2110   20.6250  -45.5150 N.am      8 SEL2        0.0000 
      9 N          41.7700   20.1390  -42.6920 N.am      5 SEP2        0.0000 
     10 CA         43.8225   21.2960  -38.2900 C.3       3 GLC5        0.0000 
     11 CA         44.6560   22.1760  -40.1530 C.3       9 GLL5        0.0000 
     12 CA         42.9890   20.4160  -36.4270 C.3       6 GLP5        0.0000 
     13 CA         46.2805   21.4045  -39.1510 C.3       3 GLC5        0.0000 
     14 CA         47.9050   20.6330  -38.1490 C.3       6 GLP5        0.0000 
     15 O          45.1250   22.0730  -37.6975 O.2       1 ALC1        0.0000 
     16 O          44.3720   22.4780  -38.8910 O.2       7 ALL1        0.0000 
     17 O          45.8780   21.6680  -36.5040 O.2       4 ALP1        0.0000 
     18 N          46.3390   20.0800  -39.9205 N.am      2 SEC2        0.0000 
     19 N          45.7440   21.3550  -40.3600 N.am      8 SEL2        0.0000 
     20 N          46.9340   18.8050  -39.4810 N.am      5 SEP2        0.0000 
     21 CA         46.9800   20.8320  -39.9070 C.3       3 GLC5        0.0000 
     22 CA         46.0550   21.0310  -41.6650 C.3       9 GLL5        0.0000 
     23 CA         46.4470   19.2200  -40.7820 C.3       3 GLC5        0.0000 
     24 CA         46.8390   17.4090  -39.8990 C.3       6 GLP5        0.0000 
     25 CA         37.1605   27.4355  -44.3285 C.3       3 GLC5        0.0000 
     26 CA         37.8680   29.0390  -45.3260 C.3       9 GLL5        0.0000 
     27 CA         36.4530   25.8320  -43.3310 C.3       6 GLP5        0.0000 
     28 CA         35.9720   27.2320  -47.9605 C.3       3 GLC5        0.0000 
     29 CA         36.5270   29.1990  -47.5210 C.3       9 GLL5        0.0000 
     30 CA         35.4170   25.2650  -48.4000 C.3       6 GLP5        0.0000 
     31 O          34.6170   28.6060  -49.0495 O.2       1 ALC1        0.0000 
     32 O          35.2250   28.6930  -47.8220 O.2       7 ALL1        0.0000 
     33 O          34.0090   28.5190  -50.2770 O.2       4 ALP1        0.0000 
     34 N          34.7695   30.7620  -50.3020 N.am      2 SEC2        0.0000 
     35 N          36.1170   30.6330  -49.4460 N.am      8 SEL2        0.0000 
     36 N          33.4220   30.8910  -51.1580 N.am      5 SEP2        0.0000 
     37 O          35.0630   29.5760  -49.8615 O.2       1 ALC1        0.0000 
     38 O          36.1170   30.6330  -49.4460 O.2       7 ALL1        0.0000 
     39 CA         35.8460   32.5650  -45.6800 C.3       3 GLC5        0.0000 
     40 CA         36.2270   31.4700  -47.1690 C.3       9 GLL5        0.0000 
     41 CA         35.4650   33.6600  -44.1910 C.3       6 GLP5        0.0000 
     42 N          32.6410   35.6455  -49.9395 N.am      2 SEC2        0.0000 
     43 N          33.8740   35.3110  -49.4760 N.am      8 SEL2        0.0000 
     44 N          31.4080   35.9800  -50.4030 N.am      5 SEP2        0.0000 
     45 O          34.3025   37.2045  -50.4865 O.2       1 ALC1        0.0000 
     46 O          35.3160   37.0090  -49.4480 O.2       7 ALL1        0.0000 
     47 O          33.2890   37.4000  -51.5250 O.2       4 ALP1        0.0000 
     48 O          36.6835   37.4385  -49.7370 O.2       1 ALC1        0.0000 
     49 O          38.0510   37.8680  -50.0260 O.2       4 ALP1        0.0000 
     50 CA         36.3995   29.6242  -44.1743 C.3       3 GLC5        0.0000 
     51 CA         35.5440   29.9580  -42.6720 C.3       6 GLP5        0.0000 
     52 CA         34.7452   28.8428  -46.1455 C.3       3 GLC5        0.0000 
     53 CA         36.6420   29.5420  -46.0270 C.3       9 GLL5        0.0000 
     54 CA         32.9060   28.3150  -45.5170 C.3       6 GLP5        0.0000 
     55 CA         35.8505   36.8485  -47.0675 C.3       3 GLC5        0.0000 
     56 CA         36.0780   35.0870  -48.4020 C.3       9 GLL5        0.0000 
     57 CA         34.9520   38.3360  -45.9610 C.3       6 GLP5        0.0000 
     58 CA         39.5645   35.5493  -48.2435 C.3       3 GLC5        0.0000 
     59 CA         37.4200   35.6350  -47.9460 C.3       9 GLL5        0.0000 
     60 CA         41.2940   35.9750  -48.8990 C.3       6 GLP5        0.0000 
     61 CA         38.5485   36.8103  -46.7345 C.3       3 GLC5        0.0000 
     62 CA         38.2500   34.6120  -47.2300 C.3       9 GLL5        0.0000 
     63 CA         39.2620   38.4970  -45.8810 C.3       6 GLP5        0.0000 
     64 CA         39.1870   33.3837  -45.5922 C.3       3 GLC5        0.0000 
     65 CA         40.3010   32.7820  -44.0720 C.3       6 GLP5        0.0000 
@<TRIPOS>BOND
@<TRIPOS>SUBSTRUCTURE
     1 ALC1       15 GROUP        1 X    ALC  0     ROOT ALC X 1
     2 SEC2        1 GROUP        1 X    SEC  0     **** SEC X 2
     3 GLC5       10 GROUP        1 X    GLC  0     **** GLC X 6
     4 ALP1       17 GROUP        1 Y    ALP  0     ROOT ALP Y 8
     5 SEP2        3 GROUP        1 Y    SEP  0     **** SEP Y 9
     6 GLP5       12 GROUP        1 Y    GLP  0     **** GLP Y 13
     7 ALL1       16 GROUP        1 Z    ALL  0     ROOT ALL Z 15
     8 SEL2        2 GROUP        1 Z    SEL  0     **** SEL Z 16
     9 GLL5       11 GROUP        1 Z    GLL  0     **** GLL Z 20
@<TRIPOS>SET

