#    Name: 1m8k_NAD_3_ligand
#    Modification time : Mon Apr  7 14:33:20 2014

@<TRIPOS>MOLECULE
1m8k_NAD_3_ligand
   69    73     1     0     0
SMALL
NO_CHARGES


@<TRIPOS>ATOM
      1 PA         39.7430   25.8490  -46.7320 P.3       1 NAD2004     0.0000 
      2 O1A        39.2560   25.4730  -48.0900 O.co2     1 NAD2004     0.0000 
      3 O2A        38.7440   25.7830  -45.6250 O.co2     1 NAD2004     0.0000 
      4 O5B        41.0180   24.9590  -46.2780 O.3       1 NAD2004     0.0000 
      5 C5B        42.3190   25.1750  -46.9030 C.3       1 NAD2004     0.0000 
      6 C4B        43.1940   23.9260  -46.7830 C.3       1 NAD2004     0.0000 
      7 O4B        43.6970   23.9000  -45.4320 O.3       1 NAD2004     0.0000 
      8 C3B        42.4840   22.5920  -47.0080 C.3       1 NAD2004     0.0000 
      9 O3B        43.2500   21.7800  -47.9240 O.3       1 NAD2004     0.0000 
     10 C2B        42.3060   22.0720  -45.5710 C.3       1 NAD2004     0.0000 
     11 O2B        42.2110   20.6250  -45.5150 O.3       1 NAD2004     0.0000 
     12 C1B        43.5750   22.6090  -44.9170 C.3       1 NAD2004     0.0000 
     13 N9A        43.5270   22.7620  -43.4660 N.pl3     1 NAD2004     0.0000 
     14 C8A        42.6240   23.4820  -42.7330 C.2       1 NAD2004     0.0000 
     15 N7A        42.8330   23.4270  -41.4200 N.2       1 NAD2004     0.0000 
     16 C5A        43.9450   22.6180  -41.2960 C.ar      1 NAD2004     0.0000 
     17 C6A        44.6560   22.1760  -40.1530 C.ar      1 NAD2004     0.0000 
     18 N6A        44.3720   22.4780  -38.8910 N.pl3     1 NAD2004     0.0000 
     19 N1A        45.7440   21.3550  -40.3600 N.ar      1 NAD2004     0.0000 
     20 C2A        46.0550   21.0310  -41.6650 C.ar      1 NAD2004     0.0000 
     21 N3A        45.4800   21.3770  -42.7970 N.ar      1 NAD2004     0.0000 
     22 C4A        44.3970   22.1930  -42.5450 C.ar      1 NAD2004     0.0000 
     23 O3         40.3770   27.2500  -46.8570 O.3       1 NAD2004     0.0000 
     24 PN         40.3570   28.5530  -45.8550 P.3       1 NAD2004     0.0000 
     25 O1N        41.4100   29.4610  -46.3560 O.co2     1 NAD2004     0.0000 
     26 O2N        40.5430   28.0690  -44.4440 O.co2     1 NAD2004     0.0000 
     27 O5D        38.9220   29.0600  -46.2830 O.3       1 NAD2004     0.0000 
     28 C5D        37.8680   29.0390  -45.3260 C.3       1 NAD2004     0.0000 
     29 C4D        36.6420   29.5420  -46.0270 C.3       1 NAD2004     0.0000 
     30 O4D        36.7150   30.9860  -45.9680 O.3       1 NAD2004     0.0000 
     31 C3D        36.5270   29.1990  -47.5210 C.3       1 NAD2004     0.0000 
     32 O3D        35.2250   28.6930  -47.8220 O.3       1 NAD2004     0.0000 
     33 C2D        36.7900   30.5410  -48.1830 C.3       1 NAD2004     0.0000 
     34 O2D        36.1170   30.6330  -49.4460 O.3       1 NAD2004     0.0000 
     35 C1D        36.2270   31.4700  -47.1690 C.3       1 NAD2004     0.0000 
     36 N1N        36.6220   32.8490  -47.4090 N.pl3     1 NAD2004     0.0000 
     37 C2N        35.7310   33.6960  -48.0610 C.ar      1 NAD2004     0.0000 
     38 C3N        36.0780   35.0870  -48.4020 C.ar      1 NAD2004     0.0000 
     39 C7N        35.0560   35.8410  -49.1390 C.2       1 NAD2004     0.0000 
     40 O7N        33.8740   35.3110  -49.4760 O.2       1 NAD2004     0.0000 
     41 N7N        35.3160   37.0090  -49.4480 N.am      1 NAD2004     0.0000 
     42 C4N        37.4200   35.6350  -47.9460 C.ar      1 NAD2004     0.0000 
     43 C5N        38.2500   34.6120  -47.2300 C.ar      1 NAD2004     0.0000 
     44 C6N        37.8960   33.3590  -46.9950 C.ar      1 NAD2004     0.0000 
     45 H          42.8484   26.0091  -46.4273 H         1 NAD2004     0.0000 
     46 H          42.2076   25.4121  -47.9677 H         1 NAD2004     0.0000 
     47 H          44.0194   24.0064  -47.4692 H         1 NAD2004     0.0000 
     48 H          41.5010   22.8408  -47.3878 H         1 NAD2004     0.0000 
     49 H          41.4773   22.5784  -45.1476 H         1 NAD2004     0.0000 
     50 H          44.4008   22.0070  -45.2215 H         1 NAD2004     0.0000 
     51 H          41.8812   23.9965  -43.1630 H         1 NAD2004     0.0000 
     52 H          46.9470   20.3627  -41.7517 H         1 NAD2004     0.0000 
     53 H          38.0777   29.6899  -44.4811 H         1 NAD2004     0.0000 
     54 H          37.6734   28.0332  -44.9627 H         1 NAD2004     0.0000 
     55 H          35.7592   29.2128  -45.5225 H         1 NAD2004     0.0000 
     56 H          37.3177   28.5407  -47.7623 H         1 NAD2004     0.0000 
     57 H          37.8366   30.6763  -48.2388 H         1 NAD2004     0.0000 
     58 H          35.1450   31.3730  -47.2074 H         1 NAD2004     0.0000 
     59 H          34.7898   33.3727  -48.3286 H         1 NAD2004     0.0000 
     60 H          34.6229   37.4859  -49.9885 H         1 NAD2004     0.0000 
     61 H          36.1943   37.3639  -49.1275 H         1 NAD2004     0.0000 
     62 H          37.6894   36.5162  -48.1002 H         1 NAD2004     0.0000 
     63 H          39.1918   34.9925  -46.9106 H         1 NAD2004     0.0000 
     64 H          38.5255   32.6886  -46.4999 H         1 NAD2004     0.0000 
     65 H          44.1762   22.1554  -47.8900 H         1 NAD2004     0.0000 
     66 H          42.8017   20.2982  -46.2528 H         1 NAD2004     0.0000 
     67 H          45.1107   22.0697  -38.3548 H         1 NAD2004     0.0000 
     68 H          35.1443   28.7617  -48.8164 H         1 NAD2004     0.0000 
     69 H          35.6732   29.7452  -49.5679 H         1 NAD2004     0.0000 
@<TRIPOS>BOND
     1    2    1 ar   
     2    3    1 ar   
     3    4    1 1    
     4   23    1 1    
     5    5    4 1    
     6    6    5 1    
     7   45    5 1    
     8   46    5 1    
     9    7    6 1    
    10    8    6 1    
    11   47    6 1    
    12   12    7 1    
    13    9    8 1    
    14   10    8 1    
    15   48    8 1    
    16   65    9 1    
    17   11   10 1    
    18   12   10 1    
    19   49   10 1    
    20   66   11 1    
    21   13   12 1    
    22   50   12 1    
    23   14   13 1    
    24   22   13 1    
    25   15   14 2    
    26   51   14 1    
    27   16   15 1    
    28   17   16 ar   
    29   22   16 ar   
    30   18   17 1    
    31   19   17 ar   
    32   67   18 1    
    33   20   19 ar   
    34   21   20 ar   
    35   52   20 1    
    36   22   21 ar   
    37   24   23 1    
    38   25   24 ar   
    39   26   24 ar   
    40   27   24 1    
    41   28   27 1    
    42   29   28 1    
    43   53   28 1    
    44   54   28 1    
    45   30   29 1    
    46   31   29 1    
    47   55   29 1    
    48   35   30 1    
    49   32   31 1    
    50   33   31 1    
    51   56   31 1    
    52   68   32 1    
    53   34   33 1    
    54   35   33 1    
    55   57   33 1    
    56   69   34 1    
    57   36   35 1    
    58   58   35 1    
    59   37   36 ar   
    60   44   36 ar   
    61   38   37 ar   
    62   59   37 1    
    63   39   38 1    
    64   42   38 ar   
    65   40   39 2    
    66   41   39 am   
    67   60   41 1    
    68   61   41 1    
    69   43   42 ar   
    70   62   42 1    
    71   44   43 ar   
    72   63   43 1    
    73   64   44 1    
@<TRIPOS>SUBSTRUCTURE
     1 NAD2004     1 GROUP   
@<TRIPOS>SET

