#    Name: 3PO6_1_CAVITY_N1_ALL.mol2
#    Modification time : Mon Mar 10 14:58:18 2014

@<TRIPOS>MOLECULE
3PO6_1_CAVITY_N1_ALL.mol2
   89     0     6     0     0
SMALL
NO_CHARGES


@<TRIPOS>ATOM
      1 CA         -0.5724    7.9647   14.7706 C.3       5 GLY6        0.0000 
      2 CZ         -1.7846    8.8204   14.5505 C.ar      4 PHE5        0.0000 
      3 CA         -1.4496    6.8442   15.2451 C.3       5 GLY6        0.0000 
      4 CZ         -2.6617    7.6999   15.0250 C.ar      4 PHE5        0.0000 
      5 CA         -0.3437    5.4764   14.0594 C.3       5 GLY6        0.0000 
      6 CA         -1.5559    6.3321   13.8393 C.3       5 GLY6        0.0000 
      7 CZ         -2.7680    7.1878   13.6192 C.ar      4 PHE5        0.0000 
      8 DU         -1.6621    5.8199   12.4334 H         6 CUB7        0.0000 
      9 N           0.6559    3.5964   11.4678 N.2       2 ALA2        0.0000 
     10 O          -0.6626    3.9399    9.8418 O.2       2 ALA2        0.0000 
     11 O          -0.7688    3.4278    8.4360 O.2       2 ALA2        0.0000 
     12 CA         -3.5389    6.5794   15.4996 C.3       5 GLY6        0.0000 
     13 OG         -1.2208    4.3559   14.5339 O.2       1 SER1        0.0000 
     14 CA         -2.4330    5.2116   14.3138 C.3       5 GLY6        0.0000 
     15 CZ         -3.6452    6.0673   14.0937 C.ar      4 PHE5        0.0000 
     16 OG         -1.3271    3.8438   13.1280 O.2       1 SER1        0.0000 
     17 OG         -2.5393    4.6994   12.9080 O.2       1 SER1        0.0000 
     18 DU         -3.7514    5.5551   12.6879 H         6 CUB7        0.0000 
     19 CZ         -4.9636    6.4108   12.4678 C.ar      4 PHE5        0.0000 
     20 CZ         -6.1758    7.2665   12.2477 C.ar      4 PHE5        0.0000 
     21 OG         -0.2212    2.4759   11.9423 O.2       1 SER1        0.0000 
     22 OG         -1.4334    3.3316   11.7222 O.2       1 SER1        0.0000 
     23 DU         -2.6456    4.1873   11.5021 H         6 CUB7        0.0000 
     24 DU         -3.8577    5.0430   11.2820 H         6 CUB7        0.0000 
     25 O          -5.0699    5.8987   11.0619 O.2       2 ALA2        0.0000 
     26 O          -6.2821    6.7544   10.8419 O.2       2 ALA2        0.0000 
     27 CZ         -0.3275    1.9638   10.5364 C.ar      4 PHE5        0.0000 
     28 O          -1.5397    2.8194   10.3163 O.2       2 ALA2        0.0000 
     29 O          -2.7518    3.6751   10.0963 O.2       2 ALA2        0.0000 
     30 O          -3.9640    4.5308    9.8762 O.2       2 ALA2        0.0000 
     31 O          -5.1762    5.3865    9.6561 O.2       2 ALA2        0.0000 
     32 CA         -3.2038    4.6033   16.1942 C.3       5 GLY6        0.0000 
     33 CA         -4.4160    5.4590   15.9741 C.3       5 GLY6        0.0000 
     34 CZ         -5.6282    6.3146   15.7540 C.ar      4 PHE5        0.0000 
     35 OG         -3.3101    4.0911   14.7883 O.2       1 SER1        0.0000 
     36 DU         -4.5223    4.9468   14.5682 H         6 CUB7        0.0000 
     37 CZ         -5.7344    5.8025   14.3481 C.ar      4 PHE5        0.0000 
     38 OG         -3.4164    3.5790   13.3825 O.2       1 SER1        0.0000 
     39 O          -4.6286    4.4346   13.1624 O.2       2 ALA2        0.0000 
     40 O          -5.8407    5.2903   12.9423 O.2       2 ALA2        0.0000 
     41 O          -7.0529    6.1460   12.7222 O.2       2 ALA2        0.0000 
     42 OG         -2.3105    2.2111   12.1967 O.2       1 SER1        0.0000 
     43 OG         -3.5227    3.0668   11.9766 O.2       1 SER1        0.0000 
     44 O          -4.7349    3.9225   11.7565 O.2       2 ALA2        0.0000 
     45 CZ         -1.2046    0.8433   11.0109 C.ar      4 PHE5        0.0000 
     46 O          -2.4168    1.6990   10.7909 O.2       2 ALA2        0.0000 
     47 O          -3.6290    2.5546   10.5708 O.2       2 ALA2        0.0000 
     48 O          -4.8411    3.4103   10.3507 O.2       2 ALA2        0.0000 
     49 CA         -1.3109    0.3311    9.6051 C.3       5 GLY6        0.0000 
     50 CA         -4.0809    3.4828   16.6687 C.3       5 GLY6        0.0000 
     51 CA         -5.2931    4.3385   16.4486 C.3       5 GLY6        0.0000 
     52 CA         -6.5053    5.1942   16.2285 C.3       5 GLY6        0.0000 
     53 OG         -4.1872    2.9706   15.2628 O.2       1 SER1        0.0000 
     54 DU         -5.3994    3.8263   15.0427 H         6 CUB7        0.0000 
     55 CA         -6.6116    4.6820   14.8227 C.3       5 GLY6        0.0000 
     56 OG         -4.2935    2.4585   13.8570 O.2       1 SER1        0.0000 
     57 O          -5.5057    3.3142   13.6369 O.2       2 ALA2        0.0000 
     58 O          -6.7179    4.1698   13.4168 O.2       2 ALA2        0.0000 
     59 OG         -3.1876    1.0906   12.6712 O.2       1 SER1        0.0000 
     60 OG         -4.3998    1.9463   12.4511 O.2       1 SER1        0.0000 
     61 O          -5.6120    2.8020   12.2310 O.2       2 ALA2        0.0000 
     62 CA         -2.0817   -0.2772   11.4855 C.3       5 GLY6        0.0000 
     63 O          -3.2939    0.5785   11.2654 O.2       2 ALA2        0.0000 
     64 N          -4.5061    1.4342   11.0453 N.2       2 ALA2        0.0000 
     65 O          -5.7183    2.2898   10.8252 O.2       2 ALA2        0.0000 
     66 CA         -2.1880   -0.7894   10.0796 C.3       5 GLY6        0.0000 
     67 O          -3.4002    0.0663    9.8595 O.2       2 ALA2        0.0000 
     68 N          -4.6124    0.9220    9.6394 N.2       2 ALA2        0.0000 
     69 CA         -6.0639    3.7301   18.3289 C.3       5 GLY6        0.0000 
     70 CA         -4.9581    2.3623   17.1432 C.3       5 GLY6        0.0000 
     71 CA         -6.1702    3.2180   16.9231 C.3       5 GLY6        0.0000 
     72 CA         -7.3824    4.0737   16.7030 C.3       5 GLY6        0.0000 
     73 OG         -3.8522    0.9944   15.9574 O.2       1 SER1        0.0000 
     74 OD1        -5.0643    1.8501   15.7373 O.3       3 ASP3        0.0000 
     75 CA         -6.2765    2.7058   15.5173 C.3       5 GLY6        0.0000 
     76 OG         -3.9585    0.4823   14.5516 O.2       1 SER1        0.0000 
     77 N          -5.1706    1.3380   14.3315 N.2       2 ALA2        0.0000 
     78 CA         -4.0648   -0.0299   13.1457 C.3       5 GLY6        0.0000 
     79 N          -5.2769    0.8258   12.9256 N.2       2 ALA2        0.0000 
     80 CA         -2.9589   -1.3977   11.9600 C.3       5 GLY6        0.0000 
     81 CA         -4.1710   -0.5420   11.7399 C.3       5 GLY6        0.0000 
     82 CA         -5.3832    0.3137   11.5198 C.3       5 GLY6        0.0000 
     83 CA         -3.0652   -1.9099   10.5541 C.3       5 GLY6        0.0000 
     84 CA         -4.2773   -1.0542   10.3340 C.3       5 GLY6        0.0000 
     85 O          -5.8352    1.2418   17.6177 O.2       2 ALA2        0.0000 
     86 CA         -7.0474    2.0975   17.3976 C.3       5 GLY6        0.0000 
     87 OD1        -5.9415    0.7296   16.2119 O.3       3 ASP3        0.0000 
     88 OD1        -7.1536    1.5853   15.9918 O.3       3 ASP3        0.0000 
     89 CA         -5.0482   -1.6625   12.2144 C.3       5 GLY6        0.0000 
@<TRIPOS>BOND
@<TRIPOS>SUBSTRUCTURE
     1 SER1       13 GROUP   
     2 ALA2        9 GROUP   
     3 ASP3       74 GROUP   
     4 PHE5        2 GROUP   
     5 GLY6        1 GROUP   
     6 CUB7        8 GROUP   
@<TRIPOS>SET

