#    Name: 3po6_DT9_1_INTS_M
#    Modification time : Tue Mar 25 08:14:29 2014

@<TRIPOS>MOLECULE
3po6_DT9_1_INTS_M
   40     0    12     0     0
SMALL
NO_CHARGES


@<TRIPOS>ATOM
      1 CA         -9.1735    7.7700   12.6070 C.3       4 GLC5        0.0000 
      2 CA         -7.3150    7.2130   12.0570 C.3      12 GLL5        0.0000 
      3 CA        -11.0320    8.3270   13.1570 C.3       8 GLP5        0.0000 
      4 CA         -8.5680    6.1365   11.4820 C.3       4 GLC5        0.0000 
      5 CA         -9.8210    5.0600   10.9070 C.3       8 GLP5        0.0000 
      6 CA         -6.6610    7.9670   13.4865 C.3       4 GLC5        0.0000 
      7 CA         -6.0070    8.7210   14.9160 C.3       8 GLP5        0.0000 
      8 CA         -7.6225    4.9345   15.9100 C.3       4 GLC5        0.0000 
      9 CA         -5.6020    4.2000   16.1210 C.3      12 GLL5        0.0000 
     10 CA         -9.6430    5.6690   15.6990 C.3       8 GLP5        0.0000 
     11 CA         -6.3040    5.7305   17.3875 C.3       4 GLC5        0.0000 
     12 CA         -7.0060    7.2610   18.6540 C.3       8 GLP5        0.0000 
     13 CA         -4.7725    4.7870   17.4500 C.3       4 GLC5        0.0000 
     14 CA         -3.9430    5.3740   18.7790 C.3       8 GLP5        0.0000 
     15 O          -4.5145   -1.3625   16.8915 O.2       1 ALC1        0.0000 
     16 O          -5.3570   -0.6010   16.2180 O.2       9 ALL1        0.0000 
     17 O          -3.6720   -2.1240   17.5650 O.2       5 ALP1        0.0000 
     18 Zn         -6.0205   -1.1295   15.7630 Zn        3 ZIC7        0.0000 
     19 Zn         -5.3570   -0.6010   16.2180 Zn       11 ZIL7        0.0000 
     20 Zn         -6.6840   -1.6580   15.3080 Zn        7 ZIP7        0.0000 
     21 N          -3.9305    0.8720   18.3890 N.am      2 SEC2        0.0000 
     22 N          -5.1810    1.4280   17.7960 N.am     10 SEL2        0.0000 
     23 N          -2.6800    0.3160   18.9820 N.am      6 SEP2        0.0000 
     24 N          -5.6550    4.1375    8.9245 N.am      2 SEC2        0.0000 
     25 N          -4.8780    4.8630    9.7830 N.am     10 SEL2        0.0000 
     26 N          -6.4320    3.4120    8.0660 N.am      6 SEP2        0.0000 
     27 N          -6.3295    4.3030   10.3160 N.am      2 SEC2        0.0000 
     28 N          -7.7810    3.7430   10.8490 N.am      6 SEP2        0.0000 
     29 N          -7.1890    5.0335   11.0285 N.am      2 SEC2        0.0000 
     30 N          -6.5970    6.3240   11.2080 N.am     10 SEL2        0.0000 
     31 Zn         -6.1535    0.0810   15.3015 Zn        3 ZIC7        0.0000 
     32 Zn         -5.6230    1.8200   15.2950 Zn       11 ZIL7        0.0000 
     33 CA         -8.0145    5.0343   11.6935 C.3       4 GLC5        0.0000 
     34 CA         -6.3630    4.7990   13.1350 C.3      12 GLL5        0.0000 
     35 CA         -2.6782    0.3760   14.1958 C.3       4 GLC5        0.0000 
     36 CA         -4.1920    1.6420   14.9470 C.3      12 GLL5        0.0000 
     37 CA         -1.1770   -0.8870   14.2110 C.3       8 GLP5        0.0000 
     38 CA         -7.9941    3.4841   14.5485 C.3       4 GLC5        0.0000 
     39 CA         -6.1250    3.2080   15.0950 C.3      12 GLL5        0.0000 
     40 CA         -9.8920    3.2520   14.8490 C.3       8 GLP5        0.0000 
@<TRIPOS>BOND
@<TRIPOS>SUBSTRUCTURE
     1 ALC1       15 GROUP        1 X    ALC  0     ROOT ALC X 1
     2 SEC2       21 GROUP        1 X    SEC  0     **** SEC X 2
     3 ZIC7       18 GROUP        1 X    ZIC  0     **** ZIC X 5
     4 GLC5        1 GROUP        1 X    GLC  0     **** GLC X 6
     5 ALP1       17 GROUP        1 Y    ALP  0     ROOT ALP Y 8
     6 SEP2       23 GROUP        1 Y    SEP  0     **** SEP Y 9
     7 ZIP7       20 GROUP        1 Y    ZIP  0     **** ZIP Y 12
     8 GLP5        3 GROUP        1 Y    GLP  0     **** GLP Y 13
     9 ALL1       16 GROUP        1 Z    ALL  0     ROOT ALL Z 15
    10 SEL2       22 GROUP        1 Z    SEL  0     **** SEL Z 16
    11 ZIL7       19 GROUP        1 Z    ZIL  0     **** ZIL Z 19
    12 GLL5        2 GROUP        1 Z    GLL  0     **** GLL Z 20
@<TRIPOS>SET

