#    Name: 3po6_DT9_1_ligand
#    Modification time : Tue Mar 25 08:14:29 2014

@<TRIPOS>MOLECULE
3po6_DT9_1_ligand
   36    37     1     0     0
SMALL
NO_CHARGES


@<TRIPOS>ATOM
      1 CAA        -3.4630    4.7380    9.5310 C.3       1 DT9262      0.0000 
      2 CAB        -7.3150    7.2130   12.0570 C.3       1 DT9262      0.0000 
      3 CAC        -5.6020    4.2000   16.1210 C.3       1 DT9262      0.0000 
      4 NAD        -5.3570   -0.6010   16.2180 N.pl3     1 DT9262      0.0000 
      5 OAE        -5.1810    1.4280   17.7960 O.2       1 DT9262      0.0000 
      6 OAF        -7.3630    1.2110   16.8330 O.2       1 DT9262      0.0000 
      7 CAG        -4.5890    3.3020   11.6010 C.ar      1 DT9262      0.0000 
      8 CAH        -6.3630    4.7990   13.1350 C.ar      1 DT9262      0.0000 
      9 CAI        -4.1670    1.6360   13.4140 C.3       1 DT9262      0.0000 
     10 CAJ        -4.1920    1.6420   14.9470 C.3       1 DT9262      0.0000 
     11 OAK        -4.8780    4.8630    9.7830 O.3       1 DT9262      0.0000 
     12 OAL        -6.5970    6.3240   11.2080 O.3       1 DT9262      0.0000 
     13 CAM        -4.8850    2.8850   12.8950 C.ar      1 DT9262      0.0000 
     14 CAN        -5.1700    4.4520   11.0660 C.ar      1 DT9262      0.0000 
     15 CAO        -6.0530    5.2180   11.8250 C.ar      1 DT9262      0.0000 
     16 CAP        -5.7720    3.6500   13.6670 C.ar      1 DT9262      0.0000 
     17 CAQ        -6.1250    3.2080   15.0950 C.3       1 DT9262      0.0000 
     18 NAR        -5.6230    1.8200   15.2950 N.pl3     1 DT9262      0.0000 
     19 SAS        -5.9130    0.9810   16.6140 S.o2      1 DT9262      0.0000 
     20 H          -4.6153   -0.9612   16.7838 H         1 DT9262      0.0000 
     21 H          -3.9283    2.7521   11.0256 H         1 DT9262      0.0000 
     22 H          -7.0269    5.3445   13.6963 H         1 DT9262      0.0000 
     23 H          -4.6739    0.7532   13.0511 H         1 DT9262      0.0000 
     24 H          -3.1417    1.6430   13.0726 H         1 DT9262      0.0000 
     25 H          -3.6078    2.4630   15.3000 H         1 DT9262      0.0000 
     26 H          -3.8257    0.7045   15.3033 H         1 DT9262      0.0000 
     27 H          -7.2225    3.1945   15.1549 H         1 DT9262      0.0000 
     28 H          -2.9229    5.2972   10.1600 H         1 DT9262      0.0000 
     29 H          -3.1493    3.7942    9.6347 H         1 DT9262      0.0000 
     30 H          -3.2240    5.0261    8.6037 H         1 DT9262      0.0000 
     31 H          -6.7342    7.5855   12.7808 H         1 DT9262      0.0000 
     32 H          -7.6873    7.9907   11.5505 H         1 DT9262      0.0000 
     33 H          -8.0854    6.7585   12.5041 H         1 DT9262      0.0000 
     34 H          -4.6076    4.2944   16.0730 H         1 DT9262      0.0000 
     35 H          -5.9898    5.1120   15.9871 H         1 DT9262      0.0000 
     36 H          -5.8252    3.9208   17.0549 H         1 DT9262      0.0000 
@<TRIPOS>BOND
     1   11    1 1    
     2   28    1 1    
     3   29    1 1    
     4   30    1 1    
     5   12    2 1    
     6   31    2 1    
     7   32    2 1    
     8   33    2 1    
     9   17    3 1    
    10   34    3 1    
    11   35    3 1    
    12   36    3 1    
    13   19    4 1    
    14   20    4 1    
    15   19    5 2    
    16   19    6 2    
    17   13    7 ar   
    18   14    7 ar   
    19   21    7 1    
    20   15    8 ar   
    21   16    8 ar   
    22   22    8 1    
    23   10    9 1    
    24   13    9 1    
    25   23    9 1    
    26   24    9 1    
    27   18   10 1    
    28   25   10 1    
    29   26   10 1    
    30   14   11 1    
    31   15   12 1    
    32   16   13 ar   
    33   15   14 ar   
    34   17   16 1    
    35   18   17 1    
    36   27   17 1    
    37   19   18 1    
@<TRIPOS>SUBSTRUCTURE
     1 DT9262      1 GROUP   
@<TRIPOS>SET

