#    Name: 4oac_ADP_1_INTS_M
#    Modification time : Tue Mar 25 13:34:45 2014

@<TRIPOS>MOLECULE
4oac_ADP_1_INTS_M
   45     0    12     0     0
SMALL
NO_CHARGES


@<TRIPOS>ATOM
      1 N          42.0225   29.1955   21.8310 N.am      2 SEC2        0.0000 
      2 N          41.5050   30.5240   21.3830 N.am     10 SEL2        0.0000 
      3 N          42.5400   27.8670   22.2790 N.am      6 SEP2        0.0000 
      4 NZ         37.3230   33.0865   17.8060 N.4       3 LYC4        0.0000 
      5 NZ         37.8250   32.8430   19.6370 N.4      11 LYL4        0.0000 
      6 NZ         36.8210   33.3300   15.9750 N.4       7 LYP4        0.0000 
      7 CA         38.6325   34.2170   22.1365 C.3       4 GLC5        0.0000 
      8 CA         37.8660   32.7490   23.3440 C.3      12 GLL5        0.0000 
      9 CA         39.3990   35.6850   20.9290 C.3       8 GLP5        0.0000 
     10 CA         36.7815   34.1730   22.4850 C.3       4 GLC5        0.0000 
     11 CA         35.6970   35.5970   21.6260 C.3       8 GLP5        0.0000 
     12 O          38.5605   28.4215   23.1205 O.2       1 ALC1        0.0000 
     13 O          38.0530   29.6090   23.9850 O.2       9 ALL1        0.0000 
     14 O          39.0680   27.2340   22.2560 O.2       5 ALP1        0.0000 
     15 CA         33.4410   32.6830   25.2800 C.3       4 GLC5        0.0000 
     16 CA         34.8310   31.4150   24.6500 C.3      12 GLL5        0.0000 
     17 CA         32.0510   33.9510   25.9100 C.3       8 GLP5        0.0000 
     18 CA         28.8265   29.8410   22.5350 C.3       4 GLC5        0.0000 
     19 CA         30.9770   29.9180   22.1420 C.3      12 GLL5        0.0000 
     20 CA         26.6760   29.7640   22.9280 C.3       8 GLP5        0.0000 
     21 CA         30.2760   28.0000   22.0595 C.3       4 GLC5        0.0000 
     22 CA         29.5750   26.0820   21.9770 C.3       8 GLP5        0.0000 
     23 O          29.0415   29.3770   20.6715 O.2       1 ALC1        0.0000 
     24 O          30.4480   29.7530   20.9260 O.2       9 ALL1        0.0000 
     25 O          27.6350   29.0010   20.4170 O.2       5 ALP1        0.0000 
     26 N          29.2170   28.7495   23.4905 N.am      2 SEC2        0.0000 
     27 N          30.3240   29.5760   23.2140 N.am     10 SEL2        0.0000 
     28 N          28.1100   27.9230   23.7670 N.am      6 SEP2        0.0000 
     29 CA         30.3440   31.4425   23.1235 C.3       4 GLC5        0.0000 
     30 CA         30.8460   29.7060   24.4410 C.3      12 GLL5        0.0000 
     31 CA         29.8420   33.1790   21.8060 C.3       8 GLP5        0.0000 
     32 CA         28.7610   29.7350   23.6845 C.3       4 GLC5        0.0000 
     33 CA         30.2690   27.9245   23.9755 C.3       4 GLC5        0.0000 
     34 CA         29.6920   26.1430   23.5100 C.3       8 GLP5        0.0000 
     35 CA         32.4165   32.2990   24.7615 C.3       4 GLC5        0.0000 
     36 CA         32.7820   30.6470   23.6130 C.3      12 GLL5        0.0000 
     37 CA         36.9610   28.3610   24.9180 C.3       4 GLC5        0.0000 
     38 CA         35.7340   30.1420   24.7680 C.3      12 GLL5        0.0000 
     39 CA         37.6110   26.4170   25.5220 C.3       8 GLP5        0.0000 
     40 CA         35.6695   28.5135   23.4600 C.3       4 GLC5        0.0000 
     41 CA         35.0280   26.7220   22.6060 C.3       8 GLP5        0.0000 
     42 CA         31.0261   31.8025   22.3589 C.3       4 GLC5        0.0000 
     43 CA         32.3000   30.4920   22.2790 C.3      12 GLL5        0.0000 
     44 CA         32.6571   28.9235   22.0239 C.3       4 GLC5        0.0000 
     45 CA         33.1040   27.4210   21.1360 C.3       8 GLP5        0.0000 
@<TRIPOS>BOND
@<TRIPOS>SUBSTRUCTURE
     1 ALC1       12 GROUP        1 X    ALC  0     ROOT ALC X 1
     2 SEC2        1 GROUP        1 X    SEC  0     **** SEC X 2
     3 LYC4        4 GROUP        1 X    LYC  0     **** LYC X 4
     4 GLC5        7 GROUP        1 X    GLC  0     **** GLC X 6
     5 ALP1       14 GROUP        1 Y    ALP  0     ROOT ALP Y 8
     6 SEP2        3 GROUP        1 Y    SEP  0     **** SEP Y 9
     7 LYP4        6 GROUP        1 Y    LYP  0     **** LYP Y 11
     8 GLP5        9 GROUP        1 Y    GLP  0     **** GLP Y 13
     9 ALL1       13 GROUP        1 Z    ALL  0     ROOT ALL Z 15
    10 SEL2        2 GROUP        1 Z    SEL  0     **** SEL Z 16
    11 LYL4        5 GROUP        1 Z    LYL  0     **** LYL Z 18
    12 GLL5        8 GROUP        1 Z    GLL  0     **** GLL Z 20
@<TRIPOS>SET

