#    Name: 4oac_ADP_1_ligand
#    Modification time : Tue Mar 25 13:34:45 2014

@<TRIPOS>MOLECULE
4oac_ADP_1_ligand
   39    41     1     0     0
SMALL
NO_CHARGES


@<TRIPOS>ATOM
      1 PB         40.5880   31.3120   20.4580 P.3       1 ADP1201     0.0000 
      2 O1B        41.1540   32.6600   19.9850 O.co2     1 ADP1201     0.0000 
      3 O2B        41.5050   30.5240   21.3830 O.co2     1 ADP1201     0.0000 
      4 O3B        39.9300   30.5110   19.3650 O.co2     1 ADP1201     0.0000 
      5 PA         37.7700   31.8440   20.7760 P.3       1 ADP1201     0.0000 
      6 O1A        37.8250   32.8430   19.6370 O.co2     1 ADP1201     0.0000 
      7 O2A        37.2060   30.4310   20.5580 O.co2     1 ADP1201     0.0000 
      8 O3A        39.2780   31.6790   21.3790 O.3       1 ADP1201     0.0000 
      9 O5'        37.1730   32.5000   22.1150 O.3       1 ADP1201     0.0000 
     10 C5'        37.8660   32.7490   23.3440 C.3       1 ADP1201     0.0000 
     11 C4'        37.0570   31.9360   24.3040 C.3       1 ADP1201     0.0000 
     12 O4'        35.6980   32.4820   24.3320 O.3       1 ADP1201     0.0000 
     13 C3'        36.8880   30.4680   23.8600 C.3       1 ADP1201     0.0000 
     14 O3'        38.0530   29.6090   23.9850 O.3       1 ADP1201     0.0000 
     15 C2'        35.7340   30.1420   24.7680 C.3       1 ADP1201     0.0000 
     16 O2'        36.2540   30.0930   26.0530 O.3       1 ADP1201     0.0000 
     17 C1'        34.8310   31.4150   24.6500 C.3       1 ADP1201     0.0000 
     18 N9         33.9660   31.1750   23.5010 N.pl3     1 ADP1201     0.0000 
     19 C8         34.2490   31.3680   22.2140 C.2       1 ADP1201     0.0000 
     20 N7         33.2130   31.0000   21.3990 N.2       1 ADP1201     0.0000 
     21 C5         32.3000   30.4920   22.2790 C.ar      1 ADP1201     0.0000 
     22 C6         30.9770   29.9180   22.1420 C.ar      1 ADP1201     0.0000 
     23 N6         30.4480   29.7530   20.9260 N.pl3     1 ADP1201     0.0000 
     24 N1         30.3240   29.5760   23.2140 N.ar      1 ADP1201     0.0000 
     25 C2         30.8460   29.7060   24.4410 C.ar      1 ADP1201     0.0000 
     26 N3         32.0630   30.2200   24.6580 N.ar      1 ADP1201     0.0000 
     27 C4         32.7820   30.6470   23.6130 C.ar      1 ADP1201     0.0000 
     28 H          37.8204   33.7757   23.6258 H         1 ADP1201     0.0000 
     29 H          38.8642   32.3767   23.3206 H         1 ADP1201     0.0000 
     30 H          37.4765   31.9547   25.2756 H         1 ADP1201     0.0000 
     31 H          36.4820   30.5144   22.8552 H         1 ADP1201     0.0000 
     32 H          35.2238   29.3291   24.4365 H         1 ADP1201     0.0000 
     33 H          34.3076   31.5294   25.5289 H         1 ADP1201     0.0000 
     34 H          35.1008   31.7328   21.8681 H         1 ADP1201     0.0000 
     35 H          29.5358   29.3445   20.8947 H         1 ADP1201     0.0000 
     36 H          31.0118   30.0528   20.1565 H         1 ADP1201     0.0000 
     37 H          30.2698   29.3878   25.2764 H         1 ADP1201     0.0000 
     38 H          37.9923   28.9768   23.2126 H         1 ADP1201     0.0000 
     39 H          37.2139   29.8390   25.9341 H         1 ADP1201     0.0000 
@<TRIPOS>BOND
     1    2    1 ar   
     2    3    1 ar   
     3    4    1 ar   
     4    8    1 1    
     5    6    5 ar   
     6    7    5 ar   
     7    8    5 1    
     8    9    5 1    
     9   10    9 1    
    10   11   10 1    
    11   28   10 1    
    12   29   10 1    
    13   12   11 1    
    14   13   11 1    
    15   30   11 1    
    16   17   12 1    
    17   14   13 1    
    18   15   13 1    
    19   31   13 1    
    20   38   14 1    
    21   16   15 1    
    22   17   15 1    
    23   32   15 1    
    24   39   16 1    
    25   18   17 1    
    26   33   17 1    
    27   19   18 1    
    28   27   18 1    
    29   20   19 2    
    30   34   19 1    
    31   21   20 1    
    32   22   21 ar   
    33   27   21 ar   
    34   23   22 1    
    35   24   22 ar   
    36   35   23 1    
    37   36   23 1    
    38   25   24 ar   
    39   26   25 ar   
    40   37   25 1    
    41   27   26 ar   
@<TRIPOS>SUBSTRUCTURE
     1 ADP1201     1 GROUP   
@<TRIPOS>SET

