#    Name: 3u10_CMP_1_INTS_M
#    Modification time : Mon Mar 24 21:16:23 2014

@<TRIPOS>MOLECULE
3u10_CMP_1_INTS_M
   55     0     9     0     0
SMALL
NO_CHARGES


@<TRIPOS>ATOM
      1 N          -9.3815  -23.0335   -5.7195 N.am      2 SEC2        0.0000 
      2 N          -7.9230  -23.0200   -6.0810 N.am      8 SEL2        0.0000 
      3 N         -10.8400  -23.0470   -5.3580 N.am      5 SEP2        0.0000 
      4 N          -8.4750  -21.9160   -5.4045 N.am      2 SEC2        0.0000 
      5 N          -9.0270  -20.8120   -4.7280 N.am      5 SEP2        0.0000 
      6 N          -6.0990  -25.0635   -6.3870 N.am      2 SEC2        0.0000 
      7 N          -6.6670  -24.4770   -7.6230 N.am      8 SEL2        0.0000 
      8 N          -5.5310  -25.6500   -5.1510 N.am      5 SEP2        0.0000 
      9 N          -6.7270  -25.4110   -8.7430 N.am      2 SEC2        0.0000 
     10 N          -6.7870  -26.3450   -9.8630 N.am      5 SEP2        0.0000 
     11 CA        -10.0340  -22.7955  -10.1070 C.3       3 GLC5        0.0000 
     12 CA         -8.9090  -21.5190   -8.7910 C.3       9 GLL5        0.0000 
     13 CA        -11.1590  -24.0720  -11.4230 C.3       6 GLP5        0.0000 
     14 CA        -10.2915  -20.0660   -8.2325 C.3       3 GLC5        0.0000 
     15 CA        -11.6740  -18.6130   -7.6740 C.3       6 GLP5        0.0000 
     16 CA         -6.3330  -22.0830   -9.7435 C.3       3 GLC5        0.0000 
     17 CA         -7.7440  -20.5820   -8.8650 C.3       9 GLL5        0.0000 
     18 CA         -4.9220  -23.5840  -10.6220 C.3       6 GLP5        0.0000 
     19 N          -4.6265  -21.0555   -9.6850 N.am      2 SEC2        0.0000 
     20 N          -4.7130  -19.9300   -8.6620 N.am      8 SEL2        0.0000 
     21 N          -4.5400  -22.1810  -10.7080 N.am      5 SEP2        0.0000 
     22 O          -3.6075  -20.4750   -8.5295 O.2       1 ALC1        0.0000 
     23 O          -4.7130  -19.9300   -8.6620 O.2       7 ALL1        0.0000 
     24 O          -2.5020  -21.0200   -8.3970 O.2       4 ALP1        0.0000 
     25 CA         -8.3190  -17.3570   -9.0675 C.3       3 GLC5        0.0000 
     26 CA         -6.8280  -18.5710   -8.6370 C.3       9 GLL5        0.0000 
     27 CA         -9.8100  -16.1430   -9.4980 C.3       6 GLP5        0.0000 
     28 CA         -5.7875  -19.0390  -10.4845 C.3       3 GLC5        0.0000 
     29 CA         -4.7470  -19.5070  -12.3320 C.3       6 GLP5        0.0000 
     30 O          -6.7520  -14.0900   -3.9475 O.2       1 ALC1        0.0000 
     31 O          -6.8380  -13.4320   -5.2140 O.2       7 ALL1        0.0000 
     32 O          -6.6660  -14.7480   -2.6810 O.2       4 ALP1        0.0000 
     33 CA         -6.9100  -15.0340  -10.0350 C.3       3 GLC5        0.0000 
     34 CA         -5.5600  -14.2340   -8.5480 C.3       9 GLL5        0.0000 
     35 CA         -8.2600  -15.8340  -11.5220 C.3       6 GLP5        0.0000 
     36 CA         -4.6705  -13.6935  -10.4215 C.3       3 GLC5        0.0000 
     37 CA         -3.7810  -13.1530  -12.2950 C.3       6 GLP5        0.0000 
     38 CA         -4.2125  -15.3375   -7.4445 C.3       3 GLC5        0.0000 
     39 CA         -2.8650  -16.4410   -6.3410 C.3       6 GLP5        0.0000 
     40 CA         -4.6920  -16.3365   -7.0505 C.3       3 GLC5        0.0000 
     41 CA         -6.5190  -16.2320   -7.7600 C.3       9 GLL5        0.0000 
     42 CA         -8.8492  -20.4032  -10.7435 C.3       3 GLC5        0.0000 
     43 CA         -9.3720  -19.7560  -12.6590 C.3       6 GLP5        0.0000 
     44 CA         -5.7855  -20.0995   -6.0765 C.3       3 GLC5        0.0000 
     45 CA         -6.8420  -20.6900   -7.6540 C.3       9 GLL5        0.0000 
     46 CA         -5.2010  -20.0720   -4.3650 C.3       6 GLP5        0.0000 
     47 CA         -8.2598  -16.0183   -8.3155 C.3       3 GLC5        0.0000 
     48 CA         -7.9010  -13.2870   -6.7955 C.3       3 GLC5        0.0000 
     49 CA         -6.9000  -15.5550   -6.5060 C.3       9 GLL5        0.0000 
     50 CA         -9.0870  -11.7290   -7.1630 C.3       6 GLP5        0.0000 
     51 CA         -5.3790  -15.3970   -5.3225 C.3       3 GLC5        0.0000 
     52 CA         -6.5300  -14.1350   -6.3500 C.3       9 GLL5        0.0000 
     53 CA         -4.0430  -15.9490   -4.2170 C.3       6 GLP5        0.0000 
     54 CA         -8.4885  -14.3685   -5.2575 C.3       3 GLC5        0.0000 
     55 CA        -10.2620  -13.8920   -4.0870 C.3       6 GLP5        0.0000 
@<TRIPOS>BOND
@<TRIPOS>SUBSTRUCTURE
     1 ALC1       22 GROUP        1 X    ALC  0     ROOT ALC X 1
     2 SEC2        1 GROUP        1 X    SEC  0     **** SEC X 2
     3 GLC5       11 GROUP        1 X    GLC  0     **** GLC X 6
     4 ALP1       24 GROUP        1 Y    ALP  0     ROOT ALP Y 8
     5 SEP2        3 GROUP        1 Y    SEP  0     **** SEP Y 9
     6 GLP5       13 GROUP        1 Y    GLP  0     **** GLP Y 13
     7 ALL1       23 GROUP        1 Z    ALL  0     ROOT ALL Z 15
     8 SEL2        2 GROUP        1 Z    SEL  0     **** SEL Z 16
     9 GLL5       12 GROUP        1 Z    GLL  0     **** GLL Z 20
@<TRIPOS>SET

