#    Name: 3u10_CMP_1_ligand
#    Modification time : Mon Mar 24 21:16:23 2014

@<TRIPOS>MOLECULE
3u10_CMP_1_ligand
   33    36     1     0     0
SMALL
NO_CHARGES


@<TRIPOS>ATOM
      1 P          -7.2770  -23.1400   -7.4720 P.3       1 CMP701      0.0000 
      2 O1P        -7.9230  -23.0200   -6.0810 O.co2     1 CMP701      0.0000 
      3 O2P        -6.6670  -24.4770   -7.6230 O.co2     1 CMP701      0.0000 
      4 O5'        -8.3270  -22.8030   -8.6170 O.3       1 CMP701      0.0000 
      5 C5'        -8.9090  -21.5190   -8.7910 C.3       1 CMP701      0.0000 
      6 C4'        -7.7440  -20.5820   -8.8650 C.3       1 CMP701      0.0000 
      7 O4'        -8.1070  -19.2240   -8.8560 O.3       1 CMP701      0.0000 
      8 C3'        -6.8420  -20.6900   -7.6540 C.3       1 CMP701      0.0000 
      9 O3'        -6.2370  -21.9340   -7.5680 O.3       1 CMP701      0.0000 
     10 C2'        -5.8980  -19.5640   -7.9220 C.3       1 CMP701      0.0000 
     11 O2'        -4.7130  -19.9300   -8.6620 O.3       1 CMP701      0.0000 
     12 C1'        -6.8280  -18.5710   -8.6370 C.3       1 CMP701      0.0000 
     13 N9         -6.9720  -17.4850   -7.6490 N.pl3     1 CMP701      0.0000 
     14 C8         -7.5970  -17.6290   -6.4530 C.2       1 CMP701      0.0000 
     15 N7         -7.5580  -16.4690   -5.7530 N.2       1 CMP701      0.0000 
     16 C5         -6.9000  -15.5550   -6.5060 C.ar      1 CMP701      0.0000 
     17 C6         -6.5300  -14.1350   -6.3500 C.ar      1 CMP701      0.0000 
     18 N6         -6.8380  -13.4320   -5.2140 N.pl3     1 CMP701      0.0000 
     19 N1         -5.8860  -13.5600   -7.4070 N.ar      1 CMP701      0.0000 
     20 C2         -5.5600  -14.2340   -8.5480 C.ar      1 CMP701      0.0000 
     21 N3         -5.8590  -15.5400   -8.7220 N.ar      1 CMP701      0.0000 
     22 C4         -6.5190  -16.2320   -7.7600 C.ar      1 CMP701      0.0000 
     23 H          -9.5294  -21.2390   -7.9525 H         1 CMP701      0.0000 
     24 H          -9.4708  -21.4507   -9.7108 H         1 CMP701      0.0000 
     25 H          -7.1353  -20.8073   -9.7308 H         1 CMP701      0.0000 
     26 H          -7.4401  -20.4193   -6.8022 H         1 CMP701      0.0000 
     27 H          -5.6651  -19.1086   -6.9573 H         1 CMP701      0.0000 
     28 H          -6.3672  -18.2411   -9.5030 H         1 CMP701      0.0000 
     29 H          -8.0163  -18.4542   -6.1409 H         1 CMP701      0.0000 
     30 H          -7.0520  -12.4634   -5.3404 H         1 CMP701      0.0000 
     31 H          -6.8217  -13.9494   -4.3584 H         1 CMP701      0.0000 
     32 H          -5.0586  -13.7135   -9.3152 H         1 CMP701      0.0000 
     33 H          -4.1375  -20.4165   -8.0046 H         1 CMP701      0.0000 
@<TRIPOS>BOND
     1    2    1 ar   
     2    3    1 ar   
     3    4    1 1    
     4    9    1 1    
     5    5    4 1    
     6    6    5 1    
     7   23    5 1    
     8   24    5 1    
     9    7    6 1    
    10    8    6 1    
    11   25    6 1    
    12   12    7 1    
    13    9    8 1    
    14   10    8 1    
    15   26    8 1    
    16   11   10 1    
    17   12   10 1    
    18   27   10 1    
    19   33   11 1    
    20   13   12 1    
    21   28   12 1    
    22   14   13 1    
    23   22   13 1    
    24   15   14 2    
    25   29   14 1    
    26   16   15 1    
    27   17   16 ar   
    28   22   16 ar   
    29   18   17 1    
    30   19   17 ar   
    31   30   18 1    
    32   31   18 1    
    33   20   19 ar   
    34   21   20 ar   
    35   32   20 1    
    36   22   21 ar   
@<TRIPOS>SUBSTRUCTURE
     1 CMP701      1 GROUP   
@<TRIPOS>SET

