#    Name: 1vso_AT1_1_INTS_M
#    Modification time : Tue Mar 25 08:15:12 2014

@<TRIPOS>MOLECULE
1vso_AT1_1_INTS_M
   54     0    15     0     0
SMALL
NO_CHARGES


@<TRIPOS>ATOM
      1 OD1        41.7520    3.9155    6.8295 O.co2     3 ASC3        0.0000 
      2 OD1        41.8390    5.0010    5.1840 O.co2    13 ASL3        0.0000 
      3 OD1        41.6650    2.8300    8.4750 O.co2     8 ASP3        0.0000 
      4 OD1        42.2540    4.8550    6.5710 O.co2     3 ASC3        0.0000 
      5 OD1        42.6690    4.7090    7.9580 O.co2     8 ASP3        0.0000 
      6 O          42.3600    6.1605    4.4670 O.2       1 ALC1        0.0000 
      7 O          41.8390    5.0010    5.1840 O.2      11 ALL1        0.0000 
      8 O          42.8810    7.3200    3.7500 O.2       6 ALP1        0.0000 
      9 O          42.5140    3.9130    4.8190 O.2       1 ALC1        0.0000 
     10 O          43.1890    2.8250    4.4540 O.2       6 ALP1        0.0000 
     11 O          42.2540    4.8550    6.5710 O.2       1 ALC1        0.0000 
     12 O          42.6690    4.7090    7.9580 O.2       6 ALP1        0.0000 
     13 CA         38.6390    7.5205    4.7370 C.3       5 GLC5        0.0000 
     14 CA         39.4930    5.8860    5.5700 C.3      15 GLL5        0.0000 
     15 CA         37.7850    9.1550    3.9040 C.3      10 GLP5        0.0000 
     16 NZ         41.0005    3.7555    1.6120 N.4       4 LYC4        0.0000 
     17 NZ         41.0750    4.6780    2.6580 N.4      14 LYL4        0.0000 
     18 NZ         39.7750    2.7310   -0.0840 N.4       9 LYP4        0.0000 
     19 N          42.3670    4.4170    2.3405 N.am      2 SEC2        0.0000 
     20 N          41.0750    4.6780    2.6580 N.am     12 SEL2        0.0000 
     21 N          43.6590    4.1560    2.0230 N.am      7 SEP2        0.0000 
     22 N          41.0005    3.7555    1.6120 N.am      2 SEC2        0.0000 
     23 N          40.9260    2.8330    0.5660 N.am      7 SEP2        0.0000 
     24 CA         41.8920    3.3985    4.1285 C.3       5 GLC5        0.0000 
     25 CA         40.3370    4.7540    4.9780 C.3      15 GLL5        0.0000 
     26 CA         43.4470    2.0430    3.2790 C.3      10 GLP5        0.0000 
     27 NZ         38.7780    3.7920    1.7680 N.4       4 LYC4        0.0000 
     28 NZ         38.8910    4.3770    3.0650 N.4      14 LYL4        0.0000 
     29 N          38.7780    3.7920    1.7680 N.am      2 SEC2        0.0000 
     30 N          38.8910    4.3770    3.0650 N.am     12 SEL2        0.0000 
     31 N          38.6650    3.2070    0.4710 N.am      7 SEP2        0.0000 
     32 CA         39.7570   10.8130    8.0560 C.3       5 GLC5        0.0000 
     33 CA         39.7510    9.0910    8.8210 C.3      15 GLL5        0.0000 
     34 CA         39.7630   12.5350    7.2910 C.3      10 GLP5        0.0000 
     35 CA         42.8675    9.7225    8.7880 C.3       5 GLC5        0.0000 
     36 CA         41.8670    7.7950    9.1260 C.3      15 GLL5        0.0000 
     37 CA         43.8680   11.6500    8.4500 C.3      10 GLP5        0.0000 
     38 CA         42.3675    5.8665    9.6665 C.3       5 GLC5        0.0000 
     39 CA         42.8680    3.9380   10.2070 C.3      10 GLP5        0.0000 
     40 CA         43.5910    7.0655    8.1095 C.3       5 GLC5        0.0000 
     41 CA         45.3150    6.3360    7.0930 C.3      10 GLP5        0.0000 
     42 CA         40.4720   10.5455    7.0800 C.3       5 GLC5        0.0000 
     43 CA         41.1810    8.5560    6.8690 C.3      15 GLL5        0.0000 
     44 CA         42.5245   10.1030    7.6595 C.3       5 GLC5        0.0000 
     45 CA         40.1305    9.1030    5.3640 C.3       5 GLC5        0.0000 
     46 CA         39.0800    9.6500    3.8590 C.3      10 GLP5        0.0000 
     47 CA         42.1315    9.4635    5.8930 C.3       5 GLC5        0.0000 
     48 CA         43.0820   10.3710    4.9170 C.3      10 GLP5        0.0000 
     49 N          37.6050    0.1235    6.6930 N.am      2 SEC2        0.0000 
     50 N          37.1590    1.1790    5.9410 N.am     12 SEL2        0.0000 
     51 N          38.0510   -0.9320    7.4450 N.am      7 SEP2        0.0000 
     52 N          35.3460   -0.3010    7.7840 N.am      2 SEC2        0.0000 
     53 N          35.4750    1.0470    7.8200 N.am     12 SEL2        0.0000 
     54 N          35.2170   -1.6490    7.7480 N.am      7 SEP2        0.0000 
@<TRIPOS>BOND
@<TRIPOS>SUBSTRUCTURE
     1 ALC1        6 GROUP        1 X    ALC  0     ROOT ALC X 1
     2 SEC2       19 GROUP        1 X    SEC  0     **** SEC X 2
     3 ASC3        1 GROUP        1 X    ASC  0     **** ASC X 3
     4 LYC4       16 GROUP        1 X    LYC  0     **** LYC X 4
     5 GLC5       13 GROUP        1 X    GLC  0     **** GLC X 6
     6 ALP1        8 GROUP        1 Y    ALP  0     ROOT ALP Y 8
     7 SEP2       21 GROUP        1 Y    SEP  0     **** SEP Y 9
     8 ASP3        3 GROUP        1 Y    ASP  0     **** ASP Y 10
     9 LYP4       18 GROUP        1 Y    LYP  0     **** LYP Y 11
    10 GLP5       15 GROUP        1 Y    GLP  0     **** GLP Y 13
    11 ALL1        7 GROUP        1 Z    ALL  0     ROOT ALL Z 15
    12 SEL2       20 GROUP        1 Z    SEL  0     **** SEL Z 16
    13 ASL3        2 GROUP        1 Z    ASL  0     **** ASL Z 17
    14 LYL4       17 GROUP        1 Z    LYL  0     **** LYL Z 18
    15 GLL5       14 GROUP        1 Z    GLL  0     **** GLL Z 20
@<TRIPOS>SET

