#    Name: 1vso_AT1_1_ligand
#    Modification time : Tue Mar 25 08:15:12 2014

@<TRIPOS>MOLECULE
1vso_AT1_1_ligand
   38    38     1     0     0
SMALL
NO_CHARGES


@<TRIPOS>ATOM
      1 N          41.8390    5.0010    5.1840 N.4       1 AT1258      0.0000 
      2 C          39.4930    5.8860    5.5700 C.3       1 AT1258      0.0000 
      3 O          41.0750    4.6780    2.6580 O.co2     1 AT1258      0.0000 
      4 C1         40.3370    4.7540    4.9780 C.3       1 AT1258      0.0000 
      5 C2         40.0710    4.5890    3.4290 C.2       1 AT1258      0.0000 
      6 O1         38.8910    4.3770    3.0650 O.co2     1 AT1258      0.0000 
      7 O2         39.4480    6.2390    9.2710 O.3       1 AT1258      0.0000 
      8 O3         38.0380    3.8840    7.1560 O.3       1 AT1258      0.0000 
      9 N1         38.6860    5.0620    9.0890 N.2       1 AT1258      0.0000 
     10 C3         40.6750    8.0160    8.2000 C.3       1 AT1258      0.0000 
     11 C4         37.2820    2.9370    7.9810 C.3       1 AT1258      0.0000 
     12 C5         38.6710    4.8910    7.7880 C.2       1 AT1258      0.0000 
     13 C6         39.3920    5.8970    7.0660 C.2       1 AT1258      0.0000 
     14 C7         39.8570    6.7270    8.0670 C.2       1 AT1258      0.0000 
     15 C9         39.7510    9.0910    8.8210 C.3       1 AT1258      0.0000 
     16 C10        41.8670    7.7950    9.1260 C.3       1 AT1258      0.0000 
     17 C11        41.1810    8.5560    6.8690 C.3       1 AT1258      0.0000 
     18 P          36.2720    1.9120    6.8820 P.3       1 AT1258      0.0000 
     19 O4         37.1590    1.1790    5.9410 O.co2     1 AT1258      0.0000 
     20 O5         35.4750    1.0470    7.8200 O.co2     1 AT1258      0.0000 
     21 O6         35.2950    2.8940    6.1530 O.co2     1 AT1258      0.0000 
     22 H          38.4739    5.8256    5.1308 H         1 AT1258      0.0000 
     23 H          39.9148    6.8530    5.2205 H         1 AT1258      0.0000 
     24 H          40.0739    3.8209    5.4478 H         1 AT1258      0.0000 
     25 H          36.5414    3.3719    8.6080 H         1 AT1258      0.0000 
     26 H          37.8668    2.2027    8.4804 H         1 AT1258      0.0000 
     27 H          42.3930    4.2634    4.7981 H         1 AT1258      0.0000 
     28 H          42.1386    5.8506    4.7499 H         1 AT1258      0.0000 
     29 H          42.0748    5.0682    6.1535 H         1 AT1258      0.0000 
     30 H          40.2239    9.9643    8.9385 H         1 AT1258      0.0000 
     31 H          38.9492    9.2664    8.2498 H         1 AT1258      0.0000 
     32 H          39.4147    8.8163    9.7218 H         1 AT1258      0.0000 
     33 H          42.4747    7.0781    8.7844 H         1 AT1258      0.0000 
     34 H          42.4182    8.6234    9.2261 H         1 AT1258      0.0000 
     35 H          41.5787    7.5221   10.0438 H         1 AT1258      0.0000 
     36 H          41.7088    9.3973    6.9860 H         1 AT1258      0.0000 
     37 H          41.7749    7.8997    6.4036 H         1 AT1258      0.0000 
     38 H          40.4295    8.7661    6.2436 H         1 AT1258      0.0000 
@<TRIPOS>BOND
     1    4    1 1    
     2   27    1 1    
     3   28    1 1    
     4   29    1 1    
     5    4    2 1    
     6   13    2 1    
     7   22    2 1    
     8   23    2 1    
     9    5    3 ar   
    10    5    4 1    
    11   24    4 1    
    12    6    5 ar   
    13    9    7 1    
    14   14    7 1    
    15   11    8 1    
    16   12    8 1    
    17   12    9 2    
    18   14   10 1    
    19   15   10 1    
    20   16   10 1    
    21   17   10 1    
    22   18   11 1    
    23   25   11 1    
    24   26   11 1    
    25   13   12 1    
    26   14   13 2    
    27   30   15 1    
    28   31   15 1    
    29   32   15 1    
    30   33   16 1    
    31   34   16 1    
    32   35   16 1    
    33   36   17 1    
    34   37   17 1    
    35   38   17 1    
    36   19   18 ar   
    37   20   18 ar   
    38   21   18 ar   
@<TRIPOS>SUBSTRUCTURE
     1 AT1258      1 GROUP   
@<TRIPOS>SET

