#    Name: 4j0a_1JL_1_INTS_M
#    Modification time : Tue Mar 25 04:58:23 2014

@<TRIPOS>MOLECULE
4j0a_1JL_1_INTS_M
   58     0     6     0     0
SMALL
NO_CHARGES


@<TRIPOS>ATOM
      1 CA        -27.2845   52.8875   52.3665 C.3       2 GLC5        0.0000 
      2 CA        -27.4290   51.5530   53.9920 C.3       6 GLL5        0.0000 
      3 CA        -27.1400   54.2220   50.7410 C.3       4 GLP5        0.0000 
      4 CA        -23.5065   51.2955   53.9000 C.3       2 GLC5        0.0000 
      5 CA        -22.5660   51.7600   55.8330 C.3       6 GLL5        0.0000 
      6 CA        -24.4470   50.8310   51.9670 C.3       4 GLP5        0.0000 
      7 N         -24.3920   45.7525   56.7310 N.am      1 SEC2        0.0000 
      8 N         -24.5110   47.1080   56.7170 N.am      5 SEL2        0.0000 
      9 N         -24.2730   44.3970   56.7450 N.am      3 SEP2        0.0000 
     10 N         -22.1985   45.6775   55.6530 N.am      1 SEC2        0.0000 
     11 N         -22.2700   46.8620   56.5490 N.am      5 SEL2        0.0000 
     12 N         -22.1270   44.4930   54.7570 N.am      3 SEP2        0.0000 
     13 CA        -22.6715   54.1510   56.0510 C.3       2 GLC5        0.0000 
     14 CA        -21.4740   53.5660   54.5420 C.3       6 GLL5        0.0000 
     15 CA        -23.8690   54.7360   57.5600 C.3       4 GLP5        0.0000 
     16 CA        -23.4780   54.5080   52.7105 C.3       2 GLC5        0.0000 
     17 CA        -21.9560   53.8540   53.2270 C.3       6 GLL5        0.0000 
     18 CA        -25.0000   55.1620   52.1940 C.3       4 GLP5        0.0000 
     19 CA        -22.7490   55.2735   54.6280 C.3       2 GLC5        0.0000 
     20 CA        -23.5420   56.6930   56.0290 C.3       4 GLP5        0.0000 
     21 CA        -22.5550   55.3820   51.8750 C.3       2 GLC5        0.0000 
     22 CA        -21.0530   54.3030   52.2190 C.3       6 GLL5        0.0000 
     23 CA        -24.0570   56.4610   51.5310 C.3       4 GLP5        0.0000 
     24 CA        -18.0600   54.7850   51.4645 C.3       2 GLC5        0.0000 
     25 CA        -19.6660   54.4650   52.5090 C.3       6 GLL5        0.0000 
     26 CA        -16.4540   55.1050   50.4200 C.3       4 GLP5        0.0000 
     27 CA        -18.2285   52.2495   53.8835 C.3       2 GLC5        0.0000 
     28 CA        -19.1780   54.1850   53.8110 C.3       6 GLL5        0.0000 
     29 CA        -17.2790   50.3140   53.9560 C.3       4 GLP5        0.0000 
     30 CA        -17.4765   54.4060   52.7505 C.3       2 GLC5        0.0000 
     31 CA        -15.7750   54.6270   51.6900 C.3       4 GLP5        0.0000 
     32 CA        -29.2975   50.4265   50.5060 C.3       2 GLC5        0.0000 
     33 CA        -28.4440   50.4270   51.9720 C.3       6 GLL5        0.0000 
     34 CA        -30.1510   50.4260   49.0400 C.3       4 GLP5        0.0000 
     35 CA        -27.7920   52.3245   51.3565 C.3       2 GLC5        0.0000 
     36 CA        -30.1060   50.7585   52.8995 C.3       2 GLC5        0.0000 
     37 CA        -31.7680   51.0900   53.8270 C.3       4 GLP5        0.0000 
     38 CA        -25.8405   51.1870   53.3185 C.3       2 GLC5        0.0000 
     39 CA        -26.3005   53.2970   55.1135 C.3       2 GLC5        0.0000 
     40 CA        -25.3670   55.0510   55.5570 C.3       4 GLP5        0.0000 
     41 CA        -29.6480   50.5075   54.2952 C.3       2 GLC5        0.0000 
     42 CA        -31.5650   50.0380   54.8920 C.3       4 GLP5        0.0000 
     43 CA        -26.3428   50.6225   52.3277 C.3       2 GLC5        0.0000 
     44 CA        -28.0330   50.4010   53.4050 C.3       6 GLL5        0.0000 
     45 CA        -29.6071   49.9126   55.1946 C.3       2 GLC5        0.0000 
     46 CA        -28.2410   49.2310   54.1960 C.3       6 GLL5        0.0000 
     47 CA        -21.9917   50.1308   53.4430 C.3       2 GLC5        0.0000 
     48 CA        -22.0730   49.3970   55.4850 C.3       6 GLL5        0.0000 
     49 CA        -22.0570   50.1940   51.5240 C.3       4 GLP5        0.0000 
     50 CA        -20.3027   49.0048   55.2655 C.3       2 GLC5        0.0000 
     51 CA        -21.7800   50.7380   55.2390 C.3       6 GLL5        0.0000 
     52 CA        -18.6790   47.9420   55.1690 C.3       4 GLP5        0.0000 
     53 CA        -23.4940   53.1637   56.9130 C.3       2 GLC5        0.0000 
     54 CA        -21.7807   52.1363   52.1235 C.3       2 GLC5        0.0000 
     55 CA        -20.2473   53.9325   50.5275 C.3       2 GLC5        0.0000 
     56 CA        -20.1350   53.4810   48.6910 C.3       4 GLP5        0.0000 
     57 CA        -20.5162   55.8050   51.0550 C.3       2 GLC5        0.0000 
     58 CA        -20.6730   57.2260   49.7460 C.3       4 GLP5        0.0000 
@<TRIPOS>BOND
@<TRIPOS>SUBSTRUCTURE
     1 SEC2        7 GROUP        1 X    SEC  0     ROOT SEC X 2
     2 GLC5        1 GROUP        1 X    GLC  0     **** GLC X 6
     3 SEP2        9 GROUP        1 Y    SEP  0     ROOT SEP Y 9
     4 GLP5        3 GROUP        1 Y    GLP  0     **** GLP Y 13
     5 SEL2        8 GROUP        1 Z    SEL  0     ROOT SEL Z 16
     6 GLL5        2 GROUP        1 Z    GLL  0     **** GLL Z 20
@<TRIPOS>SET

