#    Name: 4j0a_1JL_1_ligand
#    Modification time : Tue Mar 25 04:58:23 2014

@<TRIPOS>MOLECULE
4j0a_1JL_1_ligand
   43    45     1     0     0
SMALL
NO_CHARGES


@<TRIPOS>ATOM
      1 C1        -27.0390   51.5330   55.3480 C.ar      1 1JL601      0.0000 
      2 C2        -27.4290   51.5530   53.9920 C.ar      1 1JL601      0.0000 
      3 C3        -28.0330   50.4010   53.4050 C.ar      1 1JL601      0.0000 
      4 C4        -28.2410   49.2310   54.1960 C.ar      1 1JL601      0.0000 
      5 C5        -27.8520   49.2040   55.5530 C.ar      1 1JL601      0.0000 
      6 C6        -27.2520   50.3570   56.1200 C.ar      1 1JL601      0.0000 
      7 S7        -26.7580   50.3300   57.8220 S.o2      1 1JL601      0.0000 
      8 O8        -27.6760   49.4200   58.5190 O.2       1 1JL601      0.0000 
      9 O9        -26.7310   51.7400   58.2510 O.2       1 1JL601      0.0000 
     10 N10       -25.1180   49.6480   57.8580 N.pl3     1 1JL601      0.0000 
     11 C11       -23.9870   50.0440   56.9620 C.ar      1 1JL601      0.0000 
     12 C12       -23.1540   49.0270   56.3330 C.ar      1 1JL601      0.0000 
     13 C13       -22.0730   49.3970   55.4850 C.ar      1 1JL601      0.0000 
     14 C14       -21.7800   50.7380   55.2390 C.ar      1 1JL601      0.0000 
     15 C15       -22.5660   51.7600   55.8330 C.ar      1 1JL601      0.0000 
     16 C16       -23.6720   51.4230   56.6990 C.ar      1 1JL601      0.0000 
     17 C17       -23.4020   47.6080   56.5530 C.2       1 1JL601      0.0000 
     18 O18       -24.5110   47.1080   56.7170 O.co2     1 1JL601      0.0000 
     19 O19       -22.2700   46.8620   56.5490 O.co2     1 1JL601      0.0000 
     20 O20       -22.2990   53.1140   55.6150 O.3       1 1JL601      0.0000 
     21 C21       -21.4740   53.5660   54.5420 C.ar      1 1JL601      0.0000 
     22 C22       -21.9560   53.8540   53.2270 C.ar      1 1JL601      0.0000 
     23 C23       -21.0530   54.3030   52.2190 C.ar      1 1JL601      0.0000 
     24 C24       -19.6660   54.4650   52.5090 C.ar      1 1JL601      0.0000 
     25 C25       -19.1780   54.1850   53.8110 C.ar      1 1JL601      0.0000 
     26 C26       -20.0730   53.7350   54.8280 C.ar      1 1JL601      0.0000 
     27 C27       -28.4440   50.4270   51.9720 C.3       1 1JL601      0.0000 
     28 H         -26.6094   52.3486   55.7742 H         1 1JL601      0.0000 
     29 H         -27.2822   52.3874   53.4255 H         1 1JL601      0.0000 
     30 H         -28.6757   48.4094   53.7701 H         1 1JL601      0.0000 
     31 H         -27.9982   48.3742   56.1159 H         1 1JL601      0.0000 
     32 H         -25.0492   48.9494   58.5717 H         1 1JL601      0.0000 
     33 H         -21.5061   48.6546   55.0525 H         1 1JL601      0.0000 
     34 H         -20.9987   50.9975   54.6303 H         1 1JL601      0.0000 
     35 H         -24.2239   52.1591   57.1196 H         1 1JL601      0.0000 
     36 H         -22.9422   53.7382   53.0126 H         1 1JL601      0.0000 
     37 H         -21.4016   54.5101   51.2828 H         1 1JL601      0.0000 
     38 H         -19.0303   54.7811   51.7806 H         1 1JL601      0.0000 
     39 H         -18.1900   54.3037   54.0244 H         1 1JL601      0.0000 
     40 H         -19.7245   53.5313   55.7610 H         1 1JL601      0.0000 
     41 H         -27.6669   50.5958   51.3657 H         1 1JL601      0.0000 
     42 H         -28.8548   49.5607   51.6877 H         1 1JL601      0.0000 
     43 H         -29.1175   51.1439   51.7918 H         1 1JL601      0.0000 
@<TRIPOS>BOND
     1    2    1 ar   
     2    6    1 ar   
     3   28    1 1    
     4    3    2 ar   
     5   29    2 1    
     6    4    3 ar   
     7   27    3 1    
     8    5    4 ar   
     9   30    4 1    
    10    6    5 ar   
    11   31    5 1    
    12    7    6 1    
    13    8    7 2    
    14    9    7 2    
    15   10    7 1    
    16   11   10 1    
    17   32   10 1    
    18   12   11 ar   
    19   16   11 ar   
    20   13   12 ar   
    21   17   12 1    
    22   14   13 ar   
    23   33   13 1    
    24   15   14 ar   
    25   34   14 1    
    26   16   15 ar   
    27   20   15 1    
    28   35   16 1    
    29   18   17 ar   
    30   19   17 ar   
    31   21   20 1    
    32   22   21 ar   
    33   26   21 ar   
    34   23   22 ar   
    35   36   22 1    
    36   24   23 ar   
    37   37   23 1    
    38   25   24 ar   
    39   38   24 1    
    40   26   25 ar   
    41   39   25 1    
    42   40   26 1    
    43   41   27 1    
    44   42   27 1    
    45   43   27 1    
@<TRIPOS>SUBSTRUCTURE
     1 1JL601      1 GROUP   
@<TRIPOS>SET

