#    Name: 3ruv_ANP_2_INTS_M
#    Modification time : Mon Apr  7 21:31:48 2014

@<TRIPOS>MOLECULE
3ruv_ANP_2_INTS_M
   68     0    15     0     0
SMALL
NO_CHARGES


@<TRIPOS>ATOM
      1 N          12.2955   49.0055  -22.2290 N.am      2 SEC2        0.0000 
      2 N          13.6360   48.2750  -22.3770 N.am     12 SEL2        0.0000 
      3 N          10.9550   49.7360  -22.0810 N.am      7 SEP2        0.0000 
      4 N          12.6610   47.6100  -21.8840 N.am      2 SEC2        0.0000 
      5 N          11.6860   46.9450  -21.3910 N.am      7 SEP2        0.0000 
      6 NZ         16.5315   47.1605  -21.5810 N.4       3 LYC4        0.0000 
      7 NZ         15.2050   47.3380  -20.6070 N.4      13 LYL4        0.0000 
      8 NZ         17.8580   46.9830  -22.5550 N.4       8 LYP4        0.0000 
      9 N          14.6655   46.1970  -20.1295 N.am      2 SEC2        0.0000 
     10 N          15.2050   47.3380  -20.6070 N.am     12 SEL2        0.0000 
     11 N          14.1260   45.0560  -19.6520 N.am      7 SEP2        0.0000 
     12 NZ         16.8845   48.1225  -22.3120 N.4       3 LYC4        0.0000 
     13 NZ         15.9110   49.2620  -22.0690 N.4      13 LYL4        0.0000 
     14 Zn         16.3495   50.2010  -22.2460 Zn        4 ZIC7        0.0000 
     15 Zn         15.9110   49.2620  -22.0690 Zn       14 ZIL7        0.0000 
     16 Zn         16.7880   51.1400  -22.4230 Zn        9 ZIP7        0.0000 
     17 Zn         15.7675   51.4410  -21.9890 Zn        4 ZIC7        0.0000 
     18 Zn         14.7470   51.7420  -21.5550 Zn       14 ZIL7        0.0000 
     19 N          13.6375   51.6325  -22.5400 N.am      2 SEC2        0.0000 
     20 N          14.7470   51.7420  -21.5550 N.am     12 SEL2        0.0000 
     21 N          12.5280   51.5230  -23.5250 N.am      7 SEP2        0.0000 
     22 N          11.8375   51.6880  -18.9290 N.am      2 SEC2        0.0000 
     23 N          13.0160   51.8560  -19.7490 N.am     12 SEL2        0.0000 
     24 N          10.6590   51.5200  -18.1090 N.am      7 SEP2        0.0000 
     25 N          12.4370   52.9755  -19.2145 N.am      2 SEC2        0.0000 
     26 N          11.8580   54.0950  -18.6800 N.am      7 SEP2        0.0000 
     27 Zn         17.0695   51.1405  -21.3860 Zn        4 ZIC7        0.0000 
     28 Zn         17.3510   51.1410  -20.3490 Zn       14 ZIL7        0.0000 
     29 N          17.7310   51.7145  -16.8710 N.am      2 SEC2        0.0000 
     30 N          17.4820   50.8000  -17.9500 N.am     12 SEL2        0.0000 
     31 N          17.9800   52.6290  -15.7920 N.am      7 SEP2        0.0000 
     32 N          17.6955   52.8710  -17.2980 N.am      2 SEC2        0.0000 
     33 N          17.4110   53.1130  -18.8040 N.am     12 SEL2        0.0000 
     34 CA         18.6845   53.4145  -19.9915 C.3       5 GLC5        0.0000 
     35 CA         16.8440   54.1900  -19.4790 C.3      15 GLL5        0.0000 
     36 CA         20.5250   52.6390  -20.5040 C.3      10 GLP5        0.0000 
     37 CA         16.8240   55.8960  -16.6405 C.3       5 GLC5        0.0000 
     38 CA         16.7170   55.4290  -18.7190 C.3      15 GLL5        0.0000 
     39 CA         16.9310   56.3630  -14.5620 C.3      10 GLP5        0.0000 
     40 N          17.0605   60.0005  -19.4200 N.am      2 SEC2        0.0000 
     41 N          16.9320   58.6910  -20.0640 N.am     12 SEL2        0.0000 
     42 N          17.1890   61.3100  -18.7760 N.am      7 SEP2        0.0000 
     43 O          16.3375   58.7660  -21.2790 O.2       1 ALC1        0.0000 
     44 O          16.9320   58.6910  -20.0640 O.2      11 ALL1        0.0000 
     45 O          15.7430   58.8410  -22.4940 O.2       6 ALP1        0.0000 
     46 CA         19.7350   56.2605  -17.6340 C.3       5 GLC5        0.0000 
     47 CA         18.1780   57.2140  -18.7410 C.3      15 GLL5        0.0000 
     48 CA         21.2920   55.3070  -16.5270 C.3      10 GLP5        0.0000 
     49 CA         17.8850   59.3315  -18.0660 C.3       5 GLC5        0.0000 
     50 CA         17.5920   61.4490  -17.3910 C.3      10 GLP5        0.0000 
     51 CA         17.5545   56.7885  -16.6515 C.3       5 GLC5        0.0000 
     52 CA         23.0825   58.7565  -16.3290 C.3       5 GLC5        0.0000 
     53 CA         22.5270   59.5330  -18.2700 C.3      15 GLL5        0.0000 
     54 CA         23.6380   57.9800  -14.3880 C.3      10 GLP5        0.0000 
     55 CA         19.3120   60.7435  -16.9700 C.3       5 GLC5        0.0000 
     56 CA         21.0320   60.0380  -16.5490 C.3      15 GLL5        0.0000 
     57 CA         22.1380   61.5835  -15.6200 C.3       5 GLC5        0.0000 
     58 CA         23.2440   63.1290  -14.6910 C.3      10 GLP5        0.0000 
     59 CA         22.3350   59.0090  -15.4685 C.3       5 GLC5        0.0000 
     60 CA         18.9650   60.0055  -17.8090 C.3       5 GLC5        0.0000 
     61 CA         20.3380   58.5620  -18.2270 C.3      15 GLL5        0.0000 
     62 CA         17.9078   54.2118  -17.5435 C.3       5 GLC5        0.0000 
     63 CA         19.0350   53.6140  -15.9880 C.3      10 GLP5        0.0000 
     64 CA         21.8216   57.2485  -17.9047 C.3       5 GLC5        0.0000 
     65 CA         21.5820   58.6990  -18.8460 C.3      15 GLL5        0.0000 
     66 CA         22.4470   55.6580  -17.4170 C.3      10 GLP5        0.0000 
     67 CA         20.8286   60.0885  -19.7987 C.3       5 GLC5        0.0000 
     68 CA         20.4610   61.3380  -21.2050 C.3      10 GLP5        0.0000 
@<TRIPOS>BOND
@<TRIPOS>SUBSTRUCTURE
     1 ALC1       43 GROUP        1 X    ALC  0     ROOT ALC X 1
     2 SEC2        1 GROUP        1 X    SEC  0     **** SEC X 2
     3 LYC4        6 GROUP        1 X    LYC  0     **** LYC X 4
     4 ZIC7       14 GROUP        1 X    ZIC  0     **** ZIC X 5
     5 GLC5       34 GROUP        1 X    GLC  0     **** GLC X 6
     6 ALP1       45 GROUP        1 Y    ALP  0     ROOT ALP Y 8
     7 SEP2        3 GROUP        1 Y    SEP  0     **** SEP Y 9
     8 LYP4        8 GROUP        1 Y    LYP  0     **** LYP Y 11
     9 ZIP7       16 GROUP        1 Y    ZIP  0     **** ZIP Y 12
    10 GLP5       36 GROUP        1 Y    GLP  0     **** GLP Y 13
    11 ALL1       44 GROUP        1 Z    ALL  0     ROOT ALL Z 15
    12 SEL2        2 GROUP        1 Z    SEL  0     **** SEL Z 16
    13 LYL4        7 GROUP        1 Z    LYL  0     **** LYL Z 18
    14 ZIL7       15 GROUP        1 Z    ZIL  0     **** ZIL Z 19
    15 GLL5       35 GROUP        1 Z    GLL  0     **** GLL Z 20
@<TRIPOS>SET

