#    Name: 3ruv_ANP_2_ligand
#    Modification time : Mon Apr  7 21:31:48 2014

@<TRIPOS>MOLECULE
3ruv_ANP_2_ligand
   43    45     1     0     0
SMALL
NO_CHARGES


@<TRIPOS>ATOM
      1 PG         14.7450   48.6470  -21.3700 P.3       1 ANP545      0.0000 
      2 O1G        13.6360   48.2750  -22.3770 O.co2     1 ANP545      0.0000 
      3 O2G        15.2050   47.3380  -20.6070 O.co2     1 ANP545      0.0000 
      4 O3G        15.9110   49.2620  -22.0690 O.co2     1 ANP545      0.0000 
      5 PB         14.3480   51.2390  -20.1290 P.3       1 ANP545      0.0000 
      6 O1B        14.7470   51.7420  -21.5550 O.co2     1 ANP545      0.0000 
      7 O2B        13.0160   51.8560  -19.7490 O.co2     1 ANP545      0.0000 
      8 N3B        14.1710   49.6100  -20.1300 N.4       1 ANP545      0.0000 
      9 PA         16.9010   51.6690  -19.0170 P.3       1 ANP545      0.0000 
     10 O1A        17.3510   51.1410  -20.3490 O.co2     1 ANP545      0.0000 
     11 O2A        17.4820   50.8000  -17.9500 O.co2     1 ANP545      0.0000 
     12 O3A        15.2940   51.7560  -18.9770 O.3       1 ANP545      0.0000 
     13 O5'        17.4110   53.1130  -18.8040 O.3       1 ANP545      0.0000 
     14 C5'        16.8440   54.1900  -19.4790 C.3       1 ANP545      0.0000 
     15 C4'        16.7170   55.4290  -18.7190 C.3       1 ANP545      0.0000 
     16 O4'        18.0260   55.9030  -18.2790 O.3       1 ANP545      0.0000 
     17 C3'        16.1240   56.5220  -19.5230 C.3       1 ANP545      0.0000 
     18 O3'        15.2680   57.1920  -18.6950 O.3       1 ANP545      0.0000 
     19 C2'        17.2490   57.3780  -19.8960 C.3       1 ANP545      0.0000 
     20 O2'        16.9320   58.6910  -20.0640 O.3       1 ANP545      0.0000 
     21 C1'        18.1780   57.2140  -18.7410 C.3       1 ANP545      0.0000 
     22 N9         19.6240   57.7010  -18.9760 N.pl3     1 ANP545      0.0000 
     23 C8         20.3750   57.3120  -20.0150 C.2       1 ANP545      0.0000 
     24 N7         21.5670   57.9210  -19.9370 N.2       1 ANP545      0.0000 
     25 C5         21.5820   58.6990  -18.8460 C.ar      1 ANP545      0.0000 
     26 C6         22.5270   59.5330  -18.2700 C.ar      1 ANP545      0.0000 
     27 N6         23.7970   59.6710  -18.9000 N.pl3     1 ANP545      0.0000 
     28 N1         22.2320   60.1860  -17.1310 N.ar      1 ANP545      0.0000 
     29 C2         21.0320   60.0380  -16.5490 C.ar      1 ANP545      0.0000 
     30 N3         20.1020   59.2320  -17.0840 N.ar      1 ANP545      0.0000 
     31 C4         20.3380   58.5620  -18.2270 C.ar      1 ANP545      0.0000 
     32 H          15.8172   53.9165  -19.8764 H         1 ANP545      0.0000 
     33 H          17.4252   54.4185  -20.4262 H         1 ANP545      0.0000 
     34 H          16.0930   55.2705  -17.8435 H         1 ANP545      0.0000 
     35 H          15.6702   56.1102  -20.3803 H         1 ANP545      0.0000 
     36 H          17.7455   56.9324  -20.7529 H         1 ANP545      0.0000 
     37 H          17.7531   57.9098  -17.9316 H         1 ANP545      0.0000 
     38 H          20.1017   56.6913  -20.7103 H         1 ANP545      0.0000 
     39 H          24.4665   60.2387  -18.4209 H         1 ANP545      0.0000 
     40 H          23.9122   59.1886  -19.7683 H         1 ANP545      0.0000 
     41 H          20.8178   60.5599  -15.6630 H         1 ANP545      0.0000 
     42 H          15.5092   58.1568  -18.7995 H         1 ANP545      0.0000 
     43 H          16.9330   58.8327  -21.0539 H         1 ANP545      0.0000 
@<TRIPOS>BOND
     1    2    1 ar   
     2    3    1 ar   
     3    4    1 ar   
     4    8    1 1    
     5    6    5 ar   
     6    7    5 ar   
     7    8    5 1    
     8   12    5 1    
     9   10    9 ar   
    10   11    9 ar   
    11   12    9 1    
    12   13    9 1    
    13   14   13 1    
    14   15   14 1    
    15   32   14 1    
    16   33   14 1    
    17   16   15 1    
    18   17   15 1    
    19   34   15 1    
    20   21   16 1    
    21   18   17 1    
    22   19   17 1    
    23   35   17 1    
    24   42   18 1    
    25   20   19 1    
    26   21   19 1    
    27   36   19 1    
    28   43   20 1    
    29   22   21 1    
    30   37   21 1    
    31   23   22 1    
    32   31   22 1    
    33   24   23 2    
    34   38   23 1    
    35   25   24 1    
    36   26   25 ar   
    37   31   25 ar   
    38   27   26 1    
    39   28   26 ar   
    40   39   27 1    
    41   40   27 1    
    42   29   28 ar   
    43   30   29 ar   
    44   41   29 1    
    45   31   30 ar   
@<TRIPOS>SUBSTRUCTURE
     1 ANP545      1 GROUP   
@<TRIPOS>SET

