#    Name: 1drh_NAP_1_INTS_M
#    Modification time : Mon Mar 24 22:24:07 2014

@<TRIPOS>MOLECULE
1drh_NAP_1_INTS_M
  107     0    12     0     0
SMALL
NO_CHARGES


@<TRIPOS>ATOM
      1 N          19.1860   26.9210   28.6640 N.am      2 SEC2        0.0000 
      2 N          17.9450   27.4080   28.8630 N.am     10 SEL2        0.0000 
      3 N          20.4270   26.4340   28.4650 N.am      6 SEP2        0.0000 
      4 N          18.2480   26.4710   29.6125 N.am      2 SEC2        0.0000 
      5 N          18.5510   25.5340   30.3620 N.am      6 SEP2        0.0000 
      6 N          16.9685   26.6835   29.7480 N.am      2 SEC2        0.0000 
      7 N          15.9920   25.9590   30.6330 N.am      6 SEP2        0.0000 
      8 N          18.6845   28.1605   26.4085 N.am      2 SEC2        0.0000 
      9 N          17.3600   28.7080   26.8400 N.am     10 SEL2        0.0000 
     10 N          20.0090   27.6130   25.9770 N.am      6 SEP2        0.0000 
     11 CA         16.5685   27.3915   26.0860 C.3       4 GLC5        0.0000 
     12 CA         16.4790   29.5400   26.0500 C.3      12 GLL5        0.0000 
     13 CA         16.6580   25.2430   26.1220 C.3       8 GLP5        0.0000 
     14 CA         18.2010   28.2110   23.6545 C.3       4 GLC5        0.0000 
     15 CA         16.7760   29.5110   24.5720 C.3      12 GLL5        0.0000 
     16 CA         19.6260   26.9110   22.7370 C.3       8 GLP5        0.0000 
     17 N          17.1535   27.2335   24.3475 N.am      2 SEC2        0.0000 
     18 N          16.0210   28.4010   24.0530 N.am     10 SEL2        0.0000 
     19 N          18.2860   26.0660   24.6420 N.am      6 SEP2        0.0000 
     20 N          18.8175   29.6705   21.5375 N.am      2 SEC2        0.0000 
     21 N          17.1160   29.6520   21.8850 N.am     10 SEL2        0.0000 
     22 N          20.5190   29.6890   21.1900 N.am      6 SEP2        0.0000 
     23 CA         14.7490   26.6045   22.6350 C.3       4 GLC5        0.0000 
     24 CA         15.4600   28.6830   22.8610 C.3      12 GLL5        0.0000 
     25 CA         14.0380   24.5260   22.4090 C.3       8 GLP5        0.0000 
     26 CA         16.0445   27.5840   21.0960 C.3       4 GLC5        0.0000 
     27 CA         16.6290   26.4850   19.3310 C.3       8 GLP5        0.0000 
     28 N          10.8600   28.8125   24.6105 N.am      2 SEC2        0.0000 
     29 N          11.9970   28.2380   23.6920 N.am     10 SEL2        0.0000 
     30 N           9.7230   29.3870   25.5290 N.am      6 SEP2        0.0000 
     31 CA         11.5720   25.6720   21.3360 C.3       4 GLC5        0.0000 
     32 CA         11.0500   27.6740   21.4110 C.3      12 GLL5        0.0000 
     33 CA         12.0940   23.6700   21.2610 C.3       8 GLP5        0.0000 
     34 CA         13.4115   26.1160   21.1335 C.3       4 GLC5        0.0000 
     35 CA         12.7850   27.7060   19.8580 C.3      12 GLL5        0.0000 
     36 CA         14.7070   27.0955   19.5945 C.3       4 GLC5        0.0000 
     37 CA         14.0945   28.2280   18.2090 C.3       4 GLC5        0.0000 
     38 CA         15.4040   28.7500   16.5600 C.3       8 GLP5        0.0000 
     39 CA         12.4925   26.1640   18.2850 C.3       4 GLC5        0.0000 
     40 CA         12.2000   24.6220   16.7120 C.3       8 GLP5        0.0000 
     41 CA         14.9910   27.3225   20.6055 C.3       4 GLC5        0.0000 
     42 CA         13.3530   28.1600   21.8800 C.3      12 GLL5        0.0000 
     43 N          14.2955   30.7175   30.2285 N.am      2 SEC2        0.0000 
     44 N          15.6360   30.9580   30.1490 N.am     10 SEL2        0.0000 
     45 N          12.9550   30.4770   30.3080 N.am      6 SEP2        0.0000 
     46 N          16.2845   29.3870   31.6665 N.am      2 SEC2        0.0000 
     47 N          17.6180   29.7330   31.1390 N.am     10 SEL2        0.0000 
     48 N          14.9510   29.0410   32.1940 N.am      6 SEP2        0.0000 
     49 CA         19.6050   29.6390   29.5930 C.3       4 GLC5        0.0000 
     50 CA         19.1560   29.9620   31.4490 C.3      12 GLL5        0.0000 
     51 CA         20.0540   29.3160   27.7370 C.3       8 GLP5        0.0000 
     52 CA         17.7960   30.9290   33.6745 C.3       4 GLC5        0.0000 
     53 CA         19.4310   29.7350   33.0350 C.3      12 GLL5        0.0000 
     54 CA         16.1610   32.1230   34.3140 C.3       8 GLP5        0.0000 
     55 CA         22.4105   30.3185   33.0445 C.3       4 GLC5        0.0000 
     56 CA         20.8340   29.4110   33.4110 C.3      12 GLL5        0.0000 
     57 CA         23.9870   31.2260   32.6780 C.3       8 GLP5        0.0000 
     58 O          22.3995   28.8150   35.9010 O.2       1 ALC1        0.0000 
     59 O          21.8530   27.8080   34.7040 O.2       9 ALL1        0.0000 
     60 O          22.9460   29.8220   37.0980 O.2       5 ALP1        0.0000 
     61 CA         19.9880   29.4430   36.0940 C.3       4 GLC5        0.0000 
     62 CA         19.5930   27.9410   34.4740 C.3      12 GLL5        0.0000 
     63 CA         20.3830   30.9450   37.7140 C.3       8 GLP5        0.0000 
     64 CA         16.8965   27.5755   36.1955 C.3       4 GLC5        0.0000 
     65 CA         18.5990   26.2250   36.1050 C.3      12 GLL5        0.0000 
     66 CA         15.1940   28.9260   36.2860 C.3       8 GLP5        0.0000 
     67 N          16.3110   23.6465   39.3755 N.am      2 SEC2        0.0000 
     68 N          16.9410   23.9330   38.2490 N.am     10 SEL2        0.0000 
     69 N          15.6810   23.3600   40.5020 N.am      6 SEP2        0.0000 
     70 O          17.4460   25.8490   39.9965 O.2       1 ALC1        0.0000 
     71 O          18.0860   25.7620   38.6730 O.2       9 ALL1        0.0000 
     72 O          16.8060   25.9360   41.3200 O.2       5 ALP1        0.0000 
     73 O          18.5800   27.2145   38.4735 O.2       1 ALC1        0.0000 
     74 O          19.0740   28.6670   38.2740 O.2       5 ALP1        0.0000 
     75 CA         17.4065   26.3800   32.6905 C.3       4 GLC5        0.0000 
     76 CA         18.6760   25.7330   33.7830 C.3      12 GLL5        0.0000 
     77 CA         16.1370   27.0270   31.5980 C.3       8 GLP5        0.0000 
     78 N          19.3010   29.3040   20.4335 N.am      2 SEC2        0.0000 
     79 N          18.0830   28.9190   19.6770 N.am     10 SEL2        0.0000 
     80 N          18.4280   28.0025   19.0960 N.am      2 SEC2        0.0000 
     81 N          18.7730   27.0860   18.5150 N.am      6 SEP2        0.0000 
     82 N          17.0435   28.5455   18.7200 N.am      2 SEC2        0.0000 
     83 N          16.0040   28.1720   17.7630 N.am      6 SEP2        0.0000 
     84 N          16.0635   29.4215   18.8690 N.am      2 SEC2        0.0000 
     85 N          16.1230   30.6710   19.9750 N.am     10 SEL2        0.0000 
     86 N          16.2750   30.8475   18.3635 N.am      2 SEC2        0.0000 
     87 N          16.4270   31.0240   16.7520 N.am      6 SEP2        0.0000 
     88 NZ         19.5170   31.5495   21.1860 N.4       3 LYC4        0.0000 
     89 NZ         18.5540   31.1580   20.7080 N.4      11 LYL4        0.0000 
     90 NZ         21.1500   30.7800   21.6530 N.4       7 LYP4        0.0000 
     91 N          19.5365   30.4235   20.9490 N.am      2 SEC2        0.0000 
     92 N          18.5540   31.1580   20.7080 N.am     10 SEL2        0.0000 
     93 N          19.5170   31.5495   21.1860 N.am      2 SEC2        0.0000 
     94 N          20.4800   31.9410   21.6640 N.am      6 SEP2        0.0000 
     95 CA         18.3492   29.9838   26.0525 C.3       4 GLC5        0.0000 
     96 CA         20.0710   30.4420   26.7940 C.3       8 GLP5        0.0000 
     97 CA         13.3697   26.3053   22.2602 C.3       4 GLC5        0.0000 
     98 CA         17.7152   28.4378   31.9200 C.3       4 GLC5        0.0000 
     99 CA         19.8895   24.9835   37.2343 C.3       4 GLC5        0.0000 
    100 CA         21.4580   24.3230   38.2190 C.3       8 GLP5        0.0000 
    101 CA         16.4030   24.3445   33.3975 C.3       4 GLC5        0.0000 
    102 CA         17.7080   24.0460   35.2880 C.3      12 GLL5        0.0000 
    103 CA         14.8880   24.3800   32.2090 C.3       8 GLP5        0.0000 
    104 CA         19.0805   24.2703   32.1183 C.3       4 GLC5        0.0000 
    105 CA         18.1280   24.5720   33.8840 C.3      12 GLL5        0.0000 
    106 CA         19.7590   23.3880   30.4030 C.3       8 GLP5        0.0000 
    107 CA         16.9573   25.4280   32.8685 C.3       4 GLC5        0.0000 
@<TRIPOS>BOND
@<TRIPOS>SUBSTRUCTURE
     1 ALC1       58 GROUP        1 X    ALC  0     ROOT ALC X 1
     2 SEC2        1 GROUP        1 X    SEC  0     **** SEC X 2
     3 LYC4       88 GROUP        1 X    LYC  0     **** LYC X 4
     4 GLC5       11 GROUP        1 X    GLC  0     **** GLC X 6
     5 ALP1       60 GROUP        1 Y    ALP  0     ROOT ALP Y 8
     6 SEP2        3 GROUP        1 Y    SEP  0     **** SEP Y 9
     7 LYP4       90 GROUP        1 Y    LYP  0     **** LYP Y 11
     8 GLP5       13 GROUP        1 Y    GLP  0     **** GLP Y 13
     9 ALL1       59 GROUP        1 Z    ALL  0     ROOT ALL Z 15
    10 SEL2        2 GROUP        1 Z    SEL  0     **** SEL Z 16
    11 LYL4       89 GROUP        1 Z    LYL  0     **** LYL Z 18
    12 GLL5       12 GROUP        1 Z    GLL  0     **** GLL Z 20
@<TRIPOS>SET

