#    Name: 1drh_NAP_1_ligand
#    Modification time : Mon Mar 24 22:24:07 2014

@<TRIPOS>MOLECULE
1drh_NAP_1_ligand
   73    77     1     0     0
SMALL
NO_CHARGES


@<TRIPOS>ATOM
      1 PA         16.9600   28.3880   28.3300 P.3       1 NAP164      0.0000 
      2 O1A        15.5160   28.2110   28.4980 O.co2     1 NAP164      0.0000 
      3 O2A        17.9450   27.4080   28.8630 O.co2     1 NAP164      0.0000 
      4 O5B        17.3600   28.7080   26.8400 O.3       1 NAP164      0.0000 
      5 C5B        16.4790   29.5400   26.0500 C.3       1 NAP164      0.0000 
      6 C4B        16.7760   29.5110   24.5720 C.3       1 NAP164      0.0000 
      7 O4B        16.0210   28.4010   24.0530 O.3       1 NAP164      0.0000 
      8 C3B        16.2240   30.6780   23.7650 C.3       1 NAP164      0.0000 
      9 O3B        17.1930   31.6890   23.5640 O.3       1 NAP164      0.0000 
     10 C2B        15.8810   30.0090   22.4550 C.3       1 NAP164      0.0000 
     11 O2B        17.1160   29.6520   21.8850 O.3       1 NAP164      0.0000 
     12 C1B        15.4600   28.6830   22.8610 C.3       1 NAP164      0.0000 
     13 N9A        14.0950   28.4900   22.9410 N.pl3     1 NAP164      0.0000 
     14 C8A        13.2440   28.5160   23.9790 C.2       1 NAP164      0.0000 
     15 N7A        11.9970   28.2380   23.6920 N.2       1 NAP164      0.0000 
     16 C5A        12.0500   28.0090   22.3430 C.ar      1 NAP164      0.0000 
     17 C6A        11.0500   27.6740   21.4110 C.ar      1 NAP164      0.0000 
     18 N6A         9.7420   27.4880   21.7150 N.pl3     1 NAP164      0.0000 
     19 N1A        11.4710   27.5220   20.1460 N.ar      1 NAP164      0.0000 
     20 C2A        12.7850   27.7060   19.8580 C.ar      1 NAP164      0.0000 
     21 N3A        13.8090   28.0350   20.6470 N.ar      1 NAP164      0.0000 
     22 C4A        13.3530   28.1600   21.8800 C.ar      1 NAP164      0.0000 
     23 O3         17.4340   29.8120   28.7000 O.3       1 NAP164      0.0000 
     24 PN         17.1360   30.7740   29.9890 P.3       1 NAP164      0.0000 
     25 O1N        15.6360   30.9580   30.1490 O.co2     1 NAP164      0.0000 
     26 O2N        18.1510   31.9340   29.9320 O.co2     1 NAP164      0.0000 
     27 O5D        17.6180   29.7330   31.1390 O.3       1 NAP164      0.0000 
     28 C5D        19.1560   29.9620   31.4490 C.3       1 NAP164      0.0000 
     29 C4D        19.4310   29.7350   33.0350 C.3       1 NAP164      0.0000 
     30 O4D        18.8140   28.4710   33.4630 O.3       1 NAP164      0.0000 
     31 C3D        20.8340   29.4110   33.4110 C.3       1 NAP164      0.0000 
     32 O3D        21.3520   30.1770   34.3850 O.3       1 NAP164      0.0000 
     33 C2D        20.8010   27.9360   33.8720 C.3       1 NAP164      0.0000 
     34 O2D        21.8530   27.8080   34.7040 O.3       1 NAP164      0.0000 
     35 C1D        19.5930   27.9410   34.4740 C.3       1 NAP164      0.0000 
     36 N1N        18.9590   26.6220   34.8040 N.pl3     1 NAP164      0.0000 
     37 C2N        18.5990   26.2250   36.1050 C.ar      1 NAP164      0.0000 
     38 C3N        18.0430   25.0630   36.3940 C.ar      1 NAP164      0.0000 
     39 C7N        17.7320   24.8180   37.8080 C.2       1 NAP164      0.0000 
     40 O7N        16.9410   23.9330   38.2490 O.2       1 NAP164      0.0000 
     41 N7N        18.0860   25.7620   38.6730 N.am      1 NAP164      0.0000 
     42 C4N        17.7080   24.0460   35.2880 C.ar      1 NAP164      0.0000 
     43 C5N        18.1280   24.5720   33.8840 C.ar      1 NAP164      0.0000 
     44 C6N        18.6760   25.7330   33.7830 C.ar      1 NAP164      0.0000 
     45 P2B        17.4570   30.1390   20.4330 P.3       1 NAP164      0.0000 
     46 O1X        18.0830   28.9190   19.6770 O.co2     1 NAP164      0.0000 
     47 O2X        16.1230   30.6710   19.9750 O.co2     1 NAP164      0.0000 
     48 O3X        18.5540   31.1580   20.7080 O.co2     1 NAP164      0.0000 
     49 H          16.5315   30.5981   26.3920 H         1 NAP164      0.0000 
     50 H          15.4189   29.2330   26.1952 H         1 NAP164      0.0000 
     51 H          17.7949   29.3812   24.3796 H         1 NAP164      0.0000 
     52 H          15.3296   31.0042   24.2176 H         1 NAP164      0.0000 
     53 H          15.2510   30.4912   21.9014 H         1 NAP164      0.0000 
     54 H          15.8826   27.9663   22.0979 H         1 NAP164      0.0000 
     55 H          13.5637   28.7392   24.9216 H         1 NAP164      0.0000 
     56 H           9.5011   27.5570   22.6831 H         1 NAP164      0.0000 
     57 H           9.1338   27.2983   20.9442 H         1 NAP164      0.0000 
     58 H          13.0426   27.5553   18.7816 H         1 NAP164      0.0000 
     59 H          19.4219   30.9669   31.2103 H         1 NAP164      0.0000 
     60 H          19.7382   29.2495   30.9096 H         1 NAP164      0.0000 
     61 H          19.0567   30.5275   33.5857 H         1 NAP164      0.0000 
     62 H          21.4305   29.4023   32.4916 H         1 NAP164      0.0000 
     63 H          20.8370   27.3713   32.9871 H         1 NAP164      0.0000 
     64 H          19.5420   28.5855   35.3286 H         1 NAP164      0.0000 
     65 H          18.8017   26.9290   36.8785 H         1 NAP164      0.0000 
     66 H          18.5336   26.5681   38.2859 H         1 NAP164      0.0000 
     67 H          17.8729   25.5813   39.6332 H         1 NAP164      0.0000 
     68 H          17.3141   23.2369   35.4278 H         1 NAP164      0.0000 
     69 H          17.9206   23.9157   33.1311 H         1 NAP164      0.0000 
     70 H          18.9653   26.0912   32.7854 H         1 NAP164      0.0000 
     71 H          17.6059   31.4790   22.6778 H         1 NAP164      0.0000 
     72 H          20.5917   30.7458   34.6987 H         1 NAP164      0.0000 
     73 H          22.1888   28.7398   34.8416 H         1 NAP164      0.0000 
@<TRIPOS>BOND
     1    2    1 ar   
     2    3    1 ar   
     3    4    1 1    
     4   23    1 1    
     5    5    4 1    
     6    6    5 1    
     7   49    5 1    
     8   50    5 1    
     9    7    6 1    
    10    8    6 1    
    11   51    6 1    
    12   12    7 1    
    13    9    8 1    
    14   10    8 1    
    15   52    8 1    
    16   71    9 1    
    17   11   10 1    
    18   12   10 1    
    19   53   10 1    
    20   45   11 1    
    21   13   12 1    
    22   54   12 1    
    23   14   13 1    
    24   22   13 1    
    25   15   14 2    
    26   55   14 1    
    27   16   15 1    
    28   17   16 ar   
    29   22   16 ar   
    30   18   17 1    
    31   19   17 ar   
    32   56   18 1    
    33   57   18 1    
    34   20   19 ar   
    35   21   20 ar   
    36   58   20 1    
    37   22   21 ar   
    38   24   23 1    
    39   25   24 ar   
    40   26   24 ar   
    41   27   24 1    
    42   28   27 1    
    43   29   28 1    
    44   59   28 1    
    45   60   28 1    
    46   30   29 1    
    47   31   29 1    
    48   61   29 1    
    49   35   30 1    
    50   32   31 1    
    51   33   31 1    
    52   62   31 1    
    53   72   32 1    
    54   34   33 1    
    55   35   33 1    
    56   63   33 1    
    57   73   34 1    
    58   36   35 1    
    59   64   35 1    
    60   37   36 ar   
    61   44   36 ar   
    62   38   37 ar   
    63   65   37 1    
    64   39   38 1    
    65   42   38 ar   
    66   40   39 2    
    67   41   39 am   
    68   66   41 1    
    69   67   41 1    
    70   43   42 ar   
    71   68   42 1    
    72   44   43 ar   
    73   69   43 1    
    74   70   44 1    
    75   46   45 ar   
    76   47   45 ar   
    77   48   45 ar   
@<TRIPOS>SUBSTRUCTURE
     1 NAP164      1 GROUP   
@<TRIPOS>SET

