#    Name: 3N71_1_CAVITY_N1_6.mol2
#    Modification time : Tue Mar 11 16:04:44 2014

@<TRIPOS>MOLECULE
3N71_1_CAVITY_N1_6.mol2
  101     0     5     0     0
SMALL
NO_CHARGES


@<TRIPOS>ATOM
      1 N          53.6628   66.0511   38.1373 N.2       2 ALA2        0.0000 
      2 OG         54.2271   64.6906   38.4212 O.2       1 SER1        0.0000 
      3 OG         52.9547   64.0616   37.9360 O.2       1 SER1        0.0000 
      4 OG         53.5190   62.7011   38.2199 O.2       1 SER1        0.0000 
      5 N          51.1181   64.7932   37.1668 N.2       2 ALA2        0.0000 
      6 N          48.1529   68.2457   35.8298 N.2       2 ALA2        0.0000 
      7 O          46.1725   65.6272   35.1432 O.2       2 ALA2        0.0000 
      8 N          44.3358   66.3588   34.3740 N.2       2 ALA2        0.0000 
      9 OG         54.7863   64.6323   37.0306 O.2       1 SER1        0.0000 
     10 CA         52.3854   66.7244   35.9775 C.3       4 GLY6        0.0000 
     11 N          52.9496   65.3639   36.2614 N.2       2 ALA2        0.0000 
     12 OG         53.5139   64.0033   36.5453 O.2       1 SER1        0.0000 
     13 CA         49.9845   68.8164   34.9244 C.3       4 GLY6        0.0000 
     14 CA         50.5487   67.4559   35.2083 C.3       4 GLY6        0.0000 
     15 N          51.1130   66.0954   35.4922 N.2       2 ALA2        0.0000 
     16 CA         51.6773   64.7349   35.7761 C.3       4 GLY6        0.0000 
     17 N          48.1478   69.5479   34.1552 N.2       2 ALA2        0.0000 
     18 CA         48.7121   68.1874   34.4391 C.3       4 GLY6        0.0000 
     19 N          49.2764   66.8269   34.7230 N.2       2 ALA2        0.0000 
     20 N          49.8406   65.4664   35.0070 N.2       2 ALA2        0.0000 
     21 O          47.4397   67.5584   33.9539 O.2       2 ALA2        0.0000 
     22 N          48.0040   66.1979   34.2378 N.2       2 ALA2        0.0000 
     23 N          46.1674   66.9294   33.4686 N.2       2 ALA2        0.0000 
     24 N          46.7316   65.5689   33.7525 N.2       2 ALA2        0.0000 
     25 CZ         51.5182   65.2915   30.8350 C.ar      3 PHE5        0.0000 
     26 O          52.0825   63.9310   31.1189 O.2       2 ALA2        0.0000 
     27 CA         47.9887   70.1045   29.2140 C.3       4 GLY6        0.0000 
     28 N          48.5530   68.7440   29.4980 N.2       2 ALA2        0.0000 
     29 CZ         49.1173   67.3835   29.7819 C.ar      3 PHE5        0.0000 
     30 OG         49.6815   66.0230   30.0658 O.2       1 SER1        0.0000 
     31 N          50.2458   64.6625   30.3497 N.2       2 ALA2        0.0000 
     32 CA         46.7164   69.4756   28.7288 C.3       4 GLY6        0.0000 
     33 O          47.2806   68.1151   29.0127 O.2       2 ALA2        0.0000 
     34 OG         47.8449   66.7545   29.2966 O.2       1 SER1        0.0000 
     35 OG         48.4092   65.3940   29.5806 O.2       1 SER1        0.0000 
     36 CA         45.4440   68.8466   28.2435 C.3       4 GLY6        0.0000 
     37 CA         46.0083   67.4861   28.5275 C.3       4 GLY6        0.0000 
     38 OG         46.5725   66.1256   28.8114 O.2       1 SER1        0.0000 
     39 OG         47.1368   64.7651   29.0953 O.2       1 SER1        0.0000 
     40 CA         44.7359   66.8571   28.0422 C.3       4 GLY6        0.0000 
     41 N          45.3002   65.4966   28.3261 N.2       2 ALA2        0.0000 
     42 N          45.8645   64.1361   28.6101 N.2       2 ALA2        0.0000 
     43 CZ         49.1122   68.6857   28.1073 C.ar      3 PHE5        0.0000 
     44 N          47.2755   69.4173   27.3381 N.2       2 ALA2        0.0000 
     45 CZ         47.8398   68.0568   27.6221 C.ar      3 PHE5        0.0000 
     46 CZ         48.4041   66.6962   27.9060 C.ar      3 PHE5        0.0000 
     47 N          46.5675   67.4278   27.1368 N.2       2 ALA2        0.0000 
     48 OG         47.1317   66.0673   27.4207 O.2       1 SER1        0.0000 
     49 N          45.2951   66.7988   26.6516 N.2       2 ALA2        0.0000 
     50 N          45.8594   65.4383   26.9355 N.2       2 ALA2        0.0000 
     51 CZ         48.3990   67.9985   26.2314 C.ar      3 PHE5        0.0000 
     52 N          47.1266   67.3695   25.7462 N.2       2 ALA2        0.0000 
     53 OG         47.6909   66.0090   26.0301 O.2       1 SER1        0.0000 
     54 CZ         53.5088   65.3056   34.8707 C.ar      3 PHE5        0.0000 
     55 OG         54.0731   63.9450   35.1547 O.2       1 SER1        0.0000 
     56 CZ         51.6722   66.0371   34.1016 C.ar      3 PHE5        0.0000 
     57 CZ         52.2365   64.6766   34.3855 C.ar      3 PHE5        0.0000 
     58 CA         52.8007   63.3161   34.6694 C.3       4 GLY6        0.0000 
     59 N          48.7070   69.4896   32.7645 N.2       2 ALA2        0.0000 
     60 CA         49.2713   68.1291   33.0484 C.3       4 GLY6        0.0000 
     61 CA         49.8355   66.7686   33.3324 C.3       4 GLY6        0.0000 
     62 CA         50.3998   65.4081   33.6163 C.3       4 GLY6        0.0000 
     63 CA         50.9641   64.0476   33.9002 C.3       4 GLY6        0.0000 
     64 O          47.9989   67.5001   32.5632 O.2       2 ALA2        0.0000 
     65 N          48.5632   66.1396   32.8471 N.2       2 ALA2        0.0000 
     66 N          49.1275   64.7791   33.1311 N.2       2 ALA2        0.0000 
     67 O          46.7265   66.8711   32.0779 O.2       2 ALA2        0.0000 
     68 N          47.2908   65.5106   32.3619 N.2       2 ALA2        0.0000 
     69 N          46.0185   64.8816   31.8766 N.2       2 ALA2        0.0000 
     70 N          44.7461   64.2527   31.3914 N.2       2 ALA2        0.0000 
     71 N          42.9095   64.9842   30.6222 N.2       2 ALA2        0.0000 
     72 N          43.4737   63.6237   30.9061 N.2       2 ALA2        0.0000 
     73 O          41.6371   64.3552   30.1369 O.2       2 ALA2        0.0000 
     74 CA         42.2014   62.9947   30.4209 C.3       4 GLY6        0.0000 
     75 CZ         54.6323   63.8867   33.7640 C.ar      3 PHE5        0.0000 
     76 O          55.1965   62.5262   34.0479 O.2       2 ALA2        0.0000 
     77 CZ         52.7956   64.6183   32.9948 C.ar      3 PHE5        0.0000 
     78 CZ         53.3599   63.2578   33.2788 C.ar      3 PHE5        0.0000 
     79 CA         53.9242   61.8973   33.5627 C.3       4 GLY6        0.0000 
     80 CZ         49.8305   68.0708   31.6578 C.ar      3 PHE5        0.0000 
     81 CZ         50.3947   66.7103   31.9417 C.ar      3 PHE5        0.0000 
     82 CZ         50.9590   65.3498   32.2257 C.ar      3 PHE5        0.0000 
     83 CZ         51.5233   63.9893   32.5096 C.ar      3 PHE5        0.0000 
     84 CA         52.0875   62.6288   32.7935 C.3       4 GLY6        0.0000 
     85 CA         52.6518   61.2683   33.0774 C.3       4 GLY6        0.0000 
     86 N          47.9938   68.8023   30.8886 N.2       2 ALA2        0.0000 
     87 O          48.5581   67.4418   31.1725 O.2       2 ALA2        0.0000 
     88 N          49.1224   66.0813   31.4565 N.2       2 ALA2        0.0000 
     89 N          49.6866   64.7208   31.7404 N.2       2 ALA2        0.0000 
     90 N          50.2509   63.3603   32.0243 N.2       2 ALA2        0.0000 
     91 O          47.2857   66.8128   30.6873 O.2       2 ALA2        0.0000 
     92 N          47.8500   65.4523   30.9712 N.2       2 ALA2        0.0000 
     93 N          46.0134   66.1839   30.2020 N.2       2 ALA2        0.0000 
     94 N          46.5776   64.8233   30.4860 N.2       2 ALA2        0.0000 
     95 N          44.7410   65.5549   29.7168 N.2       2 ALA2        0.0000 
     96 N          45.3053   64.1944   30.0007 N.2       2 ALA2        0.0000 
     97 N          43.4686   64.9259   29.2315 N.2       2 ALA2        0.0000 
     98 N          44.0329   63.5654   29.5155 N.2       2 ALA2        0.0000 
     99 N          42.1963   64.2969   28.7463 N.2       2 ALA2        0.0000 
    100 N          53.9191   63.1995   31.8881 N.2       2 ALA2        0.0000 
    101 DU         52.9598   62.7594   39.6106 H         5 CUB7        0.0000 
@<TRIPOS>BOND
@<TRIPOS>SUBSTRUCTURE
     1 SER1        2 GROUP   
     2 ALA2        1 GROUP   
     3 PHE5       25 GROUP   
     4 GLY6       10 GROUP   
     5 CUB7      101 GROUP   
@<TRIPOS>SET

