#    Name: 3n71_SFG_1_INTS_M
#    Modification time : Tue Mar 25 00:44:09 2014

@<TRIPOS>MOLECULE
3n71_SFG_1_INTS_M
   63     0    12     0     0
SMALL
NO_CHARGES


@<TRIPOS>ATOM
      1 O          45.1115   62.4205   31.9290 O.2       1 ALC1        0.0000 
      2 O          45.3420   63.7340   31.7750 O.2       9 ALL1        0.0000 
      3 O          44.8810   61.1070   32.0830 O.2       5 ALP1        0.0000 
      4 O          46.5950   63.0940   31.3710 O.2       1 ALC1        0.0000 
      5 O          47.8480   62.4540   30.9670 O.2       5 ALP1        0.0000 
      6 NZ         40.3915   64.1160   30.5640 N.4       3 LYC4        0.0000 
      7 NZ         42.1090   64.4880   30.0210 N.4      11 LYL4        0.0000 
      8 NZ         38.6740   63.7440   31.1070 N.4       7 LYP4        0.0000 
      9 NZ         40.9560   63.6555   32.0625 N.4       3 LYC4        0.0000 
     10 NZ         42.4660   64.1310   32.0980 N.4      11 LYL4        0.0000 
     11 N          42.8965   63.1420   33.1220 N.am      2 SEC2        0.0000 
     12 N          42.4660   64.1310   32.0980 N.am     10 SEL2        0.0000 
     13 N          43.3270   62.1530   34.1460 N.am      6 SEP2        0.0000 
     14 N          40.9560   63.6555   32.0625 N.am      2 SEC2        0.0000 
     15 N          39.4460   63.1800   32.0270 N.am      6 SEP2        0.0000 
     16 N          43.2750   65.6325   32.0450 N.am      2 SEC2        0.0000 
     17 N          44.0840   67.1340   31.9920 N.am      6 SEP2        0.0000 
     18 CA         44.0855   67.1330   28.8960 C.3       4 GLC5        0.0000 
     19 CA         45.5350   65.6830   28.0300 C.3      12 GLL5        0.0000 
     20 CA         42.6360   68.5830   29.7620 C.3       8 GLP5        0.0000 
     21 CA         47.3630   70.0750   30.2265 C.3       4 GLC5        0.0000 
     22 CA         48.1630   68.0420   29.8840 C.3      12 GLL5        0.0000 
     23 CA         46.5630   72.1080   30.5690 C.3       8 GLP5        0.0000 
     24 CA         49.8465   69.1170   29.1595 C.3       4 GLC5        0.0000 
     25 CA         51.5300   70.1920   28.4350 C.3       8 GLP5        0.0000 
     26 N          47.2825   70.2545   30.5155 N.am      2 SEC2        0.0000 
     27 N          47.8910   69.3750   29.5040 N.am     10 SEL2        0.0000 
     28 N          46.6740   71.1340   31.5270 N.am      6 SEP2        0.0000 
     29 O          49.1965   70.1330   30.2215 O.2       1 ALC1        0.0000 
     30 O          47.8910   69.3750   29.5040 O.2       9 ALL1        0.0000 
     31 O          50.5020   70.8910   30.9390 O.2       5 ALP1        0.0000 
     32 N          47.2680   69.9830   31.8410 N.am      2 SEC2        0.0000 
     33 N          47.8620   68.8320   32.1550 N.am     10 SEL2        0.0000 
     34 O          46.5975   68.9100   32.0700 O.2       1 ALC1        0.0000 
     35 O          47.8620   68.8320   32.1550 O.2       9 ALL1        0.0000 
     36 O          45.3330   68.9880   31.9850 O.2       5 ALP1        0.0000 
     37 N          51.2580   63.0855   29.6315 N.am      2 SEC2        0.0000 
     38 N          50.9200   64.1530   30.6160 N.am     10 SEL2        0.0000 
     39 N          51.5960   62.0180   28.6470 N.am      6 SEP2        0.0000 
     40 CA         50.3590   62.5985   31.1665 C.3       4 GLC5        0.0000 
     41 CA         51.2350   64.3720   31.9650 C.3      12 GLL5        0.0000 
     42 CA         49.4830   60.8250   30.3680 C.3       8 GLP5        0.0000 
     43 CA         52.2735   64.0025   30.0070 C.3       4 GLC5        0.0000 
     44 CA         53.3120   63.6330   28.0490 C.3       8 GLP5        0.0000 
     45 CA         51.3955   62.9380   34.3015 C.3       4 GLC5        0.0000 
     46 CA         52.3060   63.9430   32.8370 C.3      12 GLL5        0.0000 
     47 CA         50.4850   61.9330   35.7660 C.3       8 GLP5        0.0000 
     48 O          53.6340   62.1555   31.3150 O.2       1 ALC1        0.0000 
     49 O          53.2980   63.0680   32.4980 O.2       9 ALL1        0.0000 
     50 O          53.9700   61.2430   30.1320 O.2       5 ALP1        0.0000 
     51 CA         50.9205   63.5875   35.1560 C.3       4 GLC5        0.0000 
     52 CA         51.3560   65.2420   34.5460 C.3      12 GLL5        0.0000 
     53 CA         51.7825   67.1355   34.1350 C.3       4 GLC5        0.0000 
     54 CA         52.2090   69.0290   33.7240 C.3       8 GLP5        0.0000 
     55 CA         49.3180   64.2410   34.1695 C.3       4 GLC5        0.0000 
     56 CA         50.3430   65.2770   32.5220 C.3      12 GLL5        0.0000 
     57 CA         48.2930   63.2050   35.8170 C.3       8 GLP5        0.0000 
     58 CA         51.2760   67.1530   33.1230 C.3       4 GLC5        0.0000 
     59 CA         44.2390   62.4585   28.0120 C.3       4 GLC5        0.0000 
     60 CA         45.8850   64.2250   28.5030 C.3      12 GLL5        0.0000 
     61 CA         43.1030   61.0520   27.0650 C.3       8 GLP5        0.0000 
     62 CA         50.3837   68.1743   30.9552 C.3       4 GLC5        0.0000 
     63 CA         52.3910   68.3740   31.3040 C.3       8 GLP5        0.0000 
@<TRIPOS>BOND
@<TRIPOS>SUBSTRUCTURE
     1 ALC1        1 GROUP        1 X    ALC  0     ROOT ALC X 1
     2 SEC2       11 GROUP        1 X    SEC  0     **** SEC X 2
     3 LYC4        6 GROUP        1 X    LYC  0     **** LYC X 4
     4 GLC5       18 GROUP        1 X    GLC  0     **** GLC X 6
     5 ALP1        3 GROUP        1 Y    ALP  0     ROOT ALP Y 8
     6 SEP2       13 GROUP        1 Y    SEP  0     **** SEP Y 9
     7 LYP4        8 GROUP        1 Y    LYP  0     **** LYP Y 11
     8 GLP5       20 GROUP        1 Y    GLP  0     **** GLP Y 13
     9 ALL1        2 GROUP        1 Z    ALL  0     ROOT ALL Z 15
    10 SEL2       12 GROUP        1 Z    SEL  0     **** SEL Z 16
    11 LYL4        7 GROUP        1 Z    LYL  0     **** LYL Z 18
    12 GLL5       19 GROUP        1 Z    GLL  0     **** GLL Z 20
@<TRIPOS>SET

