#    Name: 3n71_SFG_1_ligand
#    Modification time : Tue Mar 25 00:44:10 2014

@<TRIPOS>MOLECULE
3n71_SFG_1_ligand
   48    50     1     0     0
SMALL
NO_CHARGES


@<TRIPOS>ATOM
      1 N          45.3420   63.7340   31.7750 N.4       1 SFG491      0.0000 
      2 CA         44.4630   64.2840   30.7070 C.3       1 SFG491      0.0000 
      3 C          42.9160   64.3010   30.9580 C.2       1 SFG491      0.0000 
      4 O          42.1090   64.4880   30.0210 O.co2     1 SFG491      0.0000 
      5 OXT        42.4660   64.1310   32.0980 O.co2     1 SFG491      0.0000 
      6 CB         44.8650   63.5050   29.4150 C.3       1 SFG491      0.0000 
      7 CG         45.8850   64.2250   28.5030 C.3       1 SFG491      0.0000 
      8 CD         45.5350   65.6830   28.0300 C.3       1 SFG491      0.0000 
      9 NE         45.4570   65.6860   26.5390 N.3       1 SFG491      0.0000 
     10 C5'        46.5580   66.7920   28.3270 C.3       1 SFG491      0.0000 
     11 C4'        46.9380   67.1590   29.7920 C.3       1 SFG491      0.0000 
     12 O4'        47.2560   66.0570   30.6740 O.3       1 SFG491      0.0000 
     13 C3'        48.1630   68.0420   29.8840 C.3       1 SFG491      0.0000 
     14 O3'        47.8910   69.3750   29.5040 O.3       1 SFG491      0.0000 
     15 C2'        48.5900   67.9070   31.3290 C.3       1 SFG491      0.0000 
     16 O2'        47.8620   68.8320   32.1550 O.3       1 SFG491      0.0000 
     17 C1'        48.2640   66.4580   31.6330 C.3       1 SFG491      0.0000 
     18 N9         49.4360   65.5510   31.5250 N.pl3     1 SFG491      0.0000 
     19 C8         49.8510   64.8500   30.3950 C.2       1 SFG491      0.0000 
     20 N7         50.9200   64.1530   30.6160 N.2       1 SFG491      0.0000 
     21 C5         51.2350   64.3720   31.9650 C.ar      1 SFG491      0.0000 
     22 C6         52.3060   63.9430   32.8370 C.ar      1 SFG491      0.0000 
     23 N6         53.2980   63.0680   32.4980 N.pl3     1 SFG491      0.0000 
     24 N1         52.3260   64.3760   34.1550 N.ar      1 SFG491      0.0000 
     25 C2         51.3560   65.2420   34.5460 C.ar      1 SFG491      0.0000 
     26 N3         50.3190   65.7220   33.8200 N.ar      1 SFG491      0.0000 
     27 C4         50.3430   65.2770   32.5220 C.ar      1 SFG491      0.0000 
     28 H          44.7854   65.3341   30.5095 H         1 SFG491      0.0000 
     29 H          43.9499   63.3007   28.8353 H         1 SFG491      0.0000 
     30 H          45.2809   62.5291   29.7146 H         1 SFG491      0.0000 
     31 H          46.0530   63.6052   27.5951 H         1 SFG491      0.0000 
     32 H          46.8662   64.2642   29.0249 H         1 SFG491      0.0000 
     33 H          44.5802   65.9685   28.4145 H         1 SFG491      0.0000 
     34 H          46.2086   67.7400   27.8196 H         1 SFG491      0.0000 
     35 H          47.5160   66.5446   27.7799 H         1 SFG491      0.0000 
     36 H          46.1096   67.7387   30.2280 H         1 SFG491      0.0000 
     37 H          48.9328   67.5781   29.2777 H         1 SFG491      0.0000 
     38 H          49.6433   68.0340   31.3739 H         1 SFG491      0.0000 
     39 H          47.8476   66.4072   32.6298 H         1 SFG491      0.0000 
     40 H          49.3478   64.9125   29.5409 H         1 SFG491      0.0000 
     41 H          53.2484   62.6819   31.5769 H         1 SFG491      0.0000 
     42 H          53.9870   62.8902   33.2006 H         1 SFG491      0.0000 
     43 H          51.4223   65.5970   35.5821 H         1 SFG491      0.0000 
     44 H          46.3075   63.7719   31.5175 H         1 SFG491      0.0000 
     45 H          45.2470   64.2408   32.6318 H         1 SFG491      0.0000 
     46 H          45.1294   62.7776   31.9751 H         1 SFG491      0.0000 
     47 H          48.7880   69.8103   29.4273 H         1 SFG491      0.0000 
     48 H          46.9156   68.5100   32.1319 H         1 SFG491      0.0000 
@<TRIPOS>BOND
     1    2    1 1    
     2   44    1 1    
     3   45    1 1    
     4   46    1 1    
     5    3    2 1    
     6    6    2 1    
     7   28    2 1    
     8    4    3 ar   
     9    5    3 ar   
    10    7    6 1    
    11   29    6 1    
    12   30    6 1    
    13    8    7 1    
    14   31    7 1    
    15   32    7 1    
    16    9    8 1    
    17   10    8 1    
    18   33    8 1    
    19   11   10 1    
    20   34   10 1    
    21   35   10 1    
    22   12   11 1    
    23   13   11 1    
    24   36   11 1    
    25   17   12 1    
    26   14   13 1    
    27   15   13 1    
    28   37   13 1    
    29   47   14 1    
    30   16   15 1    
    31   17   15 1    
    32   38   15 1    
    33   48   16 1    
    34   18   17 1    
    35   39   17 1    
    36   19   18 1    
    37   27   18 1    
    38   20   19 2    
    39   40   19 1    
    40   21   20 1    
    41   22   21 ar   
    42   27   21 ar   
    43   23   22 1    
    44   24   22 ar   
    45   41   23 1    
    46   42   23 1    
    47   25   24 ar   
    48   26   25 ar   
    49   43   25 1    
    50   27   26 ar   
@<TRIPOS>SUBSTRUCTURE
     1 SFG491      1 GROUP   
@<TRIPOS>SET

