#    Name: 4mpc_PV2_1_INTS_M
#    Modification time : Tue Mar 25 12:17:51 2014

@<TRIPOS>MOLECULE
4mpc_PV2_1_INTS_M
   40     0     6     0     0
SMALL
NO_CHARGES


@<TRIPOS>ATOM
      1 CA         10.0655    1.9115  -36.9455 C.3       2 GLC5        0.0000 
      2 CA         12.0400    2.4430  -36.5460 C.3       6 GLL5        0.0000 
      3 CA          8.0910    1.3800  -37.3450 C.3       4 GLP5        0.0000 
      4 CA         11.6595    5.2245  -39.3310 C.3       2 GLC5        0.0000 
      5 CA         10.8270    4.2540  -37.6150 C.3       6 GLL5        0.0000 
      6 CA         12.4920    6.1950  -41.0470 C.3       4 GLP5        0.0000 
      7 CA          8.8865    4.7555  -35.2260 C.3       2 GLC5        0.0000 
      8 CA         10.6820    4.8600  -36.3870 C.3       6 GLL5        0.0000 
      9 CA          7.0910    4.6510  -34.0650 C.3       4 GLP5        0.0000 
     10 CA         11.5745    5.2875  -33.4030 C.3       2 GLC5        0.0000 
     11 CA         11.1990    4.2790  -35.2220 C.3       6 GLL5        0.0000 
     12 CA         11.9500    6.2960  -31.5840 C.3       4 GLP5        0.0000 
     13 CA          9.8635    4.0050  -33.7340 C.3       2 GLC5        0.0000 
     14 CA          8.5280    3.7310  -32.2460 C.3       4 GLP5        0.0000 
     15 CA         10.1325    1.8750  -38.1165 C.3       2 GLC5        0.0000 
     16 CA         11.5230    3.0300  -37.6830 C.3       6 GLL5        0.0000 
     17 CA          8.7420    0.7200  -38.5500 C.3       4 GLP5        0.0000 
     18 N          10.8790   -0.2590  -37.7120 N.am      1 SEC2        0.0000 
     19 N          12.2230   -0.1310  -37.3070 N.am      5 SEL2        0.0000 
     20 N           9.5350   -0.3870  -38.1170 N.am      3 SEP2        0.0000 
     21 CA         12.4597    5.2830  -36.0000 C.3       2 GLC5        0.0000 
     22 CA         11.8740    3.0710  -35.2940 C.3       6 GLL5        0.0000 
     23 CA         13.3830    6.8910  -36.7420 C.3       4 GLP5        0.0000 
     24 CA         11.6487    2.7580  -33.4440 C.3       2 GLC5        0.0000 
     25 CA         11.7610    1.8410  -31.6300 C.3       4 GLP5        0.0000 
     26 CA          9.4228    2.9685  -37.1730 C.3       2 GLC5        0.0000 
     27 CA         12.2609    5.3422  -37.0420 C.3       2 GLC5        0.0000 
     28 CA         17.1217    1.4143  -40.1257 C.3       2 GLC5        0.0000 
     29 CA         17.4600   -0.0900  -38.9160 C.3       6 GLL5        0.0000 
     30 CA         16.2000    2.5640  -41.3090 C.3       4 GLP5        0.0000 
     31 CA         19.7963    1.3460  -40.3650 C.3       2 GLC5        0.0000 
     32 CA         18.6270    0.6190  -38.9690 C.3       6 GLL5        0.0000 
     33 CA         20.9270    1.4380  -42.0430 C.3       4 GLP5        0.0000 
     34 CA         18.8798    3.7683  -38.7385 C.3       2 GLC5        0.0000 
     35 CA         18.7040    1.8890  -38.4050 C.3       6 GLL5        0.0000 
     36 CA         19.5930    5.3330  -39.4000 C.3       4 GLP5        0.0000 
     37 CA         17.1833    2.3838  -39.6930 C.3       2 GLC5        0.0000 
     38 CA         15.2591    1.7071  -39.2536 C.3       2 GLC5        0.0000 
     39 CA         16.3660    0.5390  -38.2550 C.3       6 GLL5        0.0000 
     40 CA         14.7890    2.2840  -40.7300 C.3       4 GLP5        0.0000 
@<TRIPOS>BOND
@<TRIPOS>SUBSTRUCTURE
     1 SEC2       18 GROUP        1 X    SEC  0     ROOT SEC X 2
     2 GLC5        1 GROUP        1 X    GLC  0     **** GLC X 6
     3 SEP2       20 GROUP        1 Y    SEP  0     ROOT SEP Y 9
     4 GLP5        3 GROUP        1 Y    GLP  0     **** GLP Y 13
     5 SEL2       19 GROUP        1 Z    SEL  0     ROOT SEL Z 16
     6 GLL5        2 GROUP        1 Z    GLL  0     **** GLL Z 20
@<TRIPOS>SET

