#    Name: 4mpc_PV2_1_ligand
#    Modification time : Tue Mar 25 12:17:51 2014

@<TRIPOS>MOLECULE
4mpc_PV2_1_ligand
   31    33     1     0     0
SMALL
NO_CHARGES


@<TRIPOS>ATOM
      1 O2         10.0180    6.0550  -36.3150 O.co2     1 PV2502      0.0000 
      2 C2         12.0400    2.4430  -36.5460 C.ar      1 PV2502      0.0000 
      3 C1         11.8740    3.0710  -35.2940 C.ar      1 PV2502      0.0000 
      4 C4         10.8270    4.2540  -37.6150 C.ar      1 PV2502      0.0000 
      5 C5         10.6820    4.8600  -36.3870 C.ar      1 PV2502      0.0000 
      6 C6         11.1990    4.2790  -35.2220 C.ar      1 PV2502      0.0000 
      7 C3         11.5230    3.0300  -37.6830 C.ar      1 PV2502      0.0000 
      8 O3         12.2230   -0.1310  -37.3070 O.2       1 PV2502      0.0000 
      9 C11        17.4600   -0.0900  -38.9160 C.ar      1 PV2502      0.0000 
     10 C12        18.6270    0.6190  -38.9690 C.ar      1 PV2502      0.0000 
     11 C13        18.7040    1.8890  -38.4050 C.ar      1 PV2502      0.0000 
     12 C14        17.6290    2.5180  -37.7490 C.ar      1 PV2502      0.0000 
     13 O4         13.2500    0.4890  -35.3090 O.2       1 PV2502      0.0000 
     14 S          12.8940    0.9300  -36.6350 S.o2      1 PV2502      0.0000 
     15 O1         11.6640    2.4010  -38.9380 O.co2     1 PV2502      0.0000 
     16 N          14.2530    1.1240  -37.5540 N.pl3     1 PV2502      0.0000 
     17 C10        15.1240    2.1560  -37.0930 C.3       1 PV2502      0.0000 
     18 C9         16.4410    1.8060  -37.6970 C.ar      1 PV2502      0.0000 
     19 C8         16.3660    0.5390  -38.2550 C.ar      1 PV2502      0.0000 
     20 C7         14.9860    0.0200  -38.0640 C.3       1 PV2502      0.0000 
     21 H          12.2525    2.6298  -34.4535 H         1 PV2502      0.0000 
     22 H          10.4462    4.6678  -38.4623 H         1 PV2502      0.0000 
     23 H          11.0745    4.7526  -34.3198 H         1 PV2502      0.0000 
     24 H          17.3512   -1.0040  -39.3117 H         1 PV2502      0.0000 
     25 H          19.4636    0.2196  -39.4281 H         1 PV2502      0.0000 
     26 H          19.6130    2.4133  -38.4690 H         1 PV2502      0.0000 
     27 H          17.7276    3.4282  -37.3463 H         1 PV2502      0.0000 
     28 H          15.2148    2.1532  -36.0203 H         1 PV2502      0.0000 
     29 H          14.8185    3.1254  -37.4478 H         1 PV2502      0.0000 
     30 H          14.5989   -0.3146  -39.0165 H         1 PV2502      0.0000 
     31 H          15.0116   -0.8039  -37.3642 H         1 PV2502      0.0000 
@<TRIPOS>BOND
     1    5    1 1    
     2    3    2 ar   
     3    7    2 ar   
     4   14    2 1    
     5    6    3 ar   
     6   21    3 1    
     7    5    4 ar   
     8    7    4 ar   
     9   22    4 1    
    10    6    5 ar   
    11   23    6 1    
    12   15    7 1    
    13   14    8 2    
    14   10    9 ar   
    15   19    9 ar   
    16   24    9 1    
    17   11   10 ar   
    18   25   10 1    
    19   12   11 ar   
    20   26   11 1    
    21   18   12 ar   
    22   27   12 1    
    23   14   13 2    
    24   16   14 1    
    25   17   16 1    
    26   20   16 1    
    27   18   17 1    
    28   28   17 1    
    29   29   17 1    
    30   19   18 ar   
    31   20   19 1    
    32   30   20 1    
    33   31   20 1    
@<TRIPOS>SUBSTRUCTURE
     1 PV2502      1 GROUP   
@<TRIPOS>SET

