#    Name: 2d1y_NAD_4_INTS_M
#    Modification time : Tue Mar 25 01:32:51 2014

@<TRIPOS>MOLECULE
2d1y_NAD_4_INTS_M
  114     0    12     0     0
SMALL
NO_CHARGES


@<TRIPOS>ATOM
      1 NZ         46.4400   26.0600   81.8455 N.4       3 LYC4        0.0000 
      2 NZ         45.8740   27.2810   81.2280 N.4      11 LYL4        0.0000 
      3 NZ         46.2540   23.7650   82.6740 N.4       7 LYP4        0.0000 
      4 N          46.4400   26.0600   81.8455 N.am      2 SEC2        0.0000 
      5 N          45.8740   27.2810   81.2280 N.am     10 SEL2        0.0000 
      6 N          47.0060   24.8390   82.4630 N.am      6 SEP2        0.0000 
      7 NZ         44.3130   25.1625   82.2395 N.4       3 LYC4        0.0000 
      8 NZ         43.6920   26.4700   81.8860 N.4      11 LYL4        0.0000 
      9 N          44.3130   25.1625   82.2395 N.am      2 SEC2        0.0000 
     10 N          43.6920   26.4700   81.8860 N.am     10 SEL2        0.0000 
     11 N          44.9340   23.8550   82.5930 N.am      6 SEP2        0.0000 
     12 CA         46.6420   31.3200   84.6730 C.3       4 GLC5        0.0000 
     13 CA         45.7120   29.8830   83.9720 C.3      12 GLL5        0.0000 
     14 CA         47.5720   32.7570   85.3740 C.3       8 GLP5        0.0000 
     15 CA         47.5340   27.3555   83.3750 C.3       4 GLC5        0.0000 
     16 CA         46.0540   28.4760   84.5390 C.3      12 GLL5        0.0000 
     17 CA         49.0140   26.2350   82.2110 C.3       8 GLP5        0.0000 
     18 O          47.7690   28.5390   86.3810 O.2       1 ALC1        0.0000 
     19 O          47.4760   28.2960   84.6880 O.2       9 ALL1        0.0000 
     20 O          48.0620   28.7820   88.0740 O.2       5 ALP1        0.0000 
     21 O          48.0670   29.1715   85.5345 O.2       1 ALC1        0.0000 
     22 O          48.6580   30.0470   86.3810 O.2       5 ALP1        0.0000 
     23 N          46.3045   26.2220   86.4815 N.am      2 SEC2        0.0000 
     24 N          45.9070   27.6880   86.9020 N.am     10 SEL2        0.0000 
     25 N          46.7020   24.7560   86.0610 N.am      6 SEP2        0.0000 
     26 O          46.9845   28.2350   87.4880 O.2       1 ALC1        0.0000 
     27 O          45.9070   27.6880   86.9020 O.2       9 ALL1        0.0000 
     28 CA         46.3535   31.3330   85.7835 C.3       4 GLC5        0.0000 
     29 CA         45.1350   29.9090   86.1930 C.3      12 GLL5        0.0000 
     30 CA         44.5420   31.8910   86.0615 C.3       4 GLC5        0.0000 
     31 CA         43.9490   33.8730   85.9300 C.3       8 GLP5        0.0000 
     32 CA         43.2395   29.3720   90.6485 C.3       4 GLC5        0.0000 
     33 CA         42.9170   30.7520   88.9460 C.3      12 GLL5        0.0000 
     34 CA         43.5620   27.9920   92.3510 C.3       8 GLP5        0.0000 
     35 CA         41.1090   31.9435   88.4840 C.3       4 GLC5        0.0000 
     36 CA         39.3010   33.1350   88.0220 C.3       8 GLP5        0.0000 
     37 CA         43.8320   30.0475   91.3780 C.3       4 GLC5        0.0000 
     38 CA         42.7940   31.3490   90.2580 C.3      12 GLL5        0.0000 
     39 CA         44.8700   28.7460   92.4980 C.3       8 GLP5        0.0000 
     40 CA         42.7665   33.2595   90.6045 C.3       4 GLC5        0.0000 
     41 CA         42.7390   35.1700   90.9510 C.3       8 GLP5        0.0000 
     42 O          41.6420   31.2920   92.5645 O.2       1 ALC1        0.0000 
     43 O          41.6450   31.4070   90.9250 O.2       9 ALL1        0.0000 
     44 O          41.6390   31.1770   94.2040 O.2       5 ALP1        0.0000 
     45 N          43.5860   32.8300   91.8580 N.am      2 SEC2        0.0000 
     46 N          43.9550   31.8740   90.8130 N.am     10 SEL2        0.0000 
     47 N          43.2170   33.7860   92.9030 N.am      6 SEP2        0.0000 
     48 CA         47.0145   31.5655   89.8305 C.3       4 GLC5        0.0000 
     49 CA         45.1530   31.8070   90.1110 C.3      12 GLL5        0.0000 
     50 CA         48.8760   31.3240   89.5500 C.3       8 GLP5        0.0000 
     51 CA         45.0115   30.2765   91.3045 C.3       4 GLC5        0.0000 
     52 CA         44.6815   33.6120   90.3495 C.3       4 GLC5        0.0000 
     53 CA         44.2100   35.4170   90.5880 C.3       8 GLP5        0.0000 
     54 N          46.5085   30.4135   89.7785 N.am      2 SEC2        0.0000 
     55 N          45.3610   31.2800   88.9130 N.am     10 SEL2        0.0000 
     56 N          47.6560   29.5470   90.6440 N.am      6 SEP2        0.0000 
     57 N          44.5250   27.0285   76.8765 N.am      2 SEC2        0.0000 
     58 N          44.0400   28.0220   77.5460 N.am     10 SEL2        0.0000 
     59 N          45.0100   26.0350   76.2070 N.am      6 SEP2        0.0000 
     60 N          47.2320   29.6120   78.1600 N.am      2 SEC2        0.0000 
     61 N          45.9290   28.9910   78.8300 N.am     10 SEL2        0.0000 
     62 N          48.5350   30.2330   77.4900 N.am      6 SEP2        0.0000 
     63 CA         45.7455   31.8025   77.9270 C.3       4 GLC5        0.0000 
     64 CA         44.1920   31.4190   79.2260 C.3      12 GLL5        0.0000 
     65 CA         47.2990   32.1860   76.6280 C.3       8 GLP5        0.0000 
     66 CA         44.2715   32.1590   76.9970 C.3       4 GLC5        0.0000 
     67 CA         43.2170   32.5410   78.9370 C.3      12 GLL5        0.0000 
     68 CA         45.3260   31.7770   75.0570 C.3       8 GLP5        0.0000 
     69 N          40.0935   34.3540   79.9825 N.am      2 SEC2        0.0000 
     70 N          41.4130   33.7600   80.1150 N.am     10 SEL2        0.0000 
     71 N          38.7740   34.9480   79.8500 N.am      6 SEP2        0.0000 
     72 O          42.4455   33.9490   80.9190 O.2       1 ALC1        0.0000 
     73 O          41.4130   33.7600   80.1150 O.2       9 ALL1        0.0000 
     74 O          43.4780   34.1380   81.7230 O.2       5 ALP1        0.0000 
     75 CA         39.2210   33.0435   79.1215 C.3       4 GLC5        0.0000 
     76 CA         40.9820   31.7940   78.6780 C.3      12 GLL5        0.0000 
     77 CA         37.4600   34.2930   79.5650 C.3       8 GLP5        0.0000 
     78 N          38.5990   31.6410   78.2620 N.am      2 SEC2        0.0000 
     79 N          39.5990   32.0450   79.0150 N.am     10 SEL2        0.0000 
     80 N          37.5990   31.2370   77.5090 N.am      6 SEP2        0.0000 
     81 N          39.1865   33.4965   79.4325 N.am      2 SEC2        0.0000 
     82 CA         42.2945   34.1325   77.2475 C.3       4 GLC5        0.0000 
     83 CA         41.4770   32.4530   77.4040 C.3      12 GLL5        0.0000 
     84 CA         43.1120   35.8120   77.0910 C.3       8 GLP5        0.0000 
     85 CA         42.7985   30.1645   72.9730 C.3       4 GLC5        0.0000 
     86 CA         41.3640   29.9240   74.6560 C.3      12 GLL5        0.0000 
     87 CA         44.2330   30.4050   71.2900 C.3       8 GLP5        0.0000 
     88 N          42.3160   28.0075   71.9550 N.am      2 SEC2        0.0000 
     89 N          41.6040   28.1320   73.1310 N.am     10 SEL2        0.0000 
     90 N          43.0280   27.8830   70.7790 N.am      6 SEP2        0.0000 
     91 O          43.6545   27.0900   73.6800 O.2       1 ALC1        0.0000 
     92 O          42.9800   28.0490   74.8930 O.2       9 ALL1        0.0000 
     93 O          44.3290   26.1310   72.4670 O.2       5 ALP1        0.0000 
     94 CA         40.6410   33.9115   74.3305 C.3       4 GLC5        0.0000 
     95 CA         40.0470   32.3600   75.3810 C.3      12 GLL5        0.0000 
     96 CA         41.2350   35.4630   73.2800 C.3       8 GLP5        0.0000 
     97 CA         44.4830   31.8363   83.8720 C.3       4 GLC5        0.0000 
     98 CA         45.0100   29.9280   82.6300 C.3      12 GLL5        0.0000 
     99 CA         43.6050   33.7670   84.4430 C.3       8 GLP5        0.0000 
    100 CA         46.8465   26.7975   85.8535 C.3       4 GLC5        0.0000 
    101 CA         48.0400   25.1350   86.5100 C.3       8 GLP5        0.0000 
    102 CA         43.7550   32.3148   87.2933 C.3       4 GLC5        0.0000 
    103 CA         44.2050   30.7610   88.3670 C.3      12 GLL5        0.0000 
    104 CA         42.8330   34.1590   78.2050 C.3       4 GLC5        0.0000 
    105 CA         41.8910   32.4710   79.7010 C.3      12 GLL5        0.0000 
    106 CA         40.5708   32.3862   80.8872 C.3       4 GLC5        0.0000 
    107 CA         39.7050   32.6400   82.5850 C.3       8 GLP5        0.0000 
    108 CA         43.4423   31.0102   75.1525 C.3       4 GLC5        0.0000 
    109 CA         41.7530   30.5630   75.8400 C.3      12 GLL5        0.0000 
    110 CA         38.4697   32.9555   74.9510 C.3       4 GLC5        0.0000 
    111 CA         39.7240   31.6760   74.2410 C.3      12 GLL5        0.0000 
    112 CA         37.0540   33.8930   75.0910 C.3       8 GLP5        0.0000 
    113 CA         41.2631   32.2613   73.2722 C.3       4 GLC5        0.0000 
    114 CA         42.2440   33.5870   72.3100 C.3       8 GLP5        0.0000 
@<TRIPOS>BOND
@<TRIPOS>SUBSTRUCTURE
     1 ALC1       18 GROUP        1 X    ALC  0     ROOT ALC X 1
     2 SEC2        4 GROUP        1 X    SEC  0     **** SEC X 2
     3 LYC4        1 GROUP        1 X    LYC  0     **** LYC X 4
     4 GLC5       12 GROUP        1 X    GLC  0     **** GLC X 6
     5 ALP1       20 GROUP        1 Y    ALP  0     ROOT ALP Y 8
     6 SEP2        6 GROUP        1 Y    SEP  0     **** SEP Y 9
     7 LYP4        3 GROUP        1 Y    LYP  0     **** LYP Y 11
     8 GLP5       14 GROUP        1 Y    GLP  0     **** GLP Y 13
     9 ALL1       19 GROUP        1 Z    ALL  0     ROOT ALL Z 15
    10 SEL2        5 GROUP        1 Z    SEL  0     **** SEL Z 16
    11 LYL4        2 GROUP        1 Z    LYL  0     **** LYL Z 18
    12 GLL5       13 GROUP        1 Z    GLL  0     **** GLL Z 20
@<TRIPOS>SET

