#    Name: 2d1y_NAD_4_ligand
#    Modification time : Tue Mar 25 01:32:51 2014

@<TRIPOS>MOLECULE
2d1y_NAD_4_ligand
   70    74     1     0     0
SMALL
NO_CHARGES


@<TRIPOS>ATOM
      1 PA         44.4620   27.6090   81.3790 P.3       1 NAD1004     0.0000 
      2 O1A        45.8740   27.2810   81.2280 O.co2     1 NAD1004     0.0000 
      3 O2A        43.6920   26.4700   81.8860 O.co2     1 NAD1004     0.0000 
      4 O5B        44.1460   28.7750   82.4470 O.3       1 NAD1004     0.0000 
      5 C5B        45.0100   29.9280   82.6300 C.3       1 NAD1004     0.0000 
      6 C4B        45.7120   29.8830   83.9720 C.3       1 NAD1004     0.0000 
      7 O4B        44.8160   30.4650   84.9590 O.3       1 NAD1004     0.0000 
      8 C3B        46.0540   28.4760   84.5390 C.3       1 NAD1004     0.0000 
      9 O3B        47.4760   28.2960   84.6880 O.3       1 NAD1004     0.0000 
     10 C2B        45.2520   28.4440   85.8550 C.3       1 NAD1004     0.0000 
     11 O2B        45.9070   27.6880   86.9020 O.3       1 NAD1004     0.0000 
     12 C1B        45.1350   29.9090   86.1930 C.3       1 NAD1004     0.0000 
     13 N9A        44.0530   30.1350   87.1400 N.pl3     1 NAD1004     0.0000 
     14 C8A        42.7160   29.7900   87.0370 C.2       1 NAD1004     0.0000 
     15 N7A        41.9740   30.1430   88.1130 N.2       1 NAD1004     0.0000 
     16 C5A        42.9170   30.7520   88.9460 C.ar      1 NAD1004     0.0000 
     17 C6A        42.7940   31.3490   90.2580 C.ar      1 NAD1004     0.0000 
     18 N6A        41.6450   31.4070   90.9250 N.pl3     1 NAD1004     0.0000 
     19 N1A        43.9550   31.8740   90.8130 N.ar      1 NAD1004     0.0000 
     20 C2A        45.1530   31.8070   90.1110 C.ar      1 NAD1004     0.0000 
     21 N3A        45.3610   31.2800   88.9130 N.ar      1 NAD1004     0.0000 
     22 C4A        44.2050   30.7610   88.3670 C.ar      1 NAD1004     0.0000 
     23 O3         43.8820   28.1660   80.0320 O.3       1 NAD1004     0.0000 
     24 PN         44.4690   28.8610   78.7000 P.3       1 NAD1004     0.0000 
     25 O1N        44.0400   28.0220   77.5460 O.co2     1 NAD1004     0.0000 
     26 O2N        45.9290   28.9910   78.8300 O.co2     1 NAD1004     0.0000 
     27 O5D        43.6680   30.2270   78.6060 O.3       1 NAD1004     0.0000 
     28 C5D        44.1920   31.4190   79.2260 C.3       1 NAD1004     0.0000 
     29 C4D        43.2170   32.5410   78.9370 C.3       1 NAD1004     0.0000 
     30 O4D        42.8820   32.5200   77.5080 O.3       1 NAD1004     0.0000 
     31 C3D        41.8910   32.4710   79.7010 C.3       1 NAD1004     0.0000 
     32 O3D        41.4130   33.7600   80.1150 O.3       1 NAD1004     0.0000 
     33 C2D        40.9820   31.7940   78.6780 C.3       1 NAD1004     0.0000 
     34 O2D        39.5990   32.0450   79.0150 O.3       1 NAD1004     0.0000 
     35 C1D        41.4770   32.4530   77.4040 C.3       1 NAD1004     0.0000 
     36 N1N        41.0750   31.7520   76.1470 N.pl3     1 NAD1004     0.0000 
     37 C2N        41.7530   30.5630   75.8400 C.ar      1 NAD1004     0.0000 
     38 C3N        41.3640   29.9240   74.6560 C.ar      1 NAD1004     0.0000 
     39 C7N        42.0040   28.6240   74.1760 C.2       1 NAD1004     0.0000 
     40 O7N        41.6040   28.1320   73.1310 O.2       1 NAD1004     0.0000 
     41 N7N        42.9800   28.0490   74.8930 N.am      1 NAD1004     0.0000 
     42 C4N        40.3170   30.4660   73.8000 C.ar      1 NAD1004     0.0000 
     43 C5N        39.7240   31.6760   74.2410 C.ar      1 NAD1004     0.0000 
     44 C6N        40.0470   32.3600   75.3810 C.ar      1 NAD1004     0.0000 
     45 H          44.4315   30.8630   82.5739 H         1 NAD1004     0.0000 
     46 H          45.7761   29.9718   81.8406 H         1 NAD1004     0.0000 
     47 H          46.6172   30.4617   83.9411 H         1 NAD1004     0.0000 
     48 H          45.6004   27.7656   83.8690 H         1 NAD1004     0.0000 
     49 H          44.2731   28.0794   85.6202 H         1 NAD1004     0.0000 
     50 H          46.0658   30.2449   86.5548 H         1 NAD1004     0.0000 
     51 H          42.3494   29.3253   86.2384 H         1 NAD1004     0.0000 
     52 H          40.8147   31.4436   90.3688 H         1 NAD1004     0.0000 
     53 H          41.7149   31.4088   91.9226 H         1 NAD1004     0.0000 
     54 H          46.0094   32.2471   90.6281 H         1 NAD1004     0.0000 
     55 H          45.1600   31.6883   78.8151 H         1 NAD1004     0.0000 
     56 H          44.2763   31.3033   80.3020 H         1 NAD1004     0.0000 
     57 H          43.6883   33.4931   79.1637 H         1 NAD1004     0.0000 
     58 H          42.0291   31.7818   80.5108 H         1 NAD1004     0.0000 
     59 H          41.2466   30.7684   78.6582 H         1 NAD1004     0.0000 
     60 H          41.0660   33.4716   77.3882 H         1 NAD1004     0.0000 
     61 H          42.4678   30.1962   76.4291 H         1 NAD1004     0.0000 
     62 H          43.2337   28.5125   75.7420 H         1 NAD1004     0.0000 
     63 H          43.3669   27.2081   74.5146 H         1 NAD1004     0.0000 
     64 H          40.0520   30.0072   72.9723 H         1 NAD1004     0.0000 
     65 H          38.9560   32.0751   73.6118 H         1 NAD1004     0.0000 
     66 H          39.6194   33.2012   75.6671 H         1 NAD1004     0.0000 
     67 H          47.7534   28.9771   85.3656 H         1 NAD1004     0.0000 
     68 H          46.6664   28.2655   87.2016 H         1 NAD1004     0.0000 
     69 H          42.2367   34.2842   80.3313 H         1 NAD1004     0.0000 
     70 H          39.3282   31.2720   79.5887 H         1 NAD1004     0.0000 
@<TRIPOS>BOND
     1    2    1 ar   
     2    3    1 ar   
     3    4    1 1    
     4   23    1 1    
     5    5    4 1    
     6    6    5 1    
     7   45    5 1    
     8   46    5 1    
     9    7    6 1    
    10    8    6 1    
    11   47    6 1    
    12   12    7 1    
    13    9    8 1    
    14   10    8 1    
    15   48    8 1    
    16   67    9 1    
    17   11   10 1    
    18   12   10 1    
    19   49   10 1    
    20   68   11 1    
    21   13   12 1    
    22   50   12 1    
    23   14   13 1    
    24   22   13 1    
    25   15   14 2    
    26   51   14 1    
    27   16   15 1    
    28   17   16 ar   
    29   22   16 ar   
    30   18   17 1    
    31   19   17 ar   
    32   52   18 1    
    33   53   18 1    
    34   20   19 ar   
    35   21   20 ar   
    36   54   20 1    
    37   22   21 ar   
    38   24   23 1    
    39   25   24 ar   
    40   26   24 ar   
    41   27   24 1    
    42   28   27 1    
    43   29   28 1    
    44   55   28 1    
    45   56   28 1    
    46   30   29 1    
    47   31   29 1    
    48   57   29 1    
    49   35   30 1    
    50   32   31 1    
    51   33   31 1    
    52   58   31 1    
    53   69   32 1    
    54   34   33 1    
    55   35   33 1    
    56   59   33 1    
    57   70   34 1    
    58   36   35 1    
    59   60   35 1    
    60   37   36 ar   
    61   44   36 ar   
    62   38   37 ar   
    63   61   37 1    
    64   39   38 1    
    65   42   38 ar   
    66   40   39 2    
    67   41   39 am   
    68   62   41 1    
    69   63   41 1    
    70   43   42 ar   
    71   64   42 1    
    72   44   43 ar   
    73   65   43 1    
    74   66   44 1    
@<TRIPOS>SUBSTRUCTURE
     1 NAD1004     1 GROUP   
@<TRIPOS>SET

