#    Name: 2pzi_AXX_1_INTS_M
#    Modification time : Mon Mar 24 20:13:41 2014

@<TRIPOS>MOLECULE
2pzi_AXX_1_INTS_M
   57     0     9     0     0
SMALL
NO_CHARGES


@<TRIPOS>ATOM
      1 CA         16.7390  -11.1125   -0.2465 C.3       3 GLC5        0.0000 
      2 CA         17.8680  -10.0160   -1.0820 C.3       9 GLL5        0.0000 
      3 CA         15.6100  -12.2090    0.5890 C.3       6 GLP5        0.0000 
      4 CA         17.3450  -11.7170   -2.1230 C.3       3 GLC5        0.0000 
      5 CA         16.8220  -13.4180   -3.1640 C.3       6 GLP5        0.0000 
      6 CA         16.8805   -7.4250    0.3920 C.3       3 GLC5        0.0000 
      7 CA         18.0840   -8.5070   -1.0200 C.3       9 GLL5        0.0000 
      8 CA         15.6770   -6.3430    1.8040 C.3       6 GLP5        0.0000 
      9 O          21.5525   -9.6485   -1.2630 O.2       1 ALC1        0.0000 
     10 O          20.9900  -10.1370   -2.6880 O.2       7 ALL1        0.0000 
     11 O          22.1150   -9.1600    0.1620 O.2       4 ALP1        0.0000 
     12 CA         20.5340  -11.9270   -3.3685 C.3       3 GLC5        0.0000 
     13 CA         21.6850  -10.2130   -3.8520 C.3       9 GLL5        0.0000 
     14 CA         19.3830  -13.6410   -2.8850 C.3       6 GLP5        0.0000 
     15 CA         19.4220  -10.0375   -6.1760 C.3       3 GLC5        0.0000 
     16 CA         21.1860   -9.6150   -5.3790 C.3       9 GLL5        0.0000 
     17 CA         17.6580  -10.4600   -6.9730 C.3       6 GLP5        0.0000 
     18 CA         21.5390  -11.3005   -8.1195 C.3       3 GLC5        0.0000 
     19 CA         22.7630   -9.8720   -7.6470 C.3       9 GLL5        0.0000 
     20 CA         20.3150  -12.7290   -8.5920 C.3       6 GLP5        0.0000 
     21 CA         24.9225  -12.3785   -9.0950 C.3       3 GLC5        0.0000 
     22 CA         24.9120  -11.1980   -7.3740 C.3       9 GLL5        0.0000 
     23 CA         24.9330  -13.5590  -10.8160 C.3       6 GLP5        0.0000 
     24 CA         25.9060  -12.9045   -7.0410 C.3       3 GLC5        0.0000 
     25 CA         26.9000  -14.6110   -6.7080 C.3       6 GLP5        0.0000 
     26 CA         26.2380  -12.4370   -5.6580 C.3       3 GLC5        0.0000 
     27 CA         24.8280  -11.3200   -5.8510 C.3       9 GLL5        0.0000 
     28 CA         27.6480  -13.5540   -5.4650 C.3       6 GLP5        0.0000 
     29 CA         25.6895   -9.4985   -5.0440 C.3       3 GLC5        0.0000 
     30 CA         26.5510   -7.6770   -4.2370 C.3       6 GLP5        0.0000 
     31 N          23.4845  -11.3980   -0.4535 N.am      2 SEC2        0.0000 
     32 N          23.0170  -11.5090   -1.8100 N.am      8 SEL2        0.0000 
     33 N          23.9520  -11.2870    0.9030 N.am      5 SEP2        0.0000 
     34 O          25.5810  -12.6945   -1.8330 O.2       1 ALC1        0.0000 
     35 O          24.9140  -11.9240   -2.9420 O.2       7 ALL1        0.0000 
     36 O          26.2480  -13.4650   -0.7240 O.2       4 ALP1        0.0000 
     37 CA         19.1597  -11.2960   -0.0420 C.3       3 GLC5        0.0000 
     38 CA         19.2850   -9.4500   -1.1400 C.3       9 GLL5        0.0000 
     39 CA         19.7430  -12.8590    1.0270 C.3       6 GLP5        0.0000 
     40 CA         19.6427   -8.8657    0.6935 C.3       3 GLC5        0.0000 
     41 CA         20.6010   -8.7530    2.4670 C.3       6 GLP5        0.0000 
     42 CA         22.8042   -8.4635   -4.7773 C.3       3 GLC5        0.0000 
     43 CA         24.1730   -7.0130   -4.9390 C.3       6 GLP5        0.0000 
     44 CA         23.0285  -11.8212   -8.5828 C.3       3 GLC5        0.0000 
     45 CA         24.2540   -9.9470   -7.9610 C.3       9 GLL5        0.0000 
     46 CA         21.4740  -13.0700   -9.4980 C.3       6 GLP5        0.0000 
     47 CA         23.8245   -8.4947   -6.1876 C.3       3 GLC5        0.0000 
     48 CA         26.2855   -9.6657   -8.4417 C.3       3 GLC5        0.0000 
     49 CA         27.9880   -8.7590   -9.2160 C.3       6 GLP5        0.0000 
     50 CA         23.7165   -8.9162   -4.8030 C.3       3 GLC5        0.0000 
     51 CA         23.5100  -10.7990   -5.3290 C.3       9 GLL5        0.0000 
     52 CA         22.0664  -12.3279   -5.7169 C.3       3 GLC5        0.0000 
     53 CA         22.6330  -10.1400   -6.1760 C.3       9 GLL5        0.0000 
     54 CA         21.0920  -14.0010   -6.5550 C.3       6 GLP5        0.0000 
     55 CA         23.4472  -13.0809   -4.6753 C.3       3 GLC5        0.0000 
     56 CA         23.0100  -10.8400   -4.0050 C.3       9 GLL5        0.0000 
     57 CA         23.3050  -15.2120   -4.5530 C.3       6 GLP5        0.0000 
@<TRIPOS>BOND
@<TRIPOS>SUBSTRUCTURE
     1 ALC1        9 GROUP        1 X    ALC  0     ROOT ALC X 1
     2 SEC2       31 GROUP        1 X    SEC  0     **** SEC X 2
     3 GLC5        1 GROUP        1 X    GLC  0     **** GLC X 6
     4 ALP1       11 GROUP        1 Y    ALP  0     ROOT ALP Y 8
     5 SEP2       33 GROUP        1 Y    SEP  0     **** SEP Y 9
     6 GLP5        3 GROUP        1 Y    GLP  0     **** GLP Y 13
     7 ALL1       10 GROUP        1 Z    ALL  0     ROOT ALL Z 15
     8 SEL2       32 GROUP        1 Z    SEL  0     **** SEL Z 16
     9 GLL5        2 GROUP        1 Z    GLL  0     **** GLL Z 20
@<TRIPOS>SET

