#    Name: 2pzi_AXX_1_ligand
#    Modification time : Mon Mar 24 20:13:41 2014

@<TRIPOS>MOLECULE
2pzi_AXX_1_ligand
   34    36     1     0     0
SMALL
NO_CHARGES


@<TRIPOS>ATOM
      1 O5         19.0850   -9.2450   -3.5240 O.2       1 AXX753      0.0000 
      2 C4         19.7770   -9.5920   -2.5650 C.2       1 AXX753      0.0000 
      3 C2         19.2850   -9.4500   -1.1400 C.3       1 AXX753      0.0000 
      4 C3         17.8680  -10.0160   -1.0820 C.3       1 AXX753      0.0000 
      5 C1         18.0840   -8.5070   -1.0200 C.3       1 AXX753      0.0000 
      6 N6         20.9900  -10.1370   -2.6880 N.am      1 AXX753      0.0000 
      7 C7         21.6850  -10.2130   -3.8520 C.2       1 AXX753      0.0000 
      8 S11        21.1860   -9.6150   -5.3790 S.3       1 AXX753      0.0000 
      9 C10        22.6330  -10.1400   -6.1760 C.2       1 AXX753      0.0000 
     10 C18        22.7630   -9.8720   -7.6470 C.3       1 AXX753      0.0000 
     11 C17        24.2540   -9.9470   -7.9610 C.3       1 AXX753      0.0000 
     12 C16        24.9120  -11.1980   -7.3740 C.3       1 AXX753      0.0000 
     13 C15        24.8280  -11.3200   -5.8510 C.3       1 AXX753      0.0000 
     14 C9         23.5100  -10.7990   -5.3290 C.2       1 AXX753      0.0000 
     15 C8         23.0100  -10.8400   -4.0050 C.2       1 AXX753      0.0000 
     16 C12        23.6740  -11.4560   -2.8350 C.2       1 AXX753      0.0000 
     17 O13        23.0170  -11.5090   -1.8100 O.2       1 AXX753      0.0000 
     18 N14        24.9140  -11.9240   -2.9420 N.am      1 AXX753      0.0000 
     19 H          19.6894   -9.5586   -0.3617 H         1 AXX753      0.0000 
     20 H          17.7179  -10.3204   -0.1993 H         1 AXX753      0.0000 
     21 H          17.6104  -10.2325   -1.9658 H         1 AXX753      0.0000 
     22 H          17.9120   -8.1579   -1.8809 H         1 AXX753      0.0000 
     23 H          18.0194   -8.2458   -0.1143 H         1 AXX753      0.0000 
     24 H          21.4556  -10.5459   -1.8109 H         1 AXX753      0.0000 
     25 H          22.4007   -8.8896   -7.8798 H         1 AXX753      0.0000 
     26 H          22.2440  -10.6235   -8.2096 H         1 AXX753      0.0000 
     27 H          24.7523   -9.0590   -7.5568 H         1 AXX753      0.0000 
     28 H          24.3937   -9.9472   -9.0476 H         1 AXX753      0.0000 
     29 H          25.9770  -11.2143   -7.6744 H         1 AXX753      0.0000 
     30 H          24.4456  -12.0924   -7.8292 H         1 AXX753      0.0000 
     31 H          25.6496  -10.7540   -5.4053 H         1 AXX753      0.0000 
     32 H          24.9438  -12.3706   -5.5737 H         1 AXX753      0.0000 
     33 H          25.2893  -12.3662   -2.1273 H         1 AXX753      0.0000 
     34 H          25.3594  -11.7916   -3.8275 H         1 AXX753      0.0000 
@<TRIPOS>BOND
     1    2    1 2    
     2    3    2 1    
     3    6    2 am   
     4    4    3 1    
     5    5    3 1    
     6   19    3 1    
     7    5    4 1    
     8   20    4 1    
     9   21    4 1    
    10   22    5 1    
    11   23    5 1    
    12    7    6 1    
    13   24    6 1    
    14    8    7 1    
    15   15    7 2    
    16    9    8 1    
    17   10    9 1    
    18   14    9 2    
    19   11   10 1    
    20   25   10 1    
    21   26   10 1    
    22   12   11 1    
    23   27   11 1    
    24   28   11 1    
    25   13   12 1    
    26   29   12 1    
    27   30   12 1    
    28   14   13 1    
    29   31   13 1    
    30   32   13 1    
    31   15   14 1    
    32   16   15 1    
    33   17   16 2    
    34   18   16 am   
    35   33   18 1    
    36   34   18 1    
@<TRIPOS>SUBSTRUCTURE
     1 AXX753      1 GROUP   
@<TRIPOS>SET

