#    Name: 1ody_LP1_1_INTS_M
#    Modification time : Mon Mar 24 19:59:12 2014

@<TRIPOS>MOLECULE
1ody_LP1_1_INTS_M
  115     0     9     0     0
SMALL
NO_CHARGES


@<TRIPOS>ATOM
      1 CA        -10.6950   12.4205   37.0875 C.3       3 GLC5        0.0000 
      2 CA        -12.2680   12.0100   36.8600 C.3       9 GLL5        0.0000 
      3 CA         -9.1220   12.8310   37.3150 C.3       6 GLP5        0.0000 
      4 CA        -11.0670   17.1295   32.1255 C.3       3 GLC5        0.0000 
      5 CA        -10.1890   15.5120   31.7260 C.3       9 GLL5        0.0000 
      6 CA        -11.9450   18.7470   32.5250 C.3       6 GLP5        0.0000 
      7 CA         -6.8410   17.3780   33.5600 C.3       3 GLC5        0.0000 
      8 CA         -8.3520   17.0970   32.1000 C.3       9 GLL5        0.0000 
      9 CA         -5.3300   17.6590   35.0200 C.3       6 GLP5        0.0000 
     10 CA         -7.0320   17.9590   31.5520 C.3       3 GLC5        0.0000 
     11 CA         -5.7120   18.8210   31.0040 C.3       6 GLP5        0.0000 
     12 O         -11.9720   16.8490   29.9145 O.2       1 ALC1        0.0000 
     13 O         -10.7240   16.2430   29.4300 O.2       7 ALL1        0.0000 
     14 O         -13.2200   17.4550   30.3990 O.2       4 ALP1        0.0000 
     15 CA        -15.1075   15.5685   28.2410 C.3       3 GLC5        0.0000 
     16 CA        -13.8330   13.9280   28.6550 C.3       9 GLL5        0.0000 
     17 CA        -16.3820   17.2090   27.8270 C.3       6 GLP5        0.0000 
     18 CA        -15.2325   12.9460   28.2875 C.3       3 GLC5        0.0000 
     19 CA        -16.6320   11.9640   27.9200 C.3       6 GLP5        0.0000 
     20 CA        -10.2135   11.9165   28.6225 C.3       3 GLC5        0.0000 
     21 CA        -12.0430   12.6320   27.6600 C.3       9 GLL5        0.0000 
     22 CA         -8.3840   11.2010   29.5850 C.3       6 GLP5        0.0000 
     23 CA        -11.5215   12.1135   26.0485 C.3       3 GLC5        0.0000 
     24 CA        -11.0000   11.5950   24.4370 C.3       6 GLP5        0.0000 
     25 CA        -12.8595   10.7960   27.6445 C.3       3 GLC5        0.0000 
     26 CA        -13.6760    8.9600   27.6290 C.3       6 GLP5        0.0000 
     27 N         -10.0235   10.7165   34.6395 N.am      2 SEC2        0.0000 
     28 N         -10.8840   11.5100   34.9730 N.am      8 SEL2        0.0000 
     29 N          -9.1630    9.9230   34.3060 N.am      5 SEP2        0.0000 
     30 O         -13.8795   13.8610   34.9520 O.2       1 ALC1        0.0000 
     31 O         -12.7330   12.8620   34.6340 O.2       7 ALL1        0.0000 
     32 O         -15.0260   14.8600   35.2700 O.2       4 ALP1        0.0000 
     33 N         -12.7120   16.7110   33.8355 N.am      2 SEC2        0.0000 
     34 N         -12.3550   15.5880   33.1120 N.am      8 SEL2        0.0000 
     35 N         -13.0690   17.8340   34.5590 N.am      5 SEP2        0.0000 
     36 O         -10.2310   13.0245   32.1905 O.2       1 ALC1        0.0000 
     37 O         -10.8220   14.3290   32.2390 O.2       7 ALL1        0.0000 
     38 O          -9.6400   11.7200   32.1420 O.2       4 ALP1        0.0000 
     39 CA         -7.2415   16.6765   34.4910 C.3       3 GLC5        0.0000 
     40 CA         -9.1530   15.6940   33.9620 C.3       9 GLL5        0.0000 
     41 CA         -9.1375   14.2625   35.6385 C.3       3 GLC5        0.0000 
     42 CA        -12.9695   14.6695   26.0380 C.3       3 GLC5        0.0000 
     43 CA        -11.9030   15.2320   27.6080 C.3       9 GLL5        0.0000 
     44 CA        -14.0360   14.1070   24.4680 C.3       6 GLP5        0.0000 
     45 N          -9.9180   19.3760   28.5540 N.am      2 SEC2        0.0000 
     46 N         -10.6590   18.4650   27.7340 N.am      8 SEL2        0.0000 
     47 N          -9.1770   20.2870   29.3740 N.am      5 SEP2        0.0000 
     48 O         -11.5860   19.3470   27.0935 O.2       1 ALC1        0.0000 
     49 O         -10.6590   18.4650   27.7340 O.2       7 ALL1        0.0000 
     50 O         -12.5130   20.2290   26.4530 O.2       4 ALP1        0.0000 
     51 O         -11.6720   18.3805   26.7035 O.2       1 ALC1        0.0000 
     52 O         -12.6850   18.2960   25.6730 O.2       4 ALP1        0.0000 
     53 O          -8.2920   18.7575   24.5840 O.2       1 ALC1        0.0000 
     54 O          -8.1860   17.0860   24.3750 O.2       7 ALL1        0.0000 
     55 O          -8.3980   20.4290   24.7930 O.2       4 ALP1        0.0000 
     56 CA         -8.9335   18.2020   22.9445 C.3       3 GLC5        0.0000 
     57 CA         -7.6920   16.4950   23.1670 C.3       9 GLL5        0.0000 
     58 CA        -10.1750   19.9090   22.7220 C.3       6 GLP5        0.0000 
     59 CA        -10.4085   13.3405   23.7770 C.3       3 GLC5        0.0000 
     60 CA         -9.8170   15.0860   23.1170 C.3       9 GLL5        0.0000 
     61 CA        -11.4475   14.0820   21.9730 C.3       3 GLC5        0.0000 
     62 CA        -13.0780   13.0780   20.8290 C.3       6 GLP5        0.0000 
     63 N          -8.1110   19.5825   21.3490 N.am      2 SEC2        0.0000 
     64 N          -7.3000   18.6310   22.0000 N.am      8 SEL2        0.0000 
     65 N          -8.9220   20.5340   20.6980 N.am      5 SEP2        0.0000 
     66 O          -5.3285   15.8720   22.4685 O.2       1 ALC1        0.0000 
     67 O          -5.7040   17.0100   21.9170 O.2       7 ALL1        0.0000 
     68 O          -4.9530   14.7340   23.0200 O.2       4 ALP1        0.0000 
     69 CA         -0.6215   16.4110   25.5240 C.3       3 GLC5        0.0000 
     70 CA         -1.6580   16.2200   23.7910 C.3       9 GLL5        0.0000 
     71 CA          0.4150   16.6020   27.2570 C.3       6 GLP5        0.0000 
     72 CA         -5.8620   20.7965   26.6210 C.3       3 GLC5        0.0000 
     73 CA         -5.4270   18.6830   26.0500 C.3       9 GLL5        0.0000 
     74 CA         -6.2970   22.9100   27.1920 C.3       6 GLP5        0.0000 
     75 CA         -5.3055   18.3450   29.0115 C.3       3 GLC5        0.0000 
     76 CA         -4.8990   17.8690   27.0190 C.3       9 GLL5        0.0000 
     77 N          -4.0035   14.5530   20.3640 N.am      2 SEC2        0.0000 
     78 N          -4.0630   15.7620   20.0710 N.am      8 SEL2        0.0000 
     79 N          -3.9440   13.3440   20.6570 N.am      5 SEP2        0.0000 
     80 O          -4.6185   19.0400   19.2490 O.2       1 ALC1        0.0000 
     81 O          -4.1180   17.5210   18.7800 O.2       7 ALL1        0.0000 
     82 O          -5.1190   20.5590   19.7180 O.2       4 ALP1        0.0000 
     83 CA        -10.9558    9.8372   32.2332 C.3       3 GLC5        0.0000 
     84 CA        -12.1960   10.2580   31.1770 C.3       9 GLL5        0.0000 
     85 CA         -9.1360    9.4870   32.9140 C.3       6 GLP5        0.0000 
     86 CA        -13.2257    9.5738   29.5907 C.3       3 GLC5        0.0000 
     87 CA        -14.1218    8.0972   29.8880 C.3       3 GLC5        0.0000 
     88 CA        -13.8450    8.8080   32.1530 C.3       9 GLL5        0.0000 
     89 CA        -14.7310    7.9470   27.8750 C.3       6 GLP5        0.0000 
     90 CA        -10.1292   10.4450   30.2610 C.3       3 GLC5        0.0000 
     91 CA        -11.5530    9.1200   30.6970 C.3       9 GLL5        0.0000 
     92 CA        -10.4593    8.9855   31.8643 C.3       3 GLC5        0.0000 
     93 CA        -12.7293    8.7220   29.2218 C.3       3 GLC5        0.0000 
     94 CA        -13.3033   13.6955   26.2724 C.3       3 GLC5        0.0000 
     95 CA        -12.3630   13.9440   28.3320 C.3       9 GLL5        0.0000 
     96 CA         -9.7511   17.7829   32.8614 C.3       3 GLC5        0.0000 
     97 CA         -8.8630   15.7340   32.4870 C.3       9 GLL5        0.0000 
     98 CA        -10.6220   19.5110   32.5950 C.3       6 GLP5        0.0000 
     99 CA        -10.3185   17.1932   22.7020 C.3       3 GLC5        0.0000 
    100 CA        -11.3300   18.9260   22.6990 C.3       6 GLP5        0.0000 
    101 CA         -2.7270   14.8030   23.0857 C.3       3 GLC5        0.0000 
    102 CA         -2.1820   16.2120   25.0730 C.3       9 GLL5        0.0000 
    103 CA         -3.4030   13.1790   21.9860 C.3       6 GLP5        0.0000 
    104 CA         -2.9355   18.6725   26.3428 C.3       3 GLC5        0.0000 
    105 CA         -3.2620   17.0340   25.4140 C.3       9 GLL5        0.0000 
    106 CA         -2.3210   19.8930   27.7830 C.3       6 GLP5        0.0000 
    107 CA         -3.7462   19.2888   26.5900 C.3       3 GLC5        0.0000 
    108 CA         -1.8525   16.1575   26.8336 C.3       3 GLC5        0.0000 
    109 CA         -3.8040   17.0550   26.7070 C.3       9 GLL5        0.0000 
    110 CA         -0.4420   15.4760   27.6920 C.3       6 GLP5        0.0000 
    111 CA         -3.3363   18.6775   27.3230 C.3       3 GLC5        0.0000 
    112 CA         -4.2255   14.9805   25.6371 C.3       3 GLC5        0.0000 
    113 CA         -5.1880   13.1220   25.2990 C.3       6 GLP5        0.0000 
    114 CA         -4.3048   16.5285   28.5795 C.3       3 GLC5        0.0000 
    115 CA         -4.2580   15.5950   30.2960 C.3       6 GLP5        0.0000 
@<TRIPOS>BOND
@<TRIPOS>SUBSTRUCTURE
     1 ALC1       12 GROUP        1 X    ALC  0     ROOT ALC X 1
     2 SEC2       27 GROUP        1 X    SEC  0     **** SEC X 2
     3 GLC5        1 GROUP        1 X    GLC  0     **** GLC X 6
     4 ALP1       14 GROUP        1 Y    ALP  0     ROOT ALP Y 8
     5 SEP2       29 GROUP        1 Y    SEP  0     **** SEP Y 9
     6 GLP5        3 GROUP        1 Y    GLP  0     **** GLP Y 13
     7 ALL1       13 GROUP        1 Z    ALL  0     ROOT ALL Z 15
     8 SEL2       28 GROUP        1 Z    SEL  0     **** SEL Z 16
     9 GLL5        2 GROUP        1 Z    GLL  0     **** GLL Z 20
@<TRIPOS>SET

