#    Name: 1ody_LP1_1_ligand
#    Modification time : Mon Mar 24 19:59:12 2014

@<TRIPOS>MOLECULE
1ody_LP1_1_ligand
  116   119     1     0     0
SMALL
NO_CHARGES


@<TRIPOS>ATOM
      1 C1        -12.2680   12.0100   36.8600 C.3       1 LP1201      0.0000 
      2 C2        -11.8930   12.1010   35.3620 C.2       1 LP1201      0.0000 
      3 C7        -14.0120   11.2390   32.4260 C.ar      1 LP1201      0.0000 
      4 C8        -15.2040   11.0480   33.1320 C.ar      1 LP1201      0.0000 
      5 C9        -15.7010    9.7630   33.3620 C.ar      1 LP1201      0.0000 
      6 C10       -15.0420    8.6280   32.8680 C.ar      1 LP1201      0.0000 
      7 C11       -13.3550   10.1170   31.9280 C.ar      1 LP1201      0.0000 
      8 C12       -13.8450    8.8080   32.1530 C.ar      1 LP1201      0.0000 
      9 C13       -12.1960   10.2580   31.1770 C.ar      1 LP1201      0.0000 
     10 C14       -13.1800    7.6870   31.6490 C.ar      1 LP1201      0.0000 
     11 C15       -11.5530    9.1200   30.6970 C.ar      1 LP1201      0.0000 
     12 C16       -12.0120    7.8480   30.9320 C.ar      1 LP1201      0.0000 
     13 C20       -10.1890   15.5120   31.7260 C.3       1 LP1201      0.0000 
     14 C21       -10.0690   15.4200   30.2400 C.2       1 LP1201      0.0000 
     15 C24        -8.3520   17.0970   32.1000 C.3       1 LP1201      0.0000 
     16 N26       -10.7240   16.2430   29.4300 N.am      1 LP1201      0.0000 
     17 C27       -10.5930   15.9960   27.9990 C.3       1 LP1201      0.0000 
     18 C30       -13.8330   13.9280   28.6550 C.3       1 LP1201      0.0000 
     19 C31       -12.0430   12.6320   27.6600 C.3       1 LP1201      0.0000 
     20 C32       -10.2510   17.2570   27.1470 C.3       1 LP1201      0.0000 
     21 C33        -8.7700   17.3840   26.7540 C.3       1 LP1201      0.0000 
     22 C35        -8.2670   16.5330   25.5880 C.2       1 LP1201      0.0000 
     23 O3        -10.8840   11.5100   34.9730 O.2       1 LP1201      0.0000 
     24 N4        -12.7330   12.8620   34.6340 N.am      1 LP1201      0.0000 
     25 C5        -12.4490   13.0650   33.2380 C.3       1 LP1201      0.0000 
     26 C6        -13.5400   12.6390   32.2510 C.3       1 LP1201      0.0000 
     27 C17       -11.9660   14.4570   32.9100 C.2       1 LP1201      0.0000 
     28 O18       -12.3550   15.5880   33.1120 O.2       1 LP1201      0.0000 
     29 N19       -10.8220   14.3290   32.2390 N.am      1 LP1201      0.0000 
     30 O22        -9.3540   14.5530   29.8000 O.2       1 LP1201      0.0000 
     31 C23        -8.8630   15.7340   32.4870 C.3       1 LP1201      0.0000 
     32 C25        -9.1530   15.6940   33.9620 C.3       1 LP1201      0.0000 
     33 C28       -11.9030   15.2320   27.6080 C.3       1 LP1201      0.0000 
     34 C29       -12.3630   13.9440   28.3320 C.3       1 LP1201      0.0000 
     35 O34       -10.6590   18.4650   27.7340 O.3       1 LP1201      0.0000 
     36 O36        -7.9150   15.3530   25.6560 O.2       1 LP1201      0.0000 
     37 N37        -8.1860   17.0860   24.3750 N.am      1 LP1201      0.0000 
     38 C38        -7.6920   16.4950   23.1670 C.3       1 LP1201      0.0000 
     39 C39        -8.7970   15.8350   22.2930 C.3       1 LP1201      0.0000 
     40 C40        -9.8170   15.0860   23.1170 C.3       1 LP1201      0.0000 
     41 C41        -6.8950   17.4910   22.3410 C.2       1 LP1201      0.0000 
     42 O42        -7.3000   18.6310   22.0000 O.2       1 LP1201      0.0000 
     43 N43        -5.7040   17.0100   21.9170 N.am      1 LP1201      0.0000 
     44 C44        -4.8100   17.8080   21.1030 C.3       1 LP1201      0.0000 
     45 C45        -3.8720   18.7200   21.9460 C.3       1 LP1201      0.0000 
     46 C46        -3.2710   17.8900   23.0970 C.ar      1 LP1201      0.0000 
     47 C47        -2.1820   17.0640   22.8050 C.ar      1 LP1201      0.0000 
     48 C48        -1.6580   16.2200   23.7910 C.ar      1 LP1201      0.0000 
     49 C49        -2.1820   16.2120   25.0730 C.ar      1 LP1201      0.0000 
     50 C50        -3.8380   17.8700   24.3910 C.ar      1 LP1201      0.0000 
     51 C51        -3.2620   17.0340   25.4140 C.ar      1 LP1201      0.0000 
     52 C52        -4.9160   18.6860   24.7440 C.ar      1 LP1201      0.0000 
     53 C53        -3.8040   17.0550   26.7070 C.ar      1 LP1201      0.0000 
     54 C54        -5.4270   18.6830   26.0500 C.ar      1 LP1201      0.0000 
     55 C55        -4.8990   17.8690   27.0190 C.ar      1 LP1201      0.0000 
     56 C56        -4.2980   16.9850   19.9730 C.2       1 LP1201      0.0000 
     57 O57        -4.0630   15.7620   20.0710 O.2       1 LP1201      0.0000 
     58 N58        -4.1180   17.5210   18.7800 N.am      1 LP1201      0.0000 
     59 H         -15.7220   11.8664   33.4869 H         1 LP1201      0.0000 
     60 H         -16.5720    9.6438   33.9071 H         1 LP1201      0.0000 
     61 H         -15.4179    7.7005   33.0217 H         1 LP1201      0.0000 
     62 H         -11.8168   11.1872   30.9773 H         1 LP1201      0.0000 
     63 H         -13.5657    6.7496   31.8159 H         1 LP1201      0.0000 
     64 H         -10.6769    9.2497   30.1298 H         1 LP1201      0.0000 
     65 H         -11.5002    7.0323   30.5836 H         1 LP1201      0.0000 
     66 H         -10.8364   16.3808   31.9676 H         1 LP1201      0.0000 
     67 H         -11.2973   17.0153   29.7260 H         1 LP1201      0.0000 
     68 H          -9.7732   15.2555   27.8574 H         1 LP1201      0.0000 
     69 H         -10.8030   17.1263   26.1716 H         1 LP1201      0.0000 
     70 H          -8.1482   17.1559   27.6554 H         1 LP1201      0.0000 
     71 H          -8.5594   18.4589   26.5271 H         1 LP1201      0.0000 
     72 H         -13.5645   13.3037   35.0249 H         1 LP1201      0.0000 
     73 H         -11.5509   12.3894   32.9672 H         1 LP1201      0.0000 
     74 H         -14.3922   13.3395   32.3555 H         1 LP1201      0.0000 
     75 H         -13.1493   12.7790   31.2236 H         1 LP1201      0.0000 
     76 H         -10.3664   13.4306   32.0675 H         1 LP1201      0.0000 
     77 H          -8.1801   14.9869   32.2124 H         1 LP1201      0.0000 
     78 H         -11.8392   15.0035   26.4964 H         1 LP1201      0.0000 
     79 H         -12.7557   15.9821   27.6549 H         1 LP1201      0.0000 
     80 H         -11.8356   13.9242   29.3295 H         1 LP1201      0.0000 
     81 H          -8.5288   18.1115   24.2522 H         1 LP1201      0.0000 
     82 H          -6.9808   15.6690   23.4207 H         1 LP1201      0.0000 
     83 H          -8.3114   15.1516   21.5882 H         1 LP1201      0.0000 
     84 H          -9.2902   16.6234   21.7144 H         1 LP1201      0.0000 
     85 H          -5.3859   16.0529   22.1582 H         1 LP1201      0.0000 
     86 H          -5.5443   18.5830   20.5847 H         1 LP1201      0.0000 
     87 H          -4.4474   19.5341   22.3509 H         1 LP1201      0.0000 
     88 H          -3.0813   19.0867   21.3149 H         1 LP1201      0.0000 
     89 H          -1.7657   17.0757   21.8673 H         1 LP1201      0.0000 
     90 H          -0.8685   15.5960   23.5525 H         1 LP1201      0.0000 
     91 H          -1.7737   15.5919   25.7932 H         1 LP1201      0.0000 
     92 H          -5.3443   19.3012   24.0343 H         1 LP1201      0.0000 
     93 H          -3.3875   16.4595   27.4407 H         1 LP1201      0.0000 
     94 H          -6.2206   19.3142   26.2741 H         1 LP1201      0.0000 
     95 H          -5.2926   17.8476   27.9652 H         1 LP1201      0.0000 
     96 H          -4.3066   18.5002   18.7045 H         1 LP1201      0.0000 
     97 H          -3.8094   16.8991   18.0602 H         1 LP1201      0.0000 
     98 H         -11.5466   12.3783   37.4465 H         1 LP1201      0.0000 
     99 H         -13.1025   12.5212   37.0657 H         1 LP1201      0.0000 
    100 H         -12.4250   11.0650   37.1468 H         1 LP1201      0.0000 
    101 H          -7.4911   17.3151   32.5596 H         1 LP1201      0.0000 
    102 H          -8.1848   17.1655   31.1165 H         1 LP1201      0.0000 
    103 H          -9.0022   17.8187   32.3377 H         1 LP1201      0.0000 
    104 H         -14.0703   13.1748   29.2685 H         1 LP1201      0.0000 
    105 H         -14.1241   14.7735   29.1027 H         1 LP1201      0.0000 
    106 H         -14.3928   13.8239   27.8329 H         1 LP1201      0.0000 
    107 H         -11.0770   12.5690   27.4094 H         1 LP1201      0.0000 
    108 H         -12.2434   11.8523   28.2532 H         1 LP1201      0.0000 
    109 H         -12.5723   12.5057   26.8210 H         1 LP1201      0.0000 
    110 H          -8.3266   15.8356   34.5070 H         1 LP1201      0.0000 
    111 H          -9.8065   16.4014   34.2313 H         1 LP1201      0.0000 
    112 H          -9.5408   14.8153   34.2406 H         1 LP1201      0.0000 
    113 H          -9.3970   14.3514   23.6498 H         1 LP1201      0.0000 
    114 H         -10.2850   15.6872   23.7647 H         1 LP1201      0.0000 
    115 H         -10.5216   14.6668   22.5444 H         1 LP1201      0.0000 
    116 H         -11.2997   18.8670   27.0799 H         1 LP1201      0.0000 
@<TRIPOS>BOND
     1    2    1 1    
     2   98    1 1    
     3   99    1 1    
     4  100    1 1    
     5   23    2 2    
     6   24    2 am   
     7    4    3 ar   
     8    7    3 ar   
     9   26    3 1    
    10    5    4 ar   
    11   59    4 1    
    12    6    5 ar   
    13   60    5 1    
    14    8    6 ar   
    15   61    6 1    
    16    8    7 ar   
    17    9    7 ar   
    18   10    8 ar   
    19   11    9 ar   
    20   62    9 1    
    21   12   10 ar   
    22   63   10 1    
    23   12   11 ar   
    24   64   11 1    
    25   65   12 1    
    26   14   13 1    
    27   29   13 1    
    28   31   13 1    
    29   66   13 1    
    30   16   14 am   
    31   30   14 2    
    32   31   15 1    
    33  101   15 1    
    34  102   15 1    
    35  103   15 1    
    36   17   16 1    
    37   67   16 1    
    38   20   17 1    
    39   33   17 1    
    40   68   17 1    
    41   34   18 1    
    42  104   18 1    
    43  105   18 1    
    44  106   18 1    
    45   34   19 1    
    46  107   19 1    
    47  108   19 1    
    48  109   19 1    
    49   21   20 1    
    50   35   20 1    
    51   69   20 1    
    52   22   21 1    
    53   70   21 1    
    54   71   21 1    
    55   36   22 2    
    56   37   22 am   
    57   25   24 1    
    58   72   24 1    
    59   26   25 1    
    60   27   25 1    
    61   73   25 1    
    62   74   26 1    
    63   75   26 1    
    64   28   27 2    
    65   29   27 am   
    66   76   29 1    
    67   32   31 1    
    68   77   31 1    
    69  110   32 1    
    70  111   32 1    
    71  112   32 1    
    72   34   33 1    
    73   78   33 1    
    74   79   33 1    
    75   80   34 1    
    76  116   35 1    
    77   38   37 1    
    78   81   37 1    
    79   39   38 1    
    80   41   38 1    
    81   82   38 1    
    82   40   39 1    
    83   83   39 1    
    84   84   39 1    
    85  113   40 1    
    86  114   40 1    
    87  115   40 1    
    88   42   41 2    
    89   43   41 am   
    90   44   43 1    
    91   85   43 1    
    92   45   44 1    
    93   56   44 1    
    94   86   44 1    
    95   46   45 1    
    96   87   45 1    
    97   88   45 1    
    98   47   46 ar   
    99   50   46 ar   
   100   48   47 ar   
   101   89   47 1    
   102   49   48 ar   
   103   90   48 1    
   104   51   49 ar   
   105   91   49 1    
   106   51   50 ar   
   107   52   50 ar   
   108   53   51 ar   
   109   54   52 ar   
   110   92   52 1    
   111   55   53 ar   
   112   93   53 1    
   113   55   54 ar   
   114   94   54 1    
   115   95   55 1    
   116   57   56 2    
   117   58   56 am   
   118   96   58 1    
   119   97   58 1    
@<TRIPOS>SUBSTRUCTURE
     1 LP1201      1 GROUP   
@<TRIPOS>SET

