#    Name: 3le6_2BZ_1_INTS_M
#    Modification time : Mon Mar 24 21:33:34 2014

@<TRIPOS>MOLECULE
3le6_2BZ_1_INTS_M
   48     0     6     0     0
SMALL
NO_CHARGES


@<TRIPOS>ATOM
      1 CA         -2.3520   22.5755    9.0870 C.3       2 GLC5        0.0000 
      2 CA         -1.1910   24.2650    9.3580 C.3       6 GLL5        0.0000 
      3 CA         -3.5130   20.8860    8.8160 C.3       4 GLP5        0.0000 
      4 CA          0.5050   28.3250    5.6705 C.3       2 GLC5        0.0000 
      5 CA          0.4800   29.6430    7.4580 C.3       6 GLL5        0.0000 
      6 CA          0.5300   27.0070    3.8830 C.3       4 GLP5        0.0000 
      7 CA          5.7675   28.5870    5.2215 C.3       2 GLC5        0.0000 
      8 CA          4.1770   27.3150    6.1740 C.3       6 GLL5        0.0000 
      9 CA          7.3580   29.8590    4.2690 C.3       4 GLP5        0.0000 
     10 CA          4.9280   25.7750    9.3260 C.3       2 GLC5        0.0000 
     11 CA          3.9750   25.2270    7.4340 C.3       6 GLL5        0.0000 
     12 CA          5.8810   26.3230   11.2180 C.3       4 GLP5        0.0000 
     13 CA         -1.5540   30.9875    6.3065 C.3       2 GLC5        0.0000 
     14 CA         -1.5030   31.1300    8.2810 C.3       6 GLL5        0.0000 
     15 CA         -1.6050   30.8450    4.3320 C.3       4 GLP5        0.0000 
     16 CA         -1.0700   33.0775    8.8300 C.3       2 GLC5        0.0000 
     17 CA         -0.6370   35.0250    9.3790 C.3       4 GLP5        0.0000 
     18 CA          0.4900   31.2885    8.9930 C.3       2 GLC5        0.0000 
     19 CA          2.4830   31.4470    9.7050 C.3       4 GLP5        0.0000 
     20 CA         -0.9400   31.2590   10.4500 C.3       2 GLC5        0.0000 
     21 CA         -0.3770   31.3880   12.6190 C.3       4 GLP5        0.0000 
     22 N           2.6180   32.0245    5.6165 N.am      1 SEC2        0.0000 
     23 N           1.4750   31.1930    6.1400 N.am      5 SEL2        0.0000 
     24 N           3.7610   32.8560    5.0930 N.am      3 SEP2        0.0000 
     25 CA          1.1530   28.0745   13.1195 C.3       2 GLC5        0.0000 
     26 CA          0.6580   27.9630   11.3420 C.3       6 GLL5        0.0000 
     27 CA          1.6480   28.1860   14.8970 C.3       4 GLP5        0.0000 
     28 CA          2.2440   28.6820   10.7890 C.3       2 GLC5        0.0000 
     29 CA          3.8300   29.4010   10.2360 C.3       4 GLP5        0.0000 
     30 CA          0.1405   29.6755   11.9805 C.3       2 GLC5        0.0000 
     31 CA          6.3790   27.3957    6.9290 C.3       2 GLC5        0.0000 
     32 CA          8.3160   28.1120    7.5040 C.3       4 GLP5        0.0000 
     33 CA         -0.7502   30.5315    5.9145 C.3       2 GLC5        0.0000 
     34 CA         -2.1570   32.3787    7.2832 C.3       2 GLC5        0.0000 
     35 CA         -0.2710   30.7930    7.5360 C.3       6 GLL5        0.0000 
     36 CA         -3.4270   33.7960    6.6580 C.3       4 GLP5        0.0000 
     37 CA          1.2938   30.8325    8.6010 C.3       2 GLC5        0.0000 
     38 CA         -0.7107   23.2135    7.7728 C.3       2 GLC5        0.0000 
     39 CA         -0.5180   25.2110    8.5370 C.3       6 GLL5        0.0000 
     40 CA         -0.5670   21.6890    6.5980 C.3       4 GLP5        0.0000 
     41 CA         -2.9573   23.8840   10.7200 C.3       2 GLC5        0.0000 
     42 CA         -4.6790   23.4010   11.3800 C.3       4 GLP5        0.0000 
     43 CA         -2.3789   25.4536    8.2609 C.3       2 GLC5        0.0000 
     44 CA         -4.0520   25.8770    7.4240 C.3       4 GLP5        0.0000 
     45 CA          1.9442   27.1818    5.2724 C.3       2 GLC5        0.0000 
     46 CA          2.1670   26.9850    7.6090 C.3       6 GLL5        0.0000 
     47 CA          3.2340   27.9733    8.8946 C.3       2 GLC5        0.0000 
     48 CA          2.9130   27.8110    6.6900 C.3       6 GLL5        0.0000 
@<TRIPOS>BOND
@<TRIPOS>SUBSTRUCTURE
     1 SEC2       22 GROUP        1 X    SEC  0     ROOT SEC X 2
     2 GLC5        1 GROUP        1 X    GLC  0     **** GLC X 6
     3 SEP2       24 GROUP        1 Y    SEP  0     ROOT SEP Y 9
     4 GLP5        3 GROUP        1 Y    GLP  0     **** GLP Y 13
     5 SEL2       23 GROUP        1 Z    SEL  0     ROOT SEL Z 16
     6 GLL5        2 GROUP        1 Z    GLL  0     **** GLL Z 20
@<TRIPOS>SET

