#    Name: 3le6_2BZ_1_ligand
#    Modification time : Mon Mar 24 21:33:35 2014

@<TRIPOS>MOLECULE
3le6_2BZ_1_ligand
   35    38     1     0     0
SMALL
NO_CHARGES


@<TRIPOS>ATOM
      1 N3          2.5380   29.0900    6.2220 N.2       1 2BZ299      0.0000 
      2 C4          2.9130   27.8110    6.6900 C.ar      1 2BZ299      0.0000 
      3 C5          2.1670   26.9850    7.6090 C.ar      1 2BZ299      0.0000 
      4 C6          0.8050   27.3850    8.2440 C.2       1 2BZ299      0.0000 
      5 C7          0.0770   26.3800    9.1380 C.ar      1 2BZ299      0.0000 
      6 C10         4.7070   26.0440    6.5340 C.ar      1 2BZ299      0.0000 
      7 C13        -0.2710   30.7930    7.5360 C.2       1 2BZ299      0.0000 
      8 C20        -0.5180   25.2110    8.5370 C.ar      1 2BZ299      0.0000 
      9 C21        -1.1910   24.2650    9.3580 C.ar      1 2BZ299      0.0000 
     10 C22        -1.2800   24.4690   10.7620 C.ar      1 2BZ299      0.0000 
     11 C24        -0.0210   26.5810   10.5560 C.ar      1 2BZ299      0.0000 
     12 C1          0.4800   29.6430    7.4580 C.2       1 2BZ299      0.0000 
     13 C2          1.5470   29.9330    6.5870 C.2       1 2BZ299      0.0000 
     14 N8          0.1130   28.4980    8.1720 N.2       1 2BZ299      0.0000 
     15 C9          4.1770   27.3150    6.1740 C.ar      1 2BZ299      0.0000 
     16 C11         3.9750   25.2270    7.4340 C.ar      1 2BZ299      0.0000 
     17 C12         2.7360   25.6930    7.9570 C.ar      1 2BZ299      0.0000 
     18 C14        -1.5030   31.1300    8.2810 C.3       1 2BZ299      0.0000 
     19 N15         0.3730   31.6850    6.7280 N.2       1 2BZ299      0.0000 
     20 N16         1.4750   31.1930    6.1400 N.2       1 2BZ299      0.0000 
     21 N17         4.4790   23.8830    7.8310 N.pl3     1 2BZ299      0.0000 
     22 O18         3.7970   23.2160    8.6280 O.2       1 2BZ299      0.0000 
     23 O19         5.5460   23.4790    7.3310 O.2       1 2BZ299      0.0000 
     24 C23        -0.7000   25.6210   11.3610 C.ar      1 2BZ299      0.0000 
     25 CL25        0.6580   27.9630   11.3420 Cl        1 2BZ299      0.0000 
     26 H           5.5889   25.7309    6.1544 H         1 2BZ299      0.0000 
     27 H          -0.4517   25.0737    7.5372 H         1 2BZ299      0.0000 
     28 H          -1.6117   23.4364    8.9375 H         1 2BZ299      0.0000 
     29 H          -1.7636   23.7839   11.3445 H         1 2BZ299      0.0000 
     30 H           4.7024   27.9170    5.5214 H         1 2BZ299      0.0000 
     31 H           2.2075   25.0956    8.6145 H         1 2BZ299      0.0000 
     32 H          -0.7693   25.7614   12.3672 H         1 2BZ299      0.0000 
     33 H          -1.3776   31.0347    9.2685 H         1 2BZ299      0.0000 
     34 H          -1.7933   32.0719    8.1119 H         1 2BZ299      0.0000 
     35 H          -2.2663   30.5373    8.0239 H         1 2BZ299      0.0000 
@<TRIPOS>BOND
     1    2    1 1    
     2   13    1 2    
     3    3    2 ar   
     4   15    2 ar   
     5    4    3 1    
     6   17    3 ar   
     7    5    4 1    
     8   14    4 2    
     9    8    5 ar   
    10   11    5 ar   
    11   15    6 ar   
    12   16    6 ar   
    13   26    6 1    
    14   12    7 2    
    15   18    7 1    
    16   19    7 1    
    17    9    8 ar   
    18   27    8 1    
    19   10    9 ar   
    20   28    9 1    
    21   24   10 ar   
    22   29   10 1    
    23   24   11 ar   
    24   25   11 1    
    25   13   12 1    
    26   14   12 1    
    27   20   13 1    
    28   30   15 1    
    29   17   16 ar   
    30   21   16 1    
    31   31   17 1    
    32   33   18 1    
    33   34   18 1    
    34   35   18 1    
    35   20   19 2    
    36   22   21 2    
    37   23   21 2    
    38   32   24 1    
@<TRIPOS>SUBSTRUCTURE
     1 2BZ299      1 GROUP   
@<TRIPOS>SET

