#    Name: 2DAA_1_CAVITY_N1_ALL.mol2
#    Modification time : Tue Mar 11 08:22:15 2014

@<TRIPOS>MOLECULE
2DAA_1_CAVITY_N1_ALL.mol2
  131     0     6     0     0
SMALL
NO_CHARGES


@<TRIPOS>ATOM
      1 N          20.6413   28.7221    3.0837 N.2       2 ALA2        0.0000 
      2 OG         19.6807   28.4024    4.1904 O.2       1 SER1        0.0000 
      3 CA         20.5316   27.3130    2.5813 C.3       5 GLY6        0.0000 
      4 OG         20.9372   29.4088    5.5718 O.2       1 SER1        0.0000 
      5 N          22.7488   28.6391    2.8560 N.2       2 ALA2        0.0000 
      6 OG         21.7881   28.3194    3.9628 O.2       1 SER1        0.0000 
      7 OG         20.8274   27.9997    5.0695 O.2       1 SER1        0.0000 
      8 N          22.6390   27.2300    2.3537 N.2       2 ALA2        0.0000 
      9 DU         21.6783   26.9103    3.4604 H         6 CUB7        0.0000 
     10 OG         20.7177   26.5906    4.5672 O.2       1 SER1        0.0000 
     11 CA         21.7818   37.1412   10.5716 C.3       5 GLY6        0.0000 
     12 OG         21.2330   30.0955    8.0600 O.2       1 SER1        0.0000 
     13 CA         24.9660   29.9652    3.1307 C.3       5 GLY6        0.0000 
     14 OG         24.0053   29.6455    4.2374 O.2       1 SER1        0.0000 
     15 OG         22.0839   29.0061    6.4509 O.2       1 SER1        0.0000 
     16 OG         21.1233   28.6864    7.5576 O.2       1 SER1        0.0000 
     17 N          24.8562   28.5561    2.6283 N.2       2 ALA2        0.0000 
     18 N          23.8955   28.2364    3.7351 N.2       2 ALA2        0.0000 
     19 OG         22.9349   27.9167    4.8418 O.2       1 SER1        0.0000 
     20 OG         21.9742   27.5970    5.9486 O.2       1 SER1        0.0000 
     21 N          24.7465   27.1470    2.1260 N.2       2 ALA2        0.0000 
     22 N          23.7858   26.8273    3.2328 N.2       2 ALA2        0.0000 
     23 DU         22.8251   26.5076    4.3395 H         6 CUB7        0.0000 
     24 OG         21.8644   26.1879    5.4463 O.2       1 SER1        0.0000 
     25 OG         20.9037   25.8682    6.5530 O.2       1 SER1        0.0000 
     26 OD1        23.8893   37.0582   10.3439 O.3       3 ASP3        0.0000 
     27 OD1        22.9286   36.7385   11.4506 O.3       3 ASP3        0.0000 
     28 N          21.9679   36.4188   12.5574 N.2       2 ALA2        0.0000 
     29 OG         24.7402   35.9687    8.7348 O.2       1 SER1        0.0000 
     30 O          23.7795   35.6490    9.8416 O.2       2 ALA2        0.0000 
     31 CA         22.8188   35.3293   10.9483 C.3       5 GLY6        0.0000 
     32 N          21.8582   35.0096   12.0551 N.2       2 ALA2        0.0000 
     33 CA         24.6304   34.5596    8.2325 C.3       5 GLY6        0.0000 
     34 CA         23.6698   34.2399    9.3393 C.3       5 GLY6        0.0000 
     35 N          22.7091   33.9202   10.4460 N.2       2 ALA2        0.0000 
     36 CA         25.4813   33.4702    6.6234 C.3       5 GLY6        0.0000 
     37 OG         24.5207   33.1505    7.7302 O.2       1 SER1        0.0000 
     38 OG         23.5600   32.8308    8.8369 O.2       1 SER1        0.0000 
     39 CA         26.3323   32.3808    5.0144 C.3       5 GLY6        0.0000 
     40 CA         25.3716   32.0611    6.1211 C.3       5 GLY6        0.0000 
     41 OG         23.4502   31.4217    8.3346 O.2       1 SER1        0.0000 
     42 CA         26.2225   30.9716    4.5121 C.3       5 GLY6        0.0000 
     43 OG         25.2618   30.6519    5.6188 O.2       1 SER1        0.0000 
     44 OG         23.3405   30.0125    7.8323 O.2       1 SER1        0.0000 
     45 OG         22.3798   29.6928    8.9390 O.2       1 SER1        0.0000 
     46 O          26.1127   29.5625    4.0097 O.2       2 ALA2        0.0000 
     47 OG         25.1521   29.2428    5.1165 O.2       1 SER1        0.0000 
     48 OG         24.1914   28.9231    6.2232 O.2       1 SER1        0.0000 
     49 OG         23.2307   28.6034    7.3300 O.2       1 SER1        0.0000 
     50 OG         22.2700   28.2837    8.4367 O.2       1 SER1        0.0000 
     51 OD1        21.3093   27.9640    9.5435 O.3       3 ASP3        0.0000 
     52 N          26.9637   28.4731    2.4007 N.2       2 ALA2        0.0000 
     53 DU         26.0030   28.1534    3.5074 H         6 CUB7        0.0000 
     54 DU         25.0423   27.8337    4.6142 H         6 CUB7        0.0000 
     55 DU         24.0816   27.5140    5.7209 H         6 CUB7        0.0000 
     56 DU         23.1209   27.1943    6.8277 H         6 CUB7        0.0000 
     57 OG         22.1603   26.8746    7.9344 O.2       1 SER1        0.0000 
     58 OD1        21.1996   26.5549    9.0412 O.3       3 ASP3        0.0000 
     59 OD1        26.8539   27.0640    1.8984 O.3       3 ASP3        0.0000 
     60 DU         25.8932   26.7443    3.0051 H         6 CUB7        0.0000 
     61 DU         24.9325   26.4246    4.1119 H         6 CUB7        0.0000 
     62 DU         23.0112   25.7852    6.3253 H         6 CUB7        0.0000 
     63 CZ         22.0505   25.4655    7.4321 C.ar      4 PHE5        0.0000 
     64 OD1        24.0754   36.3358   12.3297 O.3       3 ASP3        0.0000 
     65 CA         23.1147   36.0161   13.4365 C.3       5 GLY6        0.0000 
     66 N          22.1540   35.6964   14.5432 N.2       2 ALA2        0.0000 
     67 OD1        25.8870   35.5660    9.6139 O.3       3 ASP3        0.0000 
     68 OD1        24.9263   35.2463   10.7207 O.3       3 ASP3        0.0000 
     69 OD1        23.9656   34.9266   11.8274 O.3       3 ASP3        0.0000 
     70 N          23.0049   34.6069   12.9342 N.2       2 ALA2        0.0000 
     71 O          22.0442   34.2872   14.0409 O.2       2 ALA2        0.0000 
     72 CA         25.7772   34.1569    9.1116 C.3       5 GLY6        0.0000 
     73 N          24.8165   33.8372   10.2183 N.2       2 ALA2        0.0000 
     74 N          23.8558   33.5175   11.3251 N.2       2 ALA2        0.0000 
     75 CA         26.6281   33.0675    7.5025 C.3       5 GLY6        0.0000 
     76 DU         25.6674   32.7478    8.6093 H         6 CUB7        0.0000 
     77 N          24.7067   32.4281    9.7160 N.2       2 ALA2        0.0000 
     78 N          28.4397   32.2978    4.7867 N.2       2 ALA2        0.0000 
     79 O          27.4790   31.9781    5.8935 O.2       2 ALA2        0.0000 
     80 O          26.5183   31.6584    7.0002 O.2       2 ALA2        0.0000 
     81 OG         25.5577   31.3387    8.1070 O.2       1 SER1        0.0000 
     82 OG         24.5970   31.0190    9.2137 O.2       1 SER1        0.0000 
     83 N          28.3299   30.8886    4.2844 N.2       2 ALA2        0.0000 
     84 O          27.3693   30.5689    5.3911 O.2       2 ALA2        0.0000 
     85 O          26.4086   30.2492    6.4979 O.2       2 ALA2        0.0000 
     86 OG         25.4479   29.9295    7.6046 O.2       1 SER1        0.0000 
     87 OG         24.4872   29.6098    8.7114 O.2       1 SER1        0.0000 
     88 N          28.2202   29.4795    3.7821 N.2       2 ALA2        0.0000 
     89 N          27.2595   29.1598    4.8888 N.2       2 ALA2        0.0000 
     90 DU         26.2988   28.8401    5.9956 H         6 CUB7        0.0000 
     91 DU         25.3381   28.5204    7.1023 H         6 CUB7        0.0000 
     92 OG         24.3775   28.2007    8.2091 O.2       1 SER1        0.0000 
     93 OG         23.4168   27.8810    9.3158 O.2       1 SER1        0.0000 
     94 CA         29.0711   28.3901    2.1730 C.3       5 GLY6        0.0000 
     95 N          28.1104   28.0704    3.2798 N.2       2 ALA2        0.0000 
     96 N          27.1497   27.7507    4.3865 N.2       2 ALA2        0.0000 
     97 DU         26.1890   27.4310    5.4933 H         6 CUB7        0.0000 
     98 DU         25.2284   27.1113    6.6000 H         6 CUB7        0.0000 
     99 DU         24.2677   26.7916    7.7067 H         6 CUB7        0.0000 
    100 OD1        23.3070   26.4719    8.8135 O.3       3 ASP3        0.0000 
    101 N          27.0400   26.3416    3.8842 N.2       2 ALA2        0.0000 
    102 DU         26.0793   26.0219    4.9909 H         6 CUB7        0.0000 
    103 DU         25.1186   25.7022    6.0977 H         6 CUB7        0.0000 
    104 N          24.1579   25.3825    7.2044 N.2       2 ALA2        0.0000 
    105 N          23.1972   25.0628    8.3112 N.2       2 ALA2        0.0000 
    106 CA         23.3007   35.2937   15.4223 C.3       5 GLY6        0.0000 
    107 OD1        25.1123   34.5239   12.7065 O.3       3 ASP3        0.0000 
    108 CA         24.1517   34.2042   13.8132 C.3       5 GLY6        0.0000 
    109 O          23.1910   33.8845   14.9200 O.2       2 ALA2        0.0000 
    110 OG         26.9239   33.7542    9.9907 O.2       1 SER1        0.0000 
    111 OG         25.9633   33.4345   11.0974 O.2       1 SER1        0.0000 
    112 CA         25.0026   33.1148   12.2042 C.3       5 GLY6        0.0000 
    113 O          27.7749   32.6648    8.3816 O.2       2 ALA2        0.0000 
    114 O          26.8142   32.3451    9.4884 O.2       2 ALA2        0.0000 
    115 N          25.8535   32.0254   10.5951 N.2       2 ALA2        0.0000 
    116 O          26.7044   30.9360    8.9860 O.2       2 ALA2        0.0000 
    117 N          25.7437   30.6163   10.0928 N.2       2 ALA2        0.0000 
    118 O          29.4767   30.4859    5.1635 O.2       2 ALA2        0.0000 
    119 CA         26.5946   29.5268    8.4837 C.3       5 GLY6        0.0000 
    120 CA         25.6340   29.2071    9.5905 C.3       5 GLY6        0.0000 
    121 N          29.3669   29.0768    4.6612 N.2       2 ALA2        0.0000 
    122 N          28.4062   28.7571    5.7679 N.2       2 ALA2        0.0000 
    123 O          27.4456   28.4374    6.8747 O.2       2 ALA2        0.0000 
    124 CA         26.4849   28.1177    7.9814 C.3       5 GLY6        0.0000 
    125 CA         25.5242   27.7980    9.0882 C.3       5 GLY6        0.0000 
    126 CA         27.3358   27.0283    6.3723 C.3       5 GLY6        0.0000 
    127 CA         26.3751   26.7086    7.4791 C.3       5 GLY6        0.0000 
    128 O          25.4144   26.3889    8.5858 O.2       2 ALA2        0.0000 
    129 CA         27.2260   25.6192    5.8700 C.3       5 GLY6        0.0000 
    130 N          25.3047   24.9798    8.0835 N.2       2 ALA2        0.0000 
    131 OG         26.1493   32.7121   13.0833 O.2       1 SER1        0.0000 
@<TRIPOS>BOND
@<TRIPOS>SUBSTRUCTURE
     1 SER1        2 GROUP   
     2 ALA2        1 GROUP   
     3 ASP3       26 GROUP   
     4 PHE5       63 GROUP   
     5 GLY6        3 GROUP   
     6 CUB7        9 GROUP   
@<TRIPOS>SET

