#    Name: 2daa_DCS_1_INTS_M
#    Modification time : Tue Mar 25 09:44:33 2014

@<TRIPOS>MOLECULE
2daa_DCS_1_INTS_M
   53     0     9     0     0
SMALL
NO_CHARGES


@<TRIPOS>ATOM
      1 CA         21.7130   33.3930   14.3435 C.3       3 GLC5        0.0000 
      2 CA         23.5830   34.1380   15.3220 C.3       9 GLL5        0.0000 
      3 CA         19.8430   32.6480   13.3650 C.3       6 GLP5        0.0000 
      4 CA         22.5815   33.3735   18.0040 C.3       3 GLC5        0.0000 
      5 CA         24.1860   33.3680   16.4690 C.3       9 GLL5        0.0000 
      6 CA         20.9770   33.3790   19.5390 C.3       6 GLP5        0.0000 
      7 CA         22.1920   34.2350   10.4390 C.3       3 GLC5        0.0000 
      8 CA         24.0530   34.7580   11.5410 C.3       9 GLL5        0.0000 
      9 CA         20.3310   33.7120    9.3370 C.3       6 GLP5        0.0000 
     10 CA         20.7195   34.4290   12.7800 C.3       3 GLC5        0.0000 
     11 CA         21.5960   36.2100   12.1950 C.3       9 GLL5        0.0000 
     12 CA         21.2235   38.2550   12.8005 C.3       3 GLC5        0.0000 
     13 CA         20.8510   40.3000   13.4060 C.3       6 GLP5        0.0000 
     14 CA         20.5855   35.6060   10.6075 C.3       3 GLC5        0.0000 
     15 CA         19.5750   35.0020    9.0200 C.3       6 GLP5        0.0000 
     16 NZ         24.1745   39.7070   10.8080 N.4       2 LYC4        0.0000 
     17 NZ         22.7630   39.3320   10.4500 N.4       8 LYL4        0.0000 
     18 NZ         25.2160   41.0110   12.0270 N.4       5 LYP4        0.0000 
     19 N          23.3920   40.1330   11.5205 N.am      1 SEC2        0.0000 
     20 N          22.7630   39.3320   10.4500 N.am      7 SEL2        0.0000 
     21 N          24.0210   40.9340   12.5910 N.am      4 SEP2        0.0000 
     22 N          24.1745   39.7070   10.8080 N.am      1 SEC2        0.0000 
     23 N          25.5860   40.0820   11.1660 N.am      4 SEP2        0.0000 
     24 N          21.8415   40.3615   10.8485 N.am      1 SEC2        0.0000 
     25 N          20.9200   41.3910   11.2470 N.am      4 SEP2        0.0000 
     26 N          21.8250   36.5640    8.3820 N.am      1 SEC2        0.0000 
     27 N          22.6610   37.1190    9.4270 N.am      7 SEL2        0.0000 
     28 N          20.9890   36.0090    7.3370 N.am      4 SEP2        0.0000 
     29 N          22.7510   37.6450    8.1610 N.am      1 SEC2        0.0000 
     30 N          22.8410   38.1710    6.8950 N.am      4 SEP2        0.0000 
     31 N          19.7955   39.4360    9.8635 N.am      1 SEC2        0.0000 
     32 N          20.6160   38.1890   10.2720 N.am      7 SEL2        0.0000 
     33 N          18.9750   40.6830    9.4550 N.am      4 SEP2        0.0000 
     34 N          19.8035   38.2965    9.1310 N.am      1 SEC2        0.0000 
     35 N          18.9910   38.4040    7.9900 N.am      4 SEP2        0.0000 
     36 N          29.1380   31.9510   10.4450 N.am      1 SEC2        0.0000 
     37 N          27.6570   32.3600   10.8860 N.am      7 SEL2        0.0000 
     38 N          30.6190   31.5420   10.0040 N.am      4 SEP2        0.0000 
     39 N          27.5950   30.8875   11.2525 N.am      1 SEC2        0.0000 
     40 N          27.5330   29.4150   11.6190 N.am      4 SEP2        0.0000 
     41 CA         26.8880   34.4500    7.7860 C.3       3 GLC5        0.0000 
     42 CA         25.1720   33.7990    8.7820 C.3       9 GLL5        0.0000 
     43 CA         28.6040   35.1010    6.7900 C.3       6 GLP5        0.0000 
     44 CA         23.4973   32.2145   14.6908 C.3       3 GLC5        0.0000 
     45 CA         23.1100   30.6760   13.4860 C.3       6 GLP5        0.0000 
     46 CA         24.4210   36.0102   14.7563 C.3       3 GLC5        0.0000 
     47 CA         24.9830   37.9170   14.8320 C.3       6 GLP5        0.0000 
     48 CA         23.4660   32.5445   13.4942 C.3       3 GLC5        0.0000 
     49 CA         24.1350   34.0690   14.0390 C.3       9 GLL5        0.0000 
     50 CA         21.1337   33.9952   13.6118 C.3       3 GLC5        0.0000 
     51 CA         23.5090   34.7570   12.9660 C.3       9 GLL5        0.0000 
     52 CA         23.7037   36.6298   14.3453 C.3       3 GLC5        0.0000 
     53 CA         22.3530   35.4890   13.2680 C.3       9 GLL5        0.0000 
@<TRIPOS>BOND
@<TRIPOS>SUBSTRUCTURE
     1 SEC2       19 GROUP        1 X    SEC  0     ROOT SEC X 2
     2 LYC4       16 GROUP        1 X    LYC  0     **** LYC X 4
     3 GLC5        1 GROUP        1 X    GLC  0     **** GLC X 6
     4 SEP2       21 GROUP        1 Y    SEP  0     ROOT SEP Y 9
     5 LYP4       18 GROUP        1 Y    LYP  0     **** LYP Y 11
     6 GLP5        3 GROUP        1 Y    GLP  0     **** GLP Y 13
     7 SEL2       20 GROUP        1 Z    SEL  0     ROOT SEL Z 16
     8 LYL4       17 GROUP        1 Z    LYL  0     **** LYL Z 18
     9 GLL5        2 GROUP        1 Z    GLL  0     **** GLL Z 20
@<TRIPOS>SET

