#    Name: 2daa_DCS_1_ligand
#    Modification time : Tue Mar 25 09:44:34 2014

@<TRIPOS>MOLECULE
2daa_DCS_1_ligand
   35    36     1     0     0
SMALL
NO_CHARGES


@<TRIPOS>ATOM
      1 N1         22.5110   34.8990   15.6140 N.ar      1 DCS285      0.0000 
      2 C2         23.5830   34.1380   15.3220 C.ar      1 DCS285      0.0000 
      3 C2A        24.1860   33.3680   16.4690 C.3       1 DCS285      0.0000 
      4 C3         24.1350   34.0690   14.0390 C.ar      1 DCS285      0.0000 
      5 O3         25.3010   33.3510   13.8710 O.3       1 DCS285      0.0000 
      6 C4         23.5090   34.7570   12.9660 C.ar      1 DCS285      0.0000 
      7 C4A        24.0530   34.7580   11.5410 C.3       1 DCS285      0.0000 
      8 C5         22.3530   35.4890   13.2680 C.ar      1 DCS285      0.0000 
      9 C6         21.9180   35.5620   14.6000 C.ar      1 DCS285      0.0000 
     10 C5A        21.5960   36.2100   12.1950 C.3       1 DCS285      0.0000 
     11 O4P        22.3430   37.3700   11.8580 O.3       1 DCS285      0.0000 
     12 P          22.0880   38.0160   10.4680 P.3       1 DCS285      0.0000 
     13 O1P        22.7630   39.3320   10.4500 O.co2     1 DCS285      0.0000 
     14 O2P        22.6610   37.1190    9.4270 O.co2     1 DCS285      0.0000 
     15 O3P        20.6160   38.1890   10.2720 O.co2     1 DCS285      0.0000 
     16 N          25.2380   33.9770   11.3590 N.4       1 DCS285      0.0000 
     17 CA         25.7200   33.5650   10.1830 C.3       1 DCS285      0.0000 
     18 C          26.9320   32.7320    9.9780 C.2       1 DCS285      0.0000 
     19 O          27.6570   32.3600   10.8860 O.2       1 DCS285      0.0000 
     20 ND         27.0270   32.4520    8.6850 N.am      1 DCS285      0.0000 
     21 OG         25.8810   32.8740    7.9700 O.3       1 DCS285      0.0000 
     22 CB         25.1720   33.7990    8.7820 C.3       1 DCS285      0.0000 
     23 H          24.2256   35.8220   11.2518 H         1 DCS285      0.0000 
     24 H          23.2329   34.4042   10.8718 H         1 DCS285      0.0000 
     25 H          21.0789   36.1754   14.7964 H         1 DCS285      0.0000 
     26 H          20.6070   36.4630   12.5775 H         1 DCS285      0.0000 
     27 H          21.4807   35.5414   11.3417 H         1 DCS285      0.0000 
     28 H          26.5538   34.7282    9.9938 H         1 DCS285      0.0000 
     29 H          27.7769   32.0094    8.2343 H         1 DCS285      0.0000 
     30 H          25.3702   34.8207    8.5093 H         1 DCS285      0.0000 
     31 H          24.1139   33.6047    8.7976 H         1 DCS285      0.0000 
     32 H          24.9739   32.8250   16.1784 H         1 DCS285      0.0000 
     33 H          24.5013   33.9748   17.1987 H         1 DCS285      0.0000 
     34 H          23.5286   32.7350   16.8778 H         1 DCS285      0.0000 
     35 H          26.0316   33.9763   14.1451 H         1 DCS285      0.0000 
@<TRIPOS>BOND
     1    2    1 ar   
     2    9    1 ar   
     3    3    2 1    
     4    4    2 ar   
     5   32    3 1    
     6   33    3 1    
     7   34    3 1    
     8    5    4 1    
     9    6    4 ar   
    10   35    5 1    
    11    7    6 1    
    12    8    6 ar   
    13   16    7 1    
    14   23    7 1    
    15   24    7 1    
    16    9    8 ar   
    17   10    8 1    
    18   25    9 1    
    19   11   10 1    
    20   26   10 1    
    21   27   10 1    
    22   12   11 1    
    23   13   12 ar   
    24   14   12 ar   
    25   15   12 ar   
    26   17   16 1    
    27   18   17 1    
    28   22   17 1    
    29   28   17 1    
    30   19   18 2    
    31   20   18 am   
    32   21   20 1    
    33   29   20 1    
    34   22   21 1    
    35   30   22 1    
    36   31   22 1    
@<TRIPOS>SUBSTRUCTURE
     1 DCS285      1 GROUP   
@<TRIPOS>SET

