#    Name: 3DVA_2_CAVITY_N1_6.mol2
#    Modification time : Tue Mar 11 17:08:12 2014

@<TRIPOS>MOLECULE
3DVA_2_CAVITY_N1_6.mol2
   77     0     6     0     0
SMALL
NO_CHARGES


@<TRIPOS>ATOM
      1 OG         17.9291  -16.4869   28.0233 O.2       1 SER1        0.0000 
      2 O          16.6942  -17.1530   28.5537 O.2       2 ALA2        0.0000 
      3 CA         15.8763  -15.9652   28.1414 C.3       5 GLY6        0.0000 
      4 CA         15.4594  -17.8192   29.0842 C.3       5 GLY6        0.0000 
      5 CA         14.6414  -16.6314   28.6718 C.3       5 GLY6        0.0000 
      6 OG         18.4029  -15.2294   30.7055 O.2       1 SER1        0.0000 
      7 N          17.1680  -15.8955   31.2359 N.2       2 ALA2        0.0000 
      8 CA         16.3501  -14.7077   30.8236 C.3       5 GLY6        0.0000 
      9 N          17.5691  -18.9373   32.5912 N.2       2 ALA2        0.0000 
     10 N          16.7512  -17.7495   32.1788 N.2       2 ALA2        0.0000 
     11 N          15.9332  -16.5617   31.7664 N.2       2 ALA2        0.0000 
     12 N          15.1152  -15.3739   31.3540 N.2       2 ALA2        0.0000 
     13 NZ         14.2973  -14.1861   30.9416 N.2       3 LYS4        0.0000 
     14 CA         17.1522  -20.7913   33.5340 C.3       5 GLY6        0.0000 
     15 CA         16.3343  -19.6035   33.1216 C.3       5 GLY6        0.0000 
     16 N          15.5163  -18.4157   32.7092 N.2       2 ALA2        0.0000 
     17 CZ         21.7474  -15.6813   33.6820 C.ar      4 PHE5        0.0000 
     18 CA         20.9295  -14.4935   33.2696 C.3       5 GLY6        0.0000 
     19 CA         20.1115  -13.3057   32.8572 C.3       5 GLY6        0.0000 
     20 CA         21.3305  -17.5353   34.6249 C.3       5 GLY6        0.0000 
     21 CZ         20.5126  -16.3475   34.2125 C.ar      4 PHE5        0.0000 
     22 N          19.6946  -15.1597   33.8001 N.2       2 ALA2        0.0000 
     23 N          18.8767  -13.9719   33.3877 N.2       2 ALA2        0.0000 
     24 CZ         18.0587  -12.7841   32.9753 C.ar      4 PHE5        0.0000 
     25 N          17.2407  -11.5963   32.5629 N.2       2 ALA2        0.0000 
     26 CZ         16.4228  -10.4085   32.1505 C.ar      4 PHE5        0.0000 
     27 O          15.6048   -9.2207   31.7381 O.2       2 ALA2        0.0000 
     28 OG         20.0957  -18.2015   35.1553 O.2       1 SER1        0.0000 
     29 DU         19.2777  -17.0136   34.7429 H         6 CUB7        0.0000 
     30 N          18.4598  -15.8258   34.3305 N.2       2 ALA2        0.0000 
     31 N          17.6418  -14.6380   33.9181 N.2       2 ALA2        0.0000 
     32 CZ         16.8239  -13.4502   33.5058 C.ar      4 PHE5        0.0000 
     33 CZ         16.0059  -12.2624   33.0934 C.ar      4 PHE5        0.0000 
     34 CZ         15.1879  -11.0746   32.6810 C.ar      4 PHE5        0.0000 
     35 CZ         14.3700   -9.8868   32.2686 C.ar      4 PHE5        0.0000 
     36 OG         18.8609  -18.8676   35.6858 O.2       1 SER1        0.0000 
     37 N          18.0429  -17.6798   35.2734 N.2       2 ALA2        0.0000 
     38 N          17.2250  -16.4920   34.8610 N.2       2 ALA2        0.0000 
     39 CA         16.8081  -18.3460   35.8038 C.3       5 GLY6        0.0000 
     40 CA         21.5105  -16.3100   32.3409 C.3       5 GLY6        0.0000 
     41 CZ         20.6926  -15.1222   31.9285 C.ar      4 PHE5        0.0000 
     42 CZ         19.8746  -13.9344   31.5161 C.ar      4 PHE5        0.0000 
     43 CZ         19.0566  -12.7466   31.1037 C.ar      4 PHE5        0.0000 
     44 N          20.2757  -16.9762   32.8714 N.2       2 ALA2        0.0000 
     45 N          19.4577  -15.7884   32.4590 N.2       2 ALA2        0.0000 
     46 DU         18.6398  -14.6006   32.0466 H         6 CUB7        0.0000 
     47 CA         17.8218  -13.4128   31.6342 C.3       5 GLY6        0.0000 
     48 CA         17.0038  -12.2250   31.2218 C.3       5 GLY6        0.0000 
     49 CA         16.1859  -11.0372   30.8094 C.3       5 GLY6        0.0000 
     50 CA         15.3679   -9.8494   30.3970 C.3       5 GLY6        0.0000 
     51 CA         19.8588  -18.8302   33.8142 C.3       5 GLY6        0.0000 
     52 N          19.0408  -17.6424   33.4018 N.2       2 ALA2        0.0000 
     53 N          18.2229  -16.4546   32.9894 N.2       2 ALA2        0.0000 
     54 N          17.4049  -15.2668   32.5770 N.2       2 ALA2        0.0000 
     55 N          16.5870  -14.0790   32.1647 N.2       2 ALA2        0.0000 
     56 CA         15.7690  -12.8912   31.7523 C.3       5 GLY6        0.0000 
     57 CA         14.9510  -11.7034   31.3399 C.3       5 GLY6        0.0000 
     58 NZ         14.1331  -10.5156   30.9275 N.2       3 LYS4        0.0000 
     59 CA         18.6240  -19.4964   34.3447 C.3       5 GLY6        0.0000 
     60 N          17.8060  -18.3086   33.9323 N.2       2 ALA2        0.0000 
     61 N          16.9881  -17.1208   33.5199 N.2       2 ALA2        0.0000 
     62 NZ         14.5342  -13.5574   32.2827 N.2       3 LYS4        0.0000 
     63 NZ         13.7162  -12.3696   31.8703 N.2       3 LYS4        0.0000 
     64 CA         16.5712  -18.9748   34.4627 C.3       5 GLY6        0.0000 
     65 OG         18.1660  -15.8581   29.3644 O.2       1 SER1        0.0000 
     66 N          16.9311  -16.5243   29.8948 N.2       2 ALA2        0.0000 
     67 CA         16.1132  -15.3365   29.4825 C.3       5 GLY6        0.0000 
     68 CA         16.5143  -18.3783   30.8377 C.3       5 GLY6        0.0000 
     69 CA         15.6963  -17.1905   30.4253 C.3       5 GLY6        0.0000 
     70 CA         14.8783  -16.0027   30.0129 C.3       5 GLY6        0.0000 
     71 CA         16.9153  -21.4201   32.1929 C.3       5 GLY6        0.0000 
     72 CA         14.8625  -20.8984   32.3110 C.3       5 GLY6        0.0000 
     73 CZ         21.5674  -16.9065   35.9660 C.ar      4 PHE5        0.0000 
     74 N          20.7495  -15.7187   35.5536 N.2       2 ALA2        0.0000 
     75 DU         20.3326  -17.5727   36.4964 H         6 CUB7        0.0000 
     76 N          19.5146  -16.3849   36.0840 N.2       2 ALA2        0.0000 
     77 CZ         18.2798  -17.0511   36.6145 C.ar      4 PHE5        0.0000 
@<TRIPOS>BOND
@<TRIPOS>SUBSTRUCTURE
     1 SER1        1 GROUP   
     2 ALA2        2 GROUP   
     3 LYS4       13 GROUP   
     4 PHE5       17 GROUP   
     5 GLY6        3 GROUP   
     6 CUB7       29 GROUP   
@<TRIPOS>SET

