#    Name: 3dva_TPW_2_INTS_M
#    Modification time : Tue Mar 25 00:29:28 2014

@<TRIPOS>MOLECULE
3dva_TPW_2_INTS_M
   70     0    15     0     0
SMALL
NO_CHARGES


@<TRIPOS>ATOM
      1 CA         14.9680   -9.0100   33.1490 C.3       5 GLC5        0.0000 
      2 CA         14.7140   -8.8040   31.0200 C.3      15 GLL5        0.0000 
      3 CA         15.2220   -9.2160   35.2780 C.3      10 GLP5        0.0000 
      4 CA         13.3980   -6.9845   30.9705 C.3       5 GLC5        0.0000 
      5 CA         12.0820   -5.1650   30.9210 C.3      10 GLP5        0.0000 
      6 CA         15.8160   -7.2155   31.1040 C.3       5 GLC5        0.0000 
      7 CA         16.9180   -5.6270   31.1880 C.3      10 GLP5        0.0000 
      8 CA         15.3950  -13.0410   34.0865 C.3       5 GLC5        0.0000 
      9 CA         16.0790  -14.1550   32.7260 C.3      15 GLL5        0.0000 
     10 CA         14.7110  -11.9270   35.4470 C.3      10 GLP5        0.0000 
     11 CA         19.1200  -17.9795   30.7460 C.3       5 GLC5        0.0000 
     12 CA         18.6230  -15.9140   30.2770 C.3      15 GLL5        0.0000 
     13 CA         19.6170  -20.0450   31.2150 C.3      10 GLP5        0.0000 
     14 CA         16.2125  -18.1760   26.9285 C.3       5 GLC5        0.0000 
     15 CA         16.8120  -17.0320   28.4170 C.3      15 GLL5        0.0000 
     16 CA         15.6130  -19.3200   25.4400 C.3      10 GLP5        0.0000 
     17 CA         16.2840  -18.9135   29.0410 C.3       5 GLC5        0.0000 
     18 CA         15.7560  -20.7950   29.6650 C.3      10 GLP5        0.0000 
     19 CA         15.8935  -17.1780   26.1960 C.3       5 GLC5        0.0000 
     20 CA         17.1450  -16.1270   27.2150 C.3      15 GLL5        0.0000 
     21 CA         14.6420  -18.2290   25.1770 C.3      10 GLP5        0.0000 
     22 Zn         18.2905  -18.0110   23.2280 Zn        4 ZIC7        0.0000 
     23 Zn         17.8100  -17.1090   23.6170 Zn       14 ZIL7        0.0000 
     24 Zn         18.7710  -18.9130   22.8390 Zn        9 ZIP7        0.0000 
     25 N          16.6355  -16.3390   22.9710 N.am      2 SEC2        0.0000 
     26 N          17.8100  -17.1090   23.6170 N.am     12 SEL2        0.0000 
     27 N          15.4610  -15.5690   22.3250 N.am      7 SEP2        0.0000 
     28 N          16.5115  -13.8600   23.9780 N.am      2 SEC2        0.0000 
     29 N          17.5100  -14.7920   24.6570 N.am     12 SEL2        0.0000 
     30 N          15.5130  -12.9280   23.2990 N.am      7 SEP2        0.0000 
     31 Zn         19.3890  -18.7570   23.7600 Zn        4 ZIC7        0.0000 
     32 Zn         20.0070  -18.6010   24.6810 Zn       14 ZIL7        0.0000 
     33 N          20.9080  -19.4185   23.7735 N.am      2 SEC2        0.0000 
     34 N          20.0070  -18.6010   24.6810 N.am     12 SEL2        0.0000 
     35 N          21.8090  -20.2360   22.8660 N.am      7 SEP2        0.0000 
     36 NZ         21.6485  -18.3235   27.3725 N.4       3 LYC4        0.0000 
     37 NZ         20.6670  -17.4830   26.8660 N.4      13 LYL4        0.0000 
     38 NZ         23.8310  -19.1800   27.3050 N.4       8 LYP4        0.0000 
     39 N          21.6485  -18.3235   27.3725 N.am      2 SEC2        0.0000 
     40 N          20.6670  -17.4830   26.8660 N.am     12 SEL2        0.0000 
     41 N          22.6300  -19.1640   27.8790 N.am      7 SEP2        0.0000 
     42 NZ         23.0690  -17.6640   25.5350 N.4       3 LYC4        0.0000 
     43 NZ         22.0250  -17.0270   24.7260 N.4      13 LYL4        0.0000 
     44 N          23.0690  -17.6640   25.5350 N.am      2 SEC2        0.0000 
     45 N          22.0250  -17.0270   24.7260 N.am     12 SEL2        0.0000 
     46 N          24.1130  -18.3010   26.3440 N.am      7 SEP2        0.0000 
     47 N          17.2190   -9.5295   30.5705 N.am      2 SEC2        0.0000 
     48 N          16.4160  -10.4790   31.7310 N.am     12 SEL2        0.0000 
     49 N          18.0220   -8.5800   29.4100 N.am      7 SEP2        0.0000 
     50 O          18.9110  -10.8720   32.2015 O.2       1 ALC1        0.0000 
     51 O          18.0680  -11.9380   32.3820 O.2      11 ALL1        0.0000 
     52 O          19.7540   -9.8060   32.0210 O.2       6 ALP1        0.0000 
     53 CA         13.7495  -12.3860   30.0770 C.3       5 GLC5        0.0000 
     54 CA         14.5030  -12.3700   31.9930 C.3      15 GLL5        0.0000 
     55 CA         12.9960  -12.4020   28.1610 C.3      10 GLP5        0.0000 
     56 CA         15.9693   -9.8600   29.5615 C.3       5 GLC5        0.0000 
     57 CA         15.1290  -10.2020   31.4700 C.3      15 GLL5        0.0000 
     58 CA         17.0170  -10.2170   27.8780 C.3      10 GLP5        0.0000 
     59 CA         14.8909  -15.1041   28.7241 C.3       5 GLC5        0.0000 
     60 CA         17.0780  -16.2260   29.6910 C.3      15 GLL5        0.0000 
     61 CA         14.1220  -14.4310   27.1880 C.3      10 GLP5        0.0000 
     62 CA         16.3329  -14.2231   29.4301 C.3       5 GLC5        0.0000 
     63 CA         14.6800  -15.6440   30.3890 C.3      15 GLL5        0.0000 
     64 CA         17.0060  -12.6690   28.6000 C.3      10 GLP5        0.0000 
     65 CA         15.5503  -15.5053   27.5020 C.3       5 GLC5        0.0000 
     66 CA         16.9922  -14.6242   28.2080 C.3       5 GLC5        0.0000 
     67 CA         16.2203  -12.5689   30.3771 C.3       5 GLC5        0.0000 
     68 CA         15.8210  -12.7080   32.2740 C.3      15 GLL5        0.0000 
     69 CA         17.3084  -13.9270   29.9475 C.3       5 GLC5        0.0000 
     70 CA         16.8260  -14.9150   31.6400 C.3      15 GLL5        0.0000 
@<TRIPOS>BOND
@<TRIPOS>SUBSTRUCTURE
     1 ALC1       50 GROUP        1 X    ALC  0     ROOT ALC X 1
     2 SEC2       25 GROUP        1 X    SEC  0     **** SEC X 2
     3 LYC4       36 GROUP        1 X    LYC  0     **** LYC X 4
     4 ZIC7       22 GROUP        1 X    ZIC  0     **** ZIC X 5
     5 GLC5        1 GROUP        1 X    GLC  0     **** GLC X 6
     6 ALP1       52 GROUP        1 Y    ALP  0     ROOT ALP Y 8
     7 SEP2       27 GROUP        1 Y    SEP  0     **** SEP Y 9
     8 LYP4       38 GROUP        1 Y    LYP  0     **** LYP Y 11
     9 ZIP7       24 GROUP        1 Y    ZIP  0     **** ZIP Y 12
    10 GLP5        3 GROUP        1 Y    GLP  0     **** GLP Y 13
    11 ALL1       51 GROUP        1 Z    ALL  0     ROOT ALL Z 15
    12 SEL2       26 GROUP        1 Z    SEL  0     **** SEL Z 16
    13 LYL4       37 GROUP        1 Z    LYL  0     **** LYL Z 18
    14 ZIL7       23 GROUP        1 Z    ZIL  0     **** ZIL Z 19
    15 GLL5        2 GROUP        1 Z    GLL  0     **** GLL Z 20
@<TRIPOS>SET

