#    Name: 3dva_TPW_2_ligand
#    Modification time : Tue Mar 25 00:29:28 2014

@<TRIPOS>MOLECULE
3dva_TPW_2_ligand
   42    43     1     0     0
SMALL
NO_CHARGES


@<TRIPOS>ATOM
      1 C2A        14.7140   -8.8040   31.0200 C.3       1 TPW1370     0.0000 
      2 C35        16.0790  -14.1550   32.7260 C.3       1 TPW1370     0.0000 
      3 C2         18.1680  -14.9960   31.6230 C.2       1 TPW1370     0.0000 
      4 S1         18.6230  -15.9140   30.2770 S.3       1 TPW1370     0.0000 
      5 C5         17.0780  -16.2260   29.6910 C.2       1 TPW1370     0.0000 
      6 C4         16.2010  -15.5950   30.5720 C.2       1 TPW1370     0.0000 
      7 C4A        14.6800  -15.6440   30.3890 C.3       1 TPW1370     0.0000 
      8 C5A        16.8120  -17.0320   28.4170 C.3       1 TPW1370     0.0000 
      9 C5B        17.1450  -16.1270   27.2150 C.3       1 TPW1370     0.0000 
     10 O5G        17.5540  -16.8940   26.0690 O.3       1 TPW1370     0.0000 
     11 P1         18.0490  -16.1690   24.7300 P.3       1 TPW1370     0.0000 
     12 O11        19.6440  -16.0470   24.9830 O.3       1 TPW1370     0.0000 
     13 O12        17.8100  -17.1090   23.6170 O.co2     1 TPW1370     0.0000 
     14 O13        17.5100  -14.7920   24.6570 O.co2     1 TPW1370     0.0000 
     15 P2         20.5410  -17.3490   25.2680 P.3       1 TPW1370     0.0000 
     16 O21        20.0070  -18.6010   24.6810 O.co2     1 TPW1370     0.0000 
     17 O22        20.6670  -17.4830   26.8660 O.co2     1 TPW1370     0.0000 
     18 O23        22.0250  -17.0270   24.7260 O.co2     1 TPW1370     0.0000 
     19 N1'        14.1960  -11.1480   31.6040 N.ar      1 TPW1370     0.0000 
     20 C2'        15.1290  -10.2020   31.4700 C.ar      1 TPW1370     0.0000 
     21 N3'        16.4160  -10.4790   31.7310 N.ar      1 TPW1370     0.0000 
     22 C4'        16.7820  -11.7040   32.1310 C.ar      1 TPW1370     0.0000 
     23 N4'        18.0680  -11.9380   32.3820 N.pl3     1 TPW1370     0.0000 
     24 C5'        15.8210  -12.7080   32.2740 C.ar      1 TPW1370     0.0000 
     25 C6'        14.5030  -12.3700   31.9930 C.ar      1 TPW1370     0.0000 
     26 C3         16.8260  -14.9150   31.6400 C.2       1 TPW1370     0.0000 
     27 H          15.1278  -14.6389   32.9215 H         1 TPW1370     0.0000 
     28 H          16.6715  -14.1409   33.6348 H         1 TPW1370     0.0000 
     29 H          18.8600  -14.6923   32.1342 H         1 TPW1370     0.0000 
     30 H          15.7760  -17.3103   28.3748 H         1 TPW1370     0.0000 
     31 H          17.4481  -17.8965   28.3966 H         1 TPW1370     0.0000 
     32 H          17.9345  -15.4291   27.5366 H         1 TPW1370     0.0000 
     33 H          16.2489  -15.5238   26.9984 H         1 TPW1370     0.0000 
     34 H          18.6920  -11.1708   32.2335 H         1 TPW1370     0.0000 
     35 H          18.2943  -12.8599   32.6965 H         1 TPW1370     0.0000 
     36 H          13.7749  -13.1100   32.1000 H         1 TPW1370     0.0000 
     37 H          15.4977   -8.1859   30.9579 H         1 TPW1370     0.0000 
     38 H          14.2793   -8.8175   30.1195 H         1 TPW1370     0.0000 
     39 H          14.0621   -8.3880   31.6540 H         1 TPW1370     0.0000 
     40 H          14.3977  -15.2430   29.5175 H         1 TPW1370     0.0000 
     41 H          14.3339  -16.5821   30.4058 H         1 TPW1370     0.0000 
     42 H          14.2028  -15.1426   31.1107 H         1 TPW1370     0.0000 
@<TRIPOS>BOND
     1   20    1 1    
     2   37    1 1    
     3   38    1 1    
     4   39    1 1    
     5   24    2 1    
     6   26    2 1    
     7   27    2 1    
     8   28    2 1    
     9    4    3 1    
    10   26    3 2    
    11   29    3 1    
    12    5    4 1    
    13    6    5 2    
    14    8    5 1    
    15    7    6 1    
    16   26    6 1    
    17   40    7 1    
    18   41    7 1    
    19   42    7 1    
    20    9    8 1    
    21   30    8 1    
    22   31    8 1    
    23   10    9 1    
    24   32    9 1    
    25   33    9 1    
    26   11   10 1    
    27   12   11 1    
    28   13   11 ar   
    29   14   11 ar   
    30   15   12 1    
    31   16   15 ar   
    32   17   15 ar   
    33   18   15 ar   
    34   20   19 ar   
    35   25   19 ar   
    36   21   20 ar   
    37   22   21 ar   
    38   23   22 1    
    39   24   22 ar   
    40   34   23 1    
    41   35   23 1    
    42   25   24 ar   
    43   36   25 1    
@<TRIPOS>SUBSTRUCTURE
     1 TPW1370     1 GROUP   
@<TRIPOS>SET

