#    Name: 2bfa_CB3_2_INTS_M
#    Modification time : Mon Mar 24 20:50:51 2014

@<TRIPOS>MOLECULE
2bfa_CB3_2_INTS_M
   44     0     9     0     0
SMALL
NO_CHARGES


@<TRIPOS>ATOM
      1 O          24.6850   27.4300   76.1885 O.2       1 ALC1        0.0000 
      2 O          24.9110   29.0370   75.8290 O.2       7 ALL1        0.0000 
      3 O          24.4590   25.8230   76.5480 O.2       4 ALP1        0.0000 
      4 O          23.6745   28.5545   75.7020 O.2       1 ALC1        0.0000 
      5 O          22.4380   28.0720   75.5750 O.2       4 ALP1        0.0000 
      6 O          23.8285   30.1910   76.0570 O.2       1 ALC1        0.0000 
      7 O          22.7460   31.3450   76.2850 O.2       4 ALP1        0.0000 
      8 N          30.2900   30.8885   77.1585 N.am      2 SEC2        0.0000 
      9 N          29.3710   30.3720   75.8630 N.am      8 SEL2        0.0000 
     10 N          31.2090   31.4050   78.4540 N.am      5 SEP2        0.0000 
     11 CA         26.2905   29.9865   73.4095 C.3       3 GLC5        0.0000 
     12 CA         26.3990   31.9900   74.2770 C.3       9 GLL5        0.0000 
     13 CA         26.1820   27.9830   72.5420 C.3       6 GLP5        0.0000 
     14 CA         25.0110   31.7830   75.8210 C.3       3 GLC5        0.0000 
     15 CA         23.6230   31.5760   77.3650 C.3       6 GLP5        0.0000 
     16 CA         29.8150   36.7740   72.8070 C.3       3 GLC5        0.0000 
     17 CA         29.4320   34.9670   72.9650 C.3       9 GLL5        0.0000 
     18 CA         30.1980   38.5810   72.6490 C.3       6 GLP5        0.0000 
     19 CA         31.2680   35.4415   73.3175 C.3       3 GLC5        0.0000 
     20 CA         33.1040   35.9160   73.6700 C.3       6 GLP5        0.0000 
     21 CA         27.7755   35.2840   74.4080 C.3       3 GLC5        0.0000 
     22 CA         26.1190   35.6010   75.8510 C.3       6 GLP5        0.0000 
     23 CA         28.7090   34.8500   68.7535 C.3       3 GLC5        0.0000 
     24 CA         29.5060   36.2130   69.9710 C.3       9 GLL5        0.0000 
     25 CA         27.9120   33.4870   67.5360 C.3       6 GLP5        0.0000 
     26 CA         33.9755   37.8035   69.1260 C.3       3 GLC5        0.0000 
     27 CA         32.1430   37.1730   69.4180 C.3       9 GLL5        0.0000 
     28 CA         35.8080   38.4340   68.8340 C.3       6 GLP5        0.0000 
     29 N          28.8985   39.7040   67.2770 N.am      2 SEC2        0.0000 
     30 N          30.3940   39.6500   67.5720 N.am      8 SEL2        0.0000 
     31 N          27.4030   39.7580   66.9820 N.am      5 SEP2        0.0000 
     32 CA         32.0590   34.6320   72.6720 C.3       3 GLC5        0.0000 
     33 CA         31.0140   33.3480   71.6740 C.3       9 GLL5        0.0000 
     34 CA         29.4977   36.4417   67.4745 C.3       3 GLC5        0.0000 
     35 CA         29.7110   37.1840   68.9650 C.3       9 GLL5        0.0000 
     36 CA         28.6320   35.4600   66.1290 C.3       6 GLP5        0.0000 
     37 CA         30.2807   38.0023   70.7345 C.3       3 GLC5        0.0000 
     38 CA         30.1250   37.2662   71.5045 C.3       3 GLC5        0.0000 
     39 CA         32.1868   35.9295   72.1315 C.3       3 GLC5        0.0000 
     40 CA         30.5980   35.6900   70.7490 C.3       9 GLL5        0.0000 
     41 CA         31.1200   37.6328   71.2883 C.3       3 GLC5        0.0000 
     42 CA         31.9410   36.1960   70.4370 C.3       9 GLL5        0.0000 
     43 CA         30.1930   31.6899   70.6449 C.3       3 GLC5        0.0000 
     44 CA         28.6650   30.4660   71.1050 C.3       6 GLP5        0.0000 
@<TRIPOS>BOND
@<TRIPOS>SUBSTRUCTURE
     1 ALC1        1 GROUP        1 X    ALC  0     ROOT ALC X 1
     2 SEC2        8 GROUP        1 X    SEC  0     **** SEC X 2
     3 GLC5       11 GROUP        1 X    GLC  0     **** GLC X 6
     4 ALP1        3 GROUP        1 Y    ALP  0     ROOT ALP Y 8
     5 SEP2       10 GROUP        1 Y    SEP  0     **** SEP Y 9
     6 GLP5       13 GROUP        1 Y    GLP  0     **** GLP Y 13
     7 ALL1        2 GROUP        1 Z    ALL  0     ROOT ALL Z 15
     8 SEL2        9 GROUP        1 Z    SEL  0     **** SEL Z 16
     9 GLL5       12 GROUP        1 Z    GLL  0     **** GLL Z 20
@<TRIPOS>SET

