#    Name: 2bfa_CB3_2_ligand
#    Modification time : Mon Mar 24 20:50:52 2014

@<TRIPOS>MOLECULE
2bfa_CB3_2_ligand
   55    57     1     0     0
SMALL
NO_CHARGES


@<TRIPOS>ATOM
      1 N1         25.4430   31.0710   74.6820 N.pl3     1 CB31290     0.0000 
      2 C2         25.7880   29.9620   75.4380 C.2       1 CB31290     0.0000 
      3 NA2        24.9110   29.0370   75.8290 N.pl3     1 CB31290     0.0000 
      4 N3         27.0750   29.7860   75.8080 N.2       1 CB31290     0.0000 
      5 C4         28.0850   30.6550   75.4390 C.2       1 CB31290     0.0000 
      6 O4         29.3710   30.3720   75.8630 O.2       1 CB31290     0.0000 
      7 C4A        27.7910   31.8070   74.6470 C.ar      1 CB31290     0.0000 
      8 C5         28.7740   32.7680   74.2320 C.ar      1 CB31290     0.0000 
      9 C6         28.4210   33.9240   73.4350 C.ar      1 CB31290     0.0000 
     10 C7         27.0540   34.0840   73.0690 C.ar      1 CB31290     0.0000 
     11 C8         26.0680   33.1320   73.4940 C.ar      1 CB31290     0.0000 
     12 C8A        26.3990   31.9900   74.2770 C.ar      1 CB31290     0.0000 
     13 C9         29.4320   34.9670   72.9650 C.3       1 CB31290     0.0000 
     14 N10        30.3520   34.7180   71.7430 N.pl3     1 CB31290     0.0000 
     15 C11        31.0160   37.6630   68.6750 C.ar      1 CB31290     0.0000 
     16 C12        29.7110   37.1840   68.9650 C.ar      1 CB31290     0.0000 
     17 C13        29.5060   36.2130   69.9710 C.ar      1 CB31290     0.0000 
     18 C14        30.5980   35.6900   70.7490 C.ar      1 CB31290     0.0000 
     19 C15        31.9410   36.1960   70.4370 C.ar      1 CB31290     0.0000 
     20 C16        32.1430   37.1730   69.4180 C.ar      1 CB31290     0.0000 
     21 C          31.1430   38.6600   67.6260 C.2       1 CB31290     0.0000 
     22 O          30.3940   39.6500   67.5720 O.2       1 CB31290     0.0000 
     23 N          32.1310   38.4430   66.7060 N.am      1 CB31290     0.0000 
     24 CA         32.0400   39.0700   65.3290 C.3       1 CB31290     0.0000 
     25 CB         32.5590   38.0850   64.2840 C.3       1 CB31290     0.0000 
     26 CG         33.2370   38.8020   63.1190 C.3       1 CB31290     0.0000 
     27 CD         33.1740   37.9460   61.8650 C.2       1 CB31290     0.0000 
     28 OE1        33.2660   36.7030   61.9850 O.co2     1 CB31290     0.0000 
     29 OE2        33.0370   38.5140   60.7510 O.co2     1 CB31290     0.0000 
     30 CT         30.6680   39.5620   64.9290 C.2       1 CB31290     0.0000 
     31 O1         29.7740   38.7180   64.6750 O.co2     1 CB31290     0.0000 
     32 O2         30.4770   40.8010   64.8660 O.co2     1 CB31290     0.0000 
     33 CP1        31.0140   33.3480   71.6740 C.3       1 CB31290     0.0000 
     34 CP2        31.6660   33.0030   70.3970 C.1       1 CB31290     0.0000 
     35 CP3        32.1020   32.6520   69.3340 C.1       1 CB31290     0.0000 
     36 H          24.4507   31.2167   74.4138 H         1 CB31290     0.0000 
     37 H          23.9560   29.2047   75.5843 H         1 CB31290     0.0000 
     38 H          25.2872   28.2587   76.3318 H         1 CB31290     0.0000 
     39 H          29.7524   32.6366   74.5046 H         1 CB31290     0.0000 
     40 H          26.7686   34.8805   72.5001 H         1 CB31290     0.0000 
     41 H          25.0844   33.2849   73.2197 H         1 CB31290     0.0000 
     42 H          30.1017   35.2331   73.8439 H         1 CB31290     0.0000 
     43 H          28.8761   35.9403   72.7771 H         1 CB31290     0.0000 
     44 H          28.9116   37.5481   68.4376 H         1 CB31290     0.0000 
     45 H          28.5573   35.8644   70.1603 H         1 CB31290     0.0000 
     46 H          32.7296   35.8316   70.9676 H         1 CB31290     0.0000 
     47 H          33.0709   37.5208   69.2168 H         1 CB31290     0.0000 
     48 H          32.9514   37.8726   66.8817 H         1 CB31290     0.0000 
     49 H          32.7338   39.9345   65.3042 H         1 CB31290     0.0000 
     50 H          31.7236   37.4921   63.9035 H         1 CB31290     0.0000 
     51 H          33.2756   37.4071   64.7544 H         1 CB31290     0.0000 
     52 H          34.2762   38.9960   63.3742 H         1 CB31290     0.0000 
     53 H          32.7320   39.7480   62.9384 H         1 CB31290     0.0000 
     54 H          30.2398   32.5796   71.9232 H         1 CB31290     0.0000 
     55 H          31.7573   33.2834   72.5078 H         1 CB31290     0.0000 
@<TRIPOS>BOND
     1    2    1 1    
     2   12    1 1    
     3   36    1 1    
     4    3    2 1    
     5    4    2 2    
     6   37    3 1    
     7   38    3 1    
     8    5    4 1    
     9    6    5 2    
    10    7    5 1    
    11    8    7 ar   
    12   12    7 ar   
    13    9    8 ar   
    14   39    8 1    
    15   10    9 ar   
    16   13    9 1    
    17   11   10 ar   
    18   40   10 1    
    19   12   11 ar   
    20   41   11 1    
    21   14   13 1    
    22   42   13 1    
    23   43   13 1    
    24   18   14 1    
    25   33   14 1    
    26   16   15 ar   
    27   20   15 ar   
    28   21   15 1    
    29   17   16 ar   
    30   44   16 1    
    31   18   17 ar   
    32   45   17 1    
    33   19   18 ar   
    34   20   19 ar   
    35   46   19 1    
    36   47   20 1    
    37   22   21 2    
    38   23   21 am   
    39   24   23 1    
    40   48   23 1    
    41   25   24 1    
    42   30   24 1    
    43   49   24 1    
    44   26   25 1    
    45   50   25 1    
    46   51   25 1    
    47   27   26 1    
    48   52   26 1    
    49   53   26 1    
    50   28   27 ar   
    51   29   27 ar   
    52   31   30 ar   
    53   32   30 ar   
    54   34   33 1    
    55   54   33 1    
    56   55   33 1    
    57   35   34 3    
@<TRIPOS>SUBSTRUCTURE
     1 CB31290     1 GROUP   
@<TRIPOS>SET

