#    Name: 2zxz_P26_1_INTS_M
#    Modification time : Tue Mar 25 11:18:24 2014

@<TRIPOS>MOLECULE
2zxz_P26_1_INTS_M
   94     0     9     0     0
SMALL
NO_CHARGES


@<TRIPOS>ATOM
      1 N          52.9285   45.1515   31.0580 N.am      1 SEC2        0.0000 
      2 N          54.3090   44.2320   30.5850 N.am      7 SEL2        0.0000 
      3 N          51.5480   46.0710   31.5310 N.am      4 SEP2        0.0000 
      4 N          53.0185   43.6435   31.0195 N.am      1 SEC2        0.0000 
      5 N          51.7280   43.0550   31.4540 N.am      4 SEP2        0.0000 
      6 NZ         52.4155   46.4605   29.3950 N.4       2 LYC4        0.0000 
      7 NZ         53.8330   45.9420   29.2940 N.4       8 LYL4        0.0000 
      8 NZ         50.7160   46.7770   30.7750 N.4       5 LYP4        0.0000 
      9 N          52.6905   46.0065   30.4125 N.am      1 SEC2        0.0000 
     10 N          53.8330   45.9420   29.2940 N.am      7 SEL2        0.0000 
     11 N          52.4155   46.4605   29.3950 N.am      1 SEC2        0.0000 
     12 N          50.9980   46.9790   29.4960 N.am      4 SEP2        0.0000 
     13 CA         54.7205   45.2745   27.3690 C.3       3 GLC5        0.0000 
     14 CA         56.5350   45.9730   28.3810 C.3       9 GLL5        0.0000 
     15 CA         52.9060   44.5760   26.3570 C.3       6 GLP5        0.0000 
     16 CA         56.5385   44.1270   32.0885 C.3       3 GLC5        0.0000 
     17 CA         57.0630   45.0920   30.5680 C.3       9 GLL5        0.0000 
     18 CA         56.0140   43.1620   33.6090 C.3       6 GLP5        0.0000 
     19 CA         59.1550   47.4790   29.9620 C.3       3 GLC5        0.0000 
     20 CA         60.2790   46.2070   28.8290 C.3       9 GLL5        0.0000 
     21 CA         58.0310   48.7510   31.0950 C.3       6 GLP5        0.0000 
     22 CA         61.3275   49.4120   26.1355 C.3       3 GLC5        0.0000 
     23 CA         61.3290   47.8570   27.6700 C.3       9 GLL5        0.0000 
     24 CA         61.3260   50.9670   24.6010 C.3       6 GLP5        0.0000 
     25 CA         60.8205   49.4840   28.5100 C.3       3 GLC5        0.0000 
     26 CA         60.3120   51.1110   29.3500 C.3       6 GLP5        0.0000 
     27 CA         62.7330   48.5610   29.0595 C.3       3 GLC5        0.0000 
     28 CA         64.1370   49.2650   30.4490 C.3       6 GLP5        0.0000 
     29 CA         60.1900   44.7900   26.6785 C.3       3 GLC5        0.0000 
     30 CA         61.1240   46.6880   26.7260 C.3       9 GLL5        0.0000 
     31 CA         59.2560   42.8920   26.6310 C.3       6 GLP5        0.0000 
     32 CA         61.5055   46.4955   24.9165 C.3       3 GLC5        0.0000 
     33 CA         61.8870   46.3030   23.1070 C.3       6 GLP5        0.0000 
     34 CA         59.3065   46.8085   25.5445 C.3       3 GLC5        0.0000 
     35 CA         57.4890   46.9290   24.3630 C.3       6 GLP5        0.0000 
     36 CA         63.0255   46.0890   26.4225 C.3       3 GLC5        0.0000 
     37 CA         64.9270   45.4900   26.1190 C.3       6 GLP5        0.0000 
     38 CA         59.8815   47.8000   33.3210 C.3       3 GLC5        0.0000 
     39 CA         61.2510   46.4740   34.2990 C.3       9 GLL5        0.0000 
     40 CA         58.5120   49.1260   32.3430 C.3       6 GLP5        0.0000 
     41 CA         59.3695   46.2015   35.0045 C.3       3 GLC5        0.0000 
     42 CA         57.4880   45.9290   35.7100 C.3       6 GLP5        0.0000 
     43 CA         61.2925   46.4045   36.3045 C.3       3 GLC5        0.0000 
     44 CA         61.3340   46.3350   38.3100 C.3       6 GLP5        0.0000 
     45 CA         64.5490   49.2330   33.8745 C.3       3 GLC5        0.0000 
     46 CA         62.8510   48.1750   33.3710 C.3       9 GLL5        0.0000 
     47 CA         66.2470   50.2910   34.3780 C.3       6 GLP5        0.0000 
     48 CA         62.2025   49.8330   34.1185 C.3       3 GLC5        0.0000 
     49 CA         61.5540   51.4910   34.8660 C.3       6 GLP5        0.0000 
     50 CA         64.7270   41.8420   34.2285 C.3       3 GLC5        0.0000 
     51 CA         63.9920   43.4470   33.4320 C.3       9 GLL5        0.0000 
     52 CA         65.4620   40.2370   35.0250 C.3       6 GLP5        0.0000 
     53 CA         62.3595   42.9105   34.3885 C.3       3 GLC5        0.0000 
     54 CA         60.7270   42.3740   35.3450 C.3       6 GLP5        0.0000 
     55 CA         64.9630   43.3335   35.3665 C.3       3 GLC5        0.0000 
     56 CA         65.9340   43.2200   37.3010 C.3       6 GLP5        0.0000 
     57 CA         65.6200   42.7620   32.2265 C.3       3 GLC5        0.0000 
     58 CA         67.2480   42.0770   31.0210 C.3       6 GLP5        0.0000 
     59 CA         66.1460   46.6560   34.0235 C.3       3 GLC5        0.0000 
     60 CA         65.5580   45.1790   32.4910 C.3       9 GLL5        0.0000 
     61 CA         66.7340   48.1330   35.5560 C.3       6 GLP5        0.0000 
     62 CA         67.2655   45.3885   31.7245 C.3       3 GLC5        0.0000 
     63 CA         68.9730   45.5980   30.9580 C.3       6 GLP5        0.0000 
     64 CA         66.4030   43.6280   31.7560 C.3       3 GLC5        0.0000 
     65 CA         65.2070   47.0120   34.7730 C.3       3 GLC5        0.0000 
     66 CA         63.6800   45.8910   33.9900 C.3       9 GLL5        0.0000 
     67 CA         55.9760   43.2013   30.0382 C.3       3 GLC5        0.0000 
     68 CA         55.3590   41.1530   29.9990 C.3       6 GLP5        0.0000 
     69 CA         55.4480   46.8053   30.9237 C.3       3 GLC5        0.0000 
     70 CA         56.1230   45.4070   29.5870 C.3       9 GLL5        0.0000 
     71 CA         54.3030   48.3610   31.7700 C.3       6 GLP5        0.0000 
     72 CA         57.1455   47.5360   27.0065 C.3       3 GLC5        0.0000 
     73 CA         57.0820   48.9760   25.7460 C.3       6 GLP5        0.0000 
     74 CA         57.4300   44.3407   27.5083 C.3       3 GLC5        0.0000 
     75 CA         57.8830   46.2190   28.1530 C.3       9 GLL5        0.0000 
     76 CA         57.7540   42.7270   26.4480 C.3       6 GLP5        0.0000 
     77 CA         59.2474   44.3135   31.0534 C.3       3 GLC5        0.0000 
     78 CA         58.4160   45.3380   30.3350 C.3       9 GLL5        0.0000 
     79 CA         60.2080   43.0700   32.3180 C.3       6 GLP5        0.0000 
     80 CA         59.4062   44.4725   27.8043 C.3       3 GLC5        0.0000 
     81 CA         58.8340   45.8990   29.1260 C.3       9 GLL5        0.0000 
     82 CA         60.7532   44.6163   31.4153 C.3       3 GLC5        0.0000 
     83 CA         61.2780   45.8240   29.8970 C.3       9 GLL5        0.0000 
     84 CA         63.4050   48.3500   31.9278 C.3       3 GLC5        0.0000 
     85 CA         62.4950   46.6950   33.4420 C.3       9 GLL5        0.0000 
     86 CA         61.0144   44.7556   32.9226 C.3       3 GLC5        0.0000 
     87 CA         62.2860   46.1220   32.0690 C.3       9 GLL5        0.0000 
     88 CA         61.4500   43.8490   31.2092 C.3       3 GLC5        0.0000 
     89 CA         63.1720   44.4450   30.5740 C.3       9 GLL5        0.0000 
     90 CA         63.8715   43.9835   28.7518 C.3       3 GLC5        0.0000 
     91 CA         65.0510   43.3390   27.4030 C.3       6 GLP5        0.0000 
     92 CA         61.9325   44.0355   32.3402 C.3       3 GLC5        0.0000 
     93 CA         63.1850   45.1220   31.7950 C.3       9 GLL5        0.0000 
     94 CA         63.3154   47.4909   31.0729 C.3       3 GLC5        0.0000 
@<TRIPOS>BOND
@<TRIPOS>SUBSTRUCTURE
     1 SEC2        1 GROUP        1 X    SEC  0     ROOT SEC X 2
     2 LYC4        6 GROUP        1 X    LYC  0     **** LYC X 4
     3 GLC5       13 GROUP        1 X    GLC  0     **** GLC X 6
     4 SEP2        3 GROUP        1 Y    SEP  0     ROOT SEP Y 9
     5 LYP4        8 GROUP        1 Y    LYP  0     **** LYP Y 11
     6 GLP5       15 GROUP        1 Y    GLP  0     **** GLP Y 13
     7 SEL2        2 GROUP        1 Z    SEL  0     ROOT SEL Z 16
     8 LYL4        7 GROUP        1 Z    LYL  0     **** LYL Z 18
     9 GLL5       14 GROUP        1 Z    GLL  0     **** GLL Z 20
@<TRIPOS>SET

