#    Name: 2zxz_P26_1_ligand
#    Modification time : Tue Mar 25 11:18:24 2014

@<TRIPOS>MOLECULE
2zxz_P26_1_ligand
   52    55     1     0     0
SMALL
NO_CHARGES


@<TRIPOS>ATOM
      1 O2         54.3090   44.2320   30.5850 O.co2     1 P261        0.0000 
      2 C22        54.6610   45.1670   29.8320 C.2       1 P261        0.0000 
      3 O1         53.8330   45.9420   29.2940 O.co2     1 P261        0.0000 
      4 C19        56.1230   45.4070   29.5870 C.ar      1 P261        0.0000 
      5 C18        56.5350   45.9730   28.3810 C.ar      1 P261        0.0000 
      6 C17        57.8830   46.2190   28.1530 C.ar      1 P261        0.0000 
      7 C20        57.0630   45.0920   30.5680 C.ar      1 P261        0.0000 
      8 C21        58.4160   45.3380   30.3350 C.ar      1 P261        0.0000 
      9 C16        58.8340   45.8990   29.1260 C.ar      1 P261        0.0000 
     10 C13        60.2790   46.2070   28.8290 C.3       1 P261        0.0000 
     11 O4         60.3540   47.6240   28.6750 O.3       1 P261        0.0000 
     12 C15        61.3290   47.8570   27.6700 C.3       1 P261        0.0000 
     13 C14        61.1240   46.6880   26.7260 C.3       1 P261        0.0000 
     14 O3         60.6440   45.6390   27.5670 O.3       1 P261        0.0000 
     15 C10        61.2780   45.8240   29.8970 C.ar      1 P261        0.0000 
     16 C9         61.3190   46.5010   31.1280 C.ar      1 P261        0.0000 
     17 C8         62.2860   46.1220   32.0690 C.ar      1 P261        0.0000 
     18 C01        62.4950   46.6950   33.4420 C.3       1 P261        0.0000 
     19 C2         61.2510   46.4740   34.2990 C.3       1 P261        0.0000 
     20 C1         62.8510   48.1750   33.3710 C.3       1 P261        0.0000 
     21 C11        62.2120   44.8110   29.6270 C.ar      1 P261        0.0000 
     22 C12        63.1720   44.4450   30.5740 C.ar      1 P261        0.0000 
     23 C7         63.1850   45.1220   31.7950 C.ar      1 P261        0.0000 
     24 C02        64.1290   44.8800   32.9300 C.3       1 P261        0.0000 
     25 C6         63.9920   43.4470   33.4320 C.3       1 P261        0.0000 
     26 C5         65.5580   45.1790   32.4910 C.3       1 P261        0.0000 
     27 C3         63.6800   45.8910   33.9900 C.3       1 P261        0.0000 
     28 H          55.8388   46.2075   27.6617 H         1 P261        0.0000 
     29 H          58.1872   46.6394   27.2634 H         1 P261        0.0000 
     30 H          56.7606   44.6811   31.4573 H         1 P261        0.0000 
     31 H          59.1111   45.1052   31.0574 H         1 P261        0.0000 
     32 H          62.3289   47.8138   28.0515 H         1 P261        0.0000 
     33 H          61.1515   48.7646   27.1298 H         1 P261        0.0000 
     34 H          62.0687   46.4450   26.2735 H         1 P261        0.0000 
     35 H          60.4026   46.9731   25.9813 H         1 P261        0.0000 
     36 H          60.6626   47.2469   31.3291 H         1 P261        0.0000 
     37 H          62.1866   44.3308   28.7135 H         1 P261        0.0000 
     38 H          63.8402   43.7084   30.3795 H         1 P261        0.0000 
     39 H          63.3738   45.3643   34.8816 H         1 P261        0.0000 
     40 H          64.4956   46.5625   34.2139 H         1 P261        0.0000 
     41 H          61.0394   45.5022   34.4029 H         1 P261        0.0000 
     42 H          61.3623   46.8498   35.2190 H         1 P261        0.0000 
     43 H          60.4434   46.9088   33.9005 H         1 P261        0.0000 
     44 H          62.9919   48.5671   34.2801 H         1 P261        0.0000 
     45 H          63.6911   48.3304   32.8513 H         1 P261        0.0000 
     46 H          62.1303   48.7096   32.9297 H         1 P261        0.0000 
     47 H          64.1964   42.7810   32.7146 H         1 P261        0.0000 
     48 H          64.6137   43.2588   34.1923 H         1 P261        0.0000 
     49 H          63.0658   43.2539   33.7560 H         1 P261        0.0000 
     50 H          66.2131   45.0289   33.2315 H         1 P261        0.0000 
     51 H          65.8410   44.5989   31.7272 H         1 P261        0.0000 
     52 H          65.6643   46.1278   32.1935 H         1 P261        0.0000 
@<TRIPOS>BOND
     1    2    1 ar   
     2    3    2 ar   
     3    4    2 1    
     4    5    4 ar   
     5    7    4 ar   
     6    6    5 ar   
     7   28    5 1    
     8    9    6 ar   
     9   29    6 1    
    10    8    7 ar   
    11   30    7 1    
    12    9    8 ar   
    13   31    8 1    
    14   10    9 1    
    15   11   10 1    
    16   14   10 1    
    17   15   10 1    
    18   12   11 1    
    19   13   12 1    
    20   32   12 1    
    21   33   12 1    
    22   14   13 1    
    23   34   13 1    
    24   35   13 1    
    25   16   15 ar   
    26   21   15 ar   
    27   17   16 ar   
    28   36   16 1    
    29   18   17 1    
    30   23   17 ar   
    31   19   18 1    
    32   20   18 1    
    33   27   18 1    
    34   41   19 1    
    35   42   19 1    
    36   43   19 1    
    37   44   20 1    
    38   45   20 1    
    39   46   20 1    
    40   22   21 ar   
    41   37   21 1    
    42   23   22 ar   
    43   38   22 1    
    44   24   23 1    
    45   25   24 1    
    46   26   24 1    
    47   27   24 1    
    48   47   25 1    
    49   48   25 1    
    50   49   25 1    
    51   50   26 1    
    52   51   26 1    
    53   52   26 1    
    54   39   27 1    
    55   40   27 1    
@<TRIPOS>SUBSTRUCTURE
     1 P261        1 GROUP   
@<TRIPOS>SET

