#    Name: 4b1d_6TG_1_INTS_M
#    Modification time : Tue Mar 25 06:33:15 2014

@<TRIPOS>MOLECULE
4b1d_6TG_1_INTS_M
   56     0     9     0     0
SMALL
NO_CHARGES


@<TRIPOS>ATOM
      1 CA          6.3025    4.8165  -26.9380 C.3       3 GLC5        0.0000 
      2 CA          4.7110    4.3820  -25.5000 C.3       9 GLL5        0.0000 
      3 CA          7.8940    5.2510  -28.3760 C.3       6 GLP5        0.0000 
      4 CA          6.1440    2.8650  -25.7055 C.3       3 GLC5        0.0000 
      5 CA          7.5770    1.3480  -25.9110 C.3       6 GLP5        0.0000 
      6 N           7.6040    5.5800  -26.0665 N.am      2 SEC2        0.0000 
      7 N           6.9330    6.2180  -25.0380 N.am      8 SEL2        0.0000 
      8 N           8.2750    4.9420  -27.0950 N.am      5 SEP2        0.0000 
      9 CA          8.1000    7.6660  -25.3820 C.3       3 GLC5        0.0000 
     10 CA          6.1430    7.4240  -25.0090 C.3       9 GLL5        0.0000 
     11 CA         10.0570    7.9080  -25.7550 C.3       6 GLP5        0.0000 
     12 CA          6.5365    6.7900  -26.9265 C.3       3 GLC5        0.0000 
     13 CA          6.9300    6.1560  -28.8440 C.3       6 GLP5        0.0000 
     14 CA          6.5965    9.1915  -25.7495 C.3       3 GLC5        0.0000 
     15 CA          7.0500   10.9590  -26.4900 C.3       6 GLP5        0.0000 
     16 CA          9.2330    7.0670  -24.1525 C.3       3 GLC5        0.0000 
     17 CA          8.4090    6.2260  -22.5500 C.3       9 GLL5        0.0000 
     18 CA         10.0785    5.4330  -22.8045 C.3       3 GLC5        0.0000 
     19 CA         11.7480    4.6400  -23.0590 C.3       6 GLP5        0.0000 
     20 CA          2.4810    2.0140  -18.7240 C.3       3 GLC5        0.0000 
     21 CA          4.0100    3.2740  -19.3710 C.3       9 GLL5        0.0000 
     22 CA          0.9520    0.7540  -18.0770 C.3       6 GLP5        0.0000 
     23 O           2.9095    3.0435  -21.2095 O.2       1 ALC1        0.0000 
     24 O           4.0420    2.8650  -20.5910 O.2       7 ALL1        0.0000 
     25 O           1.7770    3.2220  -21.8280 O.2       4 ALP1        0.0000 
     26 O           1.7210    3.5325  -19.3250 O.2       1 ALC1        0.0000 
     27 O           2.9360    3.6680  -18.6110 O.2       7 ALL1        0.0000 
     28 O           0.5060    3.3970  -20.0390 O.2       4 ALP1        0.0000 
     29 O           2.3565    3.4450  -20.2195 O.2       1 ALC1        0.0000 
     30 O           2.6390    4.0740  -17.2345 O.2       1 ALC1        0.0000 
     31 O           2.3420    4.4800  -15.8580 O.2       4 ALP1        0.0000 
     32 CA          2.2665   -0.7075  -18.7200 C.3       3 GLC5        0.0000 
     33 CA          3.5810   -2.1690  -19.3630 C.3       9 GLL5        0.0000 
     34 CA          3.4485   -5.8680  -18.2460 C.3       3 GLC5        0.0000 
     35 CA          3.9180   -3.9960  -18.0730 C.3       9 GLL5        0.0000 
     36 CA          2.9790   -7.7400  -18.4190 C.3       6 GLP5        0.0000 
     37 CA          1.9645   -4.7070  -18.4770 C.3       3 GLC5        0.0000 
     38 CA          0.0110   -5.4180  -18.8810 C.3       6 GLP5        0.0000 
     39 CA          5.0430   -5.0810  -19.6095 C.3       3 GLC5        0.0000 
     40 CA          6.1680   -6.1660  -21.1460 C.3       6 GLP5        0.0000 
     41 CA          3.6834    5.2401  -23.4056 C.3       3 GLC5        0.0000 
     42 CA          5.1330    3.5910  -23.2100 C.3       9 GLL5        0.0000 
     43 CA          2.2500    6.4750  -22.7760 C.3       6 GLP5        0.0000 
     44 CA          4.5359    2.2316  -24.4086 C.3       3 GLC5        0.0000 
     45 CA          5.4900    4.4570  -24.2210 C.3       9 GLL5        0.0000 
     46 CA          3.9550    0.4580  -24.7820 C.3       6 GLP5        0.0000 
     47 CA          5.2212   -0.3030  -23.5078 C.3       3 GLC5        0.0000 
     48 CA          6.7660   -0.5690  -22.6290 C.3       9 GLL5        0.0000 
     49 CA          3.3520   -0.7815  -21.4657 C.3       3 GLC5        0.0000 
     50 CA          5.4220   -1.2220  -20.7490 C.3       9 GLL5        0.0000 
     51 CA          1.3990   -1.0140  -22.3130 C.3       6 GLP5        0.0000 
     52 CA          4.8059    0.4988  -22.9652 C.3       3 GLC5        0.0000 
     53 CA          5.1880    0.1240  -20.4880 C.3       9 GLL5        0.0000 
     54 CA          2.8117   -1.6080  -20.9620 C.3       3 GLC5        0.0000 
     55 CA          4.8680   -2.2350  -19.8590 C.3       9 GLL5        0.0000 
     56 CA          5.7055   -4.4668  -20.3825 C.3       3 GLC5        0.0000 
@<TRIPOS>BOND
@<TRIPOS>SUBSTRUCTURE
     1 ALC1       23 GROUP        1 X    ALC  0     ROOT ALC X 1
     2 SEC2        6 GROUP        1 X    SEC  0     **** SEC X 2
     3 GLC5        1 GROUP        1 X    GLC  0     **** GLC X 6
     4 ALP1       25 GROUP        1 Y    ALP  0     ROOT ALP Y 8
     5 SEP2        8 GROUP        1 Y    SEP  0     **** SEP Y 9
     6 GLP5        3 GROUP        1 Y    GLP  0     **** GLP Y 13
     7 ALL1       24 GROUP        1 Z    ALL  0     ROOT ALL Z 15
     8 SEL2        7 GROUP        1 Z    SEL  0     **** SEL Z 16
     9 GLL5        2 GROUP        1 Z    GLL  0     **** GLL Z 20
@<TRIPOS>SET

