#    Name: 4b1d_6TG_1_ligand
#    Modification time : Tue Mar 25 06:33:15 2014

@<TRIPOS>MOLECULE
4b1d_6TG_1_ligand
   53    56     1     0     0
SMALL
NO_CHARGES


@<TRIPOS>ATOM
      1 C1          4.7110    4.3820  -25.5000 C.3       1 6TG1505     0.0000 
      2 C2          5.4900    4.4570  -24.2210 C.ar      1 6TG1505     0.0000 
      3 C3          5.1330    3.5910  -23.2100 C.ar      1 6TG1505     0.0000 
      4 C4          5.8290    3.5610  -22.0080 C.ar      1 6TG1505     0.0000 
      5 C5          6.8880    4.4360  -21.8400 C.ar      1 6TG1505     0.0000 
      6 C6          7.2550    5.3240  -22.8340 C.ar      1 6TG1505     0.0000 
      7 C7          6.5450    5.3440  -24.0230 C.ar      1 6TG1505     0.0000 
      8 O8          6.9330    6.2180  -25.0380 O.3       1 6TG1505     0.0000 
      9 C9          6.1430    7.4240  -25.0090 C.3       1 6TG1505     0.0000 
     10 C10         8.4090    6.2260  -22.5500 C.3       1 6TG1505     0.0000 
     11 C11         5.4510    2.5860  -20.9070 C.3       1 6TG1505     0.0000 
     12 N12         6.2380    2.8010  -19.6680 N.2       1 6TG1505     0.0000 
     13 C13         5.3770    3.2130  -18.8030 C.2       1 6TG1505     0.0000 
     14 C14         4.0100    3.2740  -19.3710 C.2       1 6TG1505     0.0000 
     15 N15         4.0420    2.8650  -20.5910 N.pl3     1 6TG1505     0.0000 
     16 N16         2.9360    3.6680  -18.6110 N.pl3     1 6TG1505     0.0000 
     17 C17         5.6500    3.4900  -17.3550 C.3       1 6TG1505     0.0000 
     18 C18         5.7170    1.1390  -21.2760 C.ar      1 6TG1505     0.0000 
     19 C19         6.5340    0.7710  -22.3420 C.ar      1 6TG1505     0.0000 
     20 C20         6.7660   -0.5690  -22.6290 C.ar      1 6TG1505     0.0000 
     21 C21         6.2090   -1.5590  -21.8380 C.ar      1 6TG1505     0.0000 
     22 C22         5.4220   -1.2220  -20.7490 C.ar      1 6TG1505     0.0000 
     23 C23         5.1880    0.1240  -20.4880 C.ar      1 6TG1505     0.0000 
     24 C24         4.8680   -2.2350  -19.8590 C.ar      1 6TG1505     0.0000 
     25 C25         3.5810   -2.1690  -19.3630 C.ar      1 6TG1505     0.0000 
     26 N26         3.0810   -3.0170  -18.4550 N.ar      1 6TG1505     0.0000 
     27 C27         3.9180   -3.9960  -18.0730 C.ar      1 6TG1505     0.0000 
     28 N28         5.1730   -4.2120  -18.4970 N.ar      1 6TG1505     0.0000 
     29 C29         5.6180   -3.3000  -19.3790 C.ar      1 6TG1505     0.0000 
     30 H           4.3290    2.9466  -23.3446 H         1 6TG1505     0.0000 
     31 H           7.4196    4.4248  -20.9451 H         1 6TG1505     0.0000 
     32 H           3.3645    2.7333  -21.2400 H         1 6TG1505     0.0000 
     33 H           2.0448    3.6463  -19.0640 H         1 6TG1505     0.0000 
     34 H           3.1391    3.9421  -17.6710 H         1 6TG1505     0.0000 
     35 H           6.9719    1.5028  -22.9251 H         1 6TG1505     0.0000 
     36 H           7.3562   -0.8243  -23.4355 H         1 6TG1505     0.0000 
     37 H           6.3804   -2.5522  -22.0600 H         1 6TG1505     0.0000 
     38 H           4.5919    0.3811  -19.6684 H         1 6TG1505     0.0000 
     39 H           2.9588   -1.3869  -19.7374 H         1 6TG1505     0.0000 
     40 H           3.5301   -4.7006  -17.3278 H         1 6TG1505     0.0000 
     41 H           6.6177   -3.3858  -19.7472 H         1 6TG1505     0.0000 
     42 H           5.0412    5.0416  -26.1752 H         1 6TG1505     0.0000 
     43 H           4.7730    3.4766  -25.9201 H         1 6TG1505     0.0000 
     44 H           3.7400    4.5720  -25.3551 H         1 6TG1505     0.0000 
     45 H           6.2420    7.9121  -24.1418 H         1 6TG1505     0.0000 
     46 H           6.4079    8.0590  -25.7347 H         1 6TG1505     0.0000 
     47 H           5.1687    7.2327  -25.1281 H         1 6TG1505     0.0000 
     48 H           9.2448    5.7110  -22.3594 H         1 6TG1505     0.0000 
     49 H           8.6067    6.8304  -23.3218 H         1 6TG1505     0.0000 
     50 H           8.2373    6.8102  -21.7567 H         1 6TG1505     0.0000 
     51 H           5.9787    2.6757  -16.8766 H         1 6TG1505     0.0000 
     52 H           6.3447    4.1996  -17.2372 H         1 6TG1505     0.0000 
     53 H           4.8295    3.8006  -16.8752 H         1 6TG1505     0.0000 
@<TRIPOS>BOND
     1    2    1 1    
     2   42    1 1    
     3   43    1 1    
     4   44    1 1    
     5    3    2 ar   
     6    7    2 ar   
     7    4    3 ar   
     8   30    3 1    
     9    5    4 ar   
    10   11    4 1    
    11    6    5 ar   
    12   31    5 1    
    13    7    6 ar   
    14   10    6 1    
    15    8    7 1    
    16    9    8 1    
    17   45    9 1    
    18   46    9 1    
    19   47    9 1    
    20   48   10 1    
    21   49   10 1    
    22   50   10 1    
    23   12   11 1    
    24   15   11 1    
    25   18   11 1    
    26   13   12 2    
    27   14   13 1    
    28   17   13 1    
    29   15   14 1    
    30   16   14 2    
    31   32   15 1    
    32   33   16 1    
    33   34   16 1    
    34   51   17 1    
    35   52   17 1    
    36   53   17 1    
    37   19   18 ar   
    38   23   18 ar   
    39   20   19 ar   
    40   35   19 1    
    41   21   20 ar   
    42   36   20 1    
    43   22   21 ar   
    44   37   21 1    
    45   23   22 ar   
    46   24   22 1    
    47   38   23 1    
    48   25   24 ar   
    49   29   24 ar   
    50   26   25 ar   
    51   39   25 1    
    52   27   26 ar   
    53   28   27 ar   
    54   40   27 1    
    55   29   28 ar   
    56   41   29 1    
@<TRIPOS>SUBSTRUCTURE
     1 6TG1505     1 GROUP   
@<TRIPOS>SET

