#    Name: 2wet_FAD_2_INTS_M
#    Modification time : Tue Mar 25 04:13:07 2014

@<TRIPOS>MOLECULE
2wet_FAD_2_INTS_M
  122     0     9     0     0
SMALL
NO_CHARGES


@<TRIPOS>ATOM
      1 N          14.6245   88.5845    3.7285 N.am      2 SEC2        0.0000 
      2 N          14.2610   90.2200    3.9070 N.am      8 SEL2        0.0000 
      3 N          14.9880   86.9490    3.5500 N.am      5 SEP2        0.0000 
      4 N          14.6265   87.9700    2.6340 N.am      2 SEC2        0.0000 
      5 N          14.2650   88.9910    1.7180 N.am      8 SEL2        0.0000 
      6 CA         14.1960   92.9265    3.6990 C.3       3 GLC5        0.0000 
      7 CA         16.0600   92.1440    2.9120 C.3       9 GLL5        0.0000 
      8 CA         12.3320   93.7090    4.4860 C.3       6 GLP5        0.0000 
      9 CA         17.9065   94.2315    1.2710 C.3       3 GLC5        0.0000 
     10 CA         17.3440   92.7110    2.3080 C.3       9 GLL5        0.0000 
     11 CA         18.4690   95.7520    0.2340 C.3       6 GLP5        0.0000 
     12 CA         18.3900   90.1035    1.6115 C.3       3 GLC5        0.0000 
     13 CA         18.5130   91.7640    2.4700 C.3       9 GLL5        0.0000 
     14 CA         18.2670   88.4430    0.7530 C.3       6 GLP5        0.0000 
     15 N          19.1480   92.8595    0.1085 N.am      2 SEC2        0.0000 
     16 N          19.3250   91.9040    1.3270 N.am      8 SEL2        0.0000 
     17 N          18.9710   93.8150   -1.1100 N.am      5 SEP2        0.0000 
     18 CA         19.5280   91.7940    5.5525 C.3       3 GLC5        0.0000 
     19 CA         19.3060   92.3560    3.6070 C.3       9 GLL5        0.0000 
     20 CA         19.7500   91.2320    7.4980 C.3       6 GLP5        0.0000 
     21 O          20.9465   90.8455    4.2095 O.2       1 ALC1        0.0000 
     22 O          20.6760   92.0700    3.4990 O.2       7 ALL1        0.0000 
     23 O          21.2170   89.6210    4.9200 O.2       4 ALP1        0.0000 
     24 CA         18.7805   94.7900    1.7905 C.3       3 GLC5        0.0000 
     25 CA         19.0920   93.8280    3.3470 C.3       9 GLL5        0.0000 
     26 CA         18.5110   97.1370    5.0190 C.3       3 GLC5        0.0000 
     27 CA         20.3220   96.1400    5.8860 C.3       9 GLL5        0.0000 
     28 CA         16.7000   98.1340    4.1520 C.3       6 GLP5        0.0000 
     29 CA         22.0810   98.9800    5.8325 C.3       3 GLC5        0.0000 
     30 CA         21.2810   97.0960    6.2390 C.3       9 GLL5        0.0000 
     31 CA         22.8810  100.8640    5.4260 C.3       6 GLP5        0.0000 
     32 O          22.3925   98.8060    7.9370 O.2       1 ALC1        0.0000 
     33 O          21.4450   97.4370    7.5170 O.2       7 ALL1        0.0000 
     34 O          23.3400  100.1750    8.3570 O.2       4 ALP1        0.0000 
     35 N          23.4470   98.3100    5.6070 N.am      2 SEC2        0.0000 
     36 N          22.2690   97.4530    5.3330 N.am      8 SEL2        0.0000 
     37 N          24.6250   99.1670    5.8810 N.am      5 SEP2        0.0000 
     38 CA         20.9275   98.2980    3.3035 C.3       3 GLC5        0.0000 
     39 CA         22.3120   96.8560    4.0850 C.3       9 GLL5        0.0000 
     40 CA         19.5430   99.7400    2.5220 C.3       6 GLP5        0.0000 
     41 CA         22.6460   95.9425    2.1995 C.3       3 GLC5        0.0000 
     42 CA         22.9800   95.0290    0.3140 C.3       6 GLP5        0.0000 
     43 CA         22.9705   95.0955    4.4165 C.3       3 GLC5        0.0000 
     44 CA         23.6290   93.3350    4.7480 C.3       6 GLP5        0.0000 
     45 CA         24.2410   97.0885    4.9855 C.3       3 GLC5        0.0000 
     46 CA         26.1700   97.3210    5.8860 C.3       6 GLP5        0.0000 
     47 CA         22.6690   98.7670    4.0020 C.3       3 GLC5        0.0000 
     48 CA         23.0260  100.6780    3.9190 C.3       6 GLP5        0.0000 
     49 N          22.4505   94.9550    3.0815 N.am      2 SEC2        0.0000 
     50 N          21.3680   95.9090    3.7430 N.am      8 SEL2        0.0000 
     51 N          23.5330   94.0010    2.4200 N.am      5 SEP2        0.0000 
     52 N           5.2020   87.3525   -4.3225 N.am      2 SEC2        0.0000 
     53 N           5.0120   86.0140   -4.0880 N.am      8 SEL2        0.0000 
     54 N           5.3920   88.6910   -4.5570 N.am      5 SEP2        0.0000 
     55 O           4.8970   83.8745   -4.4615 O.2       1 ALC1        0.0000 
     56 O           4.8490   84.0310   -3.0090 O.2       7 ALL1        0.0000 
     57 O           4.9450   83.7180   -5.9140 O.2       4 ALP1        0.0000 
     58 CA          6.3730   81.8805    6.8005 C.3       3 GLC5        0.0000 
     59 CA          7.0340   82.6960    5.1450 C.3       9 GLL5        0.0000 
     60 CA          5.7120   81.0650    8.4560 C.3       6 GLP5        0.0000 
     61 CA          6.8830   81.0105    4.6020 C.3       3 GLC5        0.0000 
     62 CA          6.7320   79.3250    4.0590 C.3       6 GLP5        0.0000 
     63 CA          8.7935   82.4825    6.1205 C.3       3 GLC5        0.0000 
     64 CA         10.5530   82.2690    7.0960 C.3       6 GLP5        0.0000 
     65 CA          9.6750   85.9040    5.1615 C.3       3 GLC5        0.0000 
     66 CA          7.7850   85.4550    5.2100 C.3       9 GLL5        0.0000 
     67 CA         11.5650   86.3530    5.1130 C.3       6 GLP5        0.0000 
     68 CA          7.6490   87.3760    5.9580 C.3       3 GLC5        0.0000 
     69 CA          7.5130   89.2970    6.7060 C.3       6 GLP5        0.0000 
     70 CA          8.3565   84.9790    7.0035 C.3       3 GLC5        0.0000 
     71 CA          8.9280   84.5030    8.7970 C.3       6 GLP5        0.0000 
     72 CA          6.1145   86.2900    4.7330 C.3       3 GLC5        0.0000 
     73 CA          4.4440   87.1250    4.2560 C.3       6 GLP5        0.0000 
     74 CA          4.5590   84.2145    1.4165 C.3       3 GLC5        0.0000 
     75 CA          6.5590   85.0720    1.5920 C.3       9 GLL5        0.0000 
     76 CA          2.5590   83.3570    1.2410 C.3       6 GLP5        0.0000 
     77 CA          7.1390   88.8695    1.5110 C.3       3 GLC5        0.0000 
     78 CA          6.9940   87.1690    0.1990 C.3       9 GLL5        0.0000 
     79 CA          7.2840   90.5700    2.8230 C.3       6 GLP5        0.0000 
     80 CA          5.7685   87.5315    1.6400 C.3       3 GLC5        0.0000 
     81 CA          4.5430   87.8940    3.0810 C.3       6 GLP5        0.0000 
     82 CA          5.7020   88.0375   -1.0850 C.3       3 GLC5        0.0000 
     83 CA          4.4100   88.9060   -2.3690 C.3       6 GLP5        0.0000 
     84 O          10.0845   85.4385    0.4525 O.2       1 ALC1        0.0000 
     85 O           9.2900   86.4400    0.5800 O.2       7 ALL1        0.0000 
     86 O          10.8790   84.4370    0.3250 O.2       4 ALP1        0.0000 
     87 CA          8.8435   89.7145    1.1465 C.3       3 GLC5        0.0000 
     88 CA          8.9470   88.5150   -0.6260 C.3       9 GLL5        0.0000 
     89 CA          8.7400   90.9140    2.9190 C.3       6 GLP5        0.0000 
     90 O          11.0200   86.0200   -0.2130 O.2       1 ALC1        0.0000 
     91 O          11.1610   87.6030   -0.7510 O.2       7 ALL1        0.0000 
     92 CA         11.4745   91.9375   -1.9745 C.3       3 GLC5        0.0000 
     93 CA         10.9180   89.9760   -1.1990 C.3       9 GLL5        0.0000 
     94 CA         12.0310   93.8990   -2.7500 C.3       6 GLP5        0.0000 
     95 N          13.1085   91.8680   -2.2360 N.am      2 SEC2        0.0000 
     96 N          13.2060   91.7380   -0.5120 N.am      8 SEL2        0.0000 
     97 N          13.0110   91.9980   -3.9600 N.am      5 SEP2        0.0000 
     98 N           9.8450   93.1865    1.0660 N.am      2 SEC2        0.0000 
     99 N          11.1370   92.6700    0.6680 N.am      8 SEL2        0.0000 
    100 N           8.5530   93.7030    1.4640 N.am      5 SEP2        0.0000 
    101 CA         15.9435   94.2862    3.1360 C.3       3 GLC5        0.0000 
    102 CA         15.1850   96.1450    3.6620 C.3       6 GLP5        0.0000 
    103 CA         21.9925   94.5902    5.0008 C.3       3 GLC5        0.0000 
    104 CA         20.3900   95.5510    4.6210 C.3       9 GLL5        0.0000 
    105 CA         19.8137   98.4315    6.4548 C.3       3 GLC5        0.0000 
    106 CA         18.8260  100.2450    6.8470 C.3       6 GLP5        0.0000 
    107 CA          8.1920   83.0948    2.7725 C.3       3 GLC5        0.0000 
    108 CA          6.2100   83.7180    1.5980 C.3       9 GLL5        0.0000 
    109 CA         10.0930   82.8610    3.3700 C.3       6 GLP5        0.0000 
    110 CA          7.6993   84.0785   -0.0065 C.3       3 GLC5        0.0000 
    111 CA          9.0140   83.7620   -1.6080 C.3       6 GLP5        0.0000 
    112 CA          8.5222   82.9885    3.9493 C.3       3 GLC5        0.0000 
    113 CA          6.8690   83.5360    3.9120 C.3       9 GLL5        0.0000 
    114 CA          4.6755   83.1316    2.8138 C.3       3 GLC5        0.0000 
    115 CA          2.7710   82.8310    2.5840 C.3       6 GLP5        0.0000 
    116 CA          8.6941   84.1356    3.5214 C.3       3 GLC5        0.0000 
    117 CA          7.2340   84.8760    3.9330 C.3       9 GLL5        0.0000 
    118 CA          8.3618   85.4470   -0.8400 C.3       3 GLC5        0.0000 
    119 CA         11.5835   89.0765   -2.9540 C.3       3 GLC5        0.0000 
    120 CA         12.5600   88.8810   -4.6380 C.3       6 GLP5        0.0000 
    121 CA          9.6994   90.4039   -2.4041 C.3       3 GLC5        0.0000 
    122 CA          9.1290   91.5490   -3.7170 C.3       6 GLP5        0.0000 
@<TRIPOS>BOND
@<TRIPOS>SUBSTRUCTURE
     1 ALC1       21 GROUP        1 X    ALC  0     ROOT ALC X 1
     2 SEC2        1 GROUP        1 X    SEC  0     **** SEC X 2
     3 GLC5        6 GROUP        1 X    GLC  0     **** GLC X 6
     4 ALP1       23 GROUP        1 Y    ALP  0     ROOT ALP Y 8
     5 SEP2        3 GROUP        1 Y    SEP  0     **** SEP Y 9
     6 GLP5        8 GROUP        1 Y    GLP  0     **** GLP Y 13
     7 ALL1       22 GROUP        1 Z    ALL  0     ROOT ALL Z 15
     8 SEL2        2 GROUP        1 Z    SEL  0     **** SEL Z 16
     9 GLL5        7 GROUP        1 Z    GLL  0     **** GLL Z 20
@<TRIPOS>SET

