#    Name: 2wet_FAD_2_ligand
#    Modification time : Tue Mar 25 04:13:07 2014

@<TRIPOS>MOLECULE
2wet_FAD_2_ligand
   84    89     1     0     0
SMALL
NO_CHARGES


@<TRIPOS>ATOM
      1 PA         14.1700   90.3660    2.3860 P.3       1 FAD1652     0.0000 
      2 O1A        14.2610   90.2200    3.9070 O.co2     1 FAD1652     0.0000 
      3 O2A        14.2650   88.9910    1.7180 O.co2     1 FAD1652     0.0000 
      4 O5B        15.4310   91.3030    1.9460 O.3       1 FAD1652     0.0000 
      5 C5B        16.0600   92.1440    2.9120 C.3       1 FAD1652     0.0000 
      6 C4B        17.3440   92.7110    2.3080 C.3       1 FAD1652     0.0000 
      7 O4B        17.7220   93.9010    2.9810 O.3       1 FAD1652     0.0000 
      8 C3B        18.5130   91.7640    2.4700 C.3       1 FAD1652     0.0000 
      9 O3B        19.3250   91.9040    1.3270 O.3       1 FAD1652     0.0000 
     10 C2B        19.3060   92.3560    3.6070 C.3       1 FAD1652     0.0000 
     11 O2B        20.6760   92.0700    3.4990 O.3       1 FAD1652     0.0000 
     12 C1B        19.0920   93.8280    3.3470 C.3       1 FAD1652     0.0000 
     13 N9A        19.3640   94.6470    4.5300 N.pl3     1 FAD1652     0.0000 
     14 C8A        18.6680   94.6810    5.7210 C.2       1 FAD1652     0.0000 
     15 N7A        19.2590   95.5960    6.5370 N.2       1 FAD1652     0.0000 
     16 C5A        20.3220   96.1400    5.8860 C.ar      1 FAD1652     0.0000 
     17 C6A        21.2810   97.0960    6.2390 C.ar      1 FAD1652     0.0000 
     18 N6A        21.4450   97.4370    7.5170 N.pl3     1 FAD1652     0.0000 
     19 N1A        22.2690   97.4530    5.3330 N.ar      1 FAD1652     0.0000 
     20 C2A        22.3120   96.8560    4.0850 C.ar      1 FAD1652     0.0000 
     21 N3A        21.3680   95.9090    3.7430 N.ar      1 FAD1652     0.0000 
     22 C4A        20.3900   95.5510    4.6210 C.ar      1 FAD1652     0.0000 
     23 N1          5.6880   85.9360   -1.8730 N.2       1 FAD1652     0.0000 
     24 C2          5.1710   85.3680   -3.0300 C.2       1 FAD1652     0.0000 
     25 O2          5.0120   86.0140   -4.0880 O.2       1 FAD1652     0.0000 
     26 N3          4.8490   84.0310   -3.0090 N.am      1 FAD1652     0.0000 
     27 C4          5.0070   83.2580   -1.8760 C.2       1 FAD1652     0.0000 
     28 O4          4.6900   82.0640   -1.9460 O.2       1 FAD1652     0.0000 
     29 C4X         5.5260   83.8430   -0.7110 C.2       1 FAD1652     0.0000 
     30 N5          5.7070   83.1190    0.4510 N.2       1 FAD1652     0.0000 
     31 C5X         6.2100   83.7180    1.5980 C.ar      1 FAD1652     0.0000 
     32 C6          6.3720   82.9390    2.7520 C.ar      1 FAD1652     0.0000 
     33 C7          6.8690   83.5360    3.9120 C.ar      1 FAD1652     0.0000 
     34 C7M         7.0340   82.6960    5.1450 C.3       1 FAD1652     0.0000 
     35 C8          7.2340   84.8760    3.9330 C.ar      1 FAD1652     0.0000 
     36 C8M         7.7850   85.4550    5.2100 C.3       1 FAD1652     0.0000 
     37 C9          7.0810   85.6550    2.7740 C.ar      1 FAD1652     0.0000 
     38 C9A         6.5590   85.0720    1.5920 C.ar      1 FAD1652     0.0000 
     39 N10         6.3830   85.7990    0.4060 N.pl3     1 FAD1652     0.0000 
     40 C10         5.8680   85.1930   -0.7190 C.2       1 FAD1652     0.0000 
     41 C1'         6.9940   87.1690    0.1990 C.3       1 FAD1652     0.0000 
     42 C2'         8.4250   87.0950   -0.3430 C.3       1 FAD1652     0.0000 
     43 O2'         9.2900   86.4400    0.5800 O.3       1 FAD1652     0.0000 
     44 C3'         8.9470   88.5150   -0.6260 C.3       1 FAD1652     0.0000 
     45 O3'         7.9840   89.2160   -1.3900 O.3       1 FAD1652     0.0000 
     46 C4'        10.2960   88.5680   -1.3410 C.3       1 FAD1652     0.0000 
     47 O4'        11.1610   87.6030   -0.7510 O.3       1 FAD1652     0.0000 
     48 C5'        10.9180   89.9760   -1.1990 C.3       1 FAD1652     0.0000 
     49 O5'        11.3260   90.1770    0.1380 O.3       1 FAD1652     0.0000 
     50 P          12.1440   91.5150    0.5720 P.3       1 FAD1652     0.0000 
     51 O1P        13.2060   91.7380   -0.5120 O.co2     1 FAD1652     0.0000 
     52 O2P        11.1370   92.6700    0.6680 O.co2     1 FAD1652     0.0000 
     53 O3P        12.8140   91.2010    2.0400 O.3       1 FAD1652     0.0000 
     54 H          16.3301   91.5948    3.8166 H         1 FAD1652     0.0000 
     55 H          15.4241   92.9854    3.1959 H         1 FAD1652     0.0000 
     56 H          17.1940   92.8905    1.2615 H         1 FAD1652     0.0000 
     57 H          18.2041   90.8232    2.6856 H         1 FAD1652     0.0000 
     58 H          18.8567   92.1081    4.5126 H         1 FAD1652     0.0000 
     59 H          19.7150   94.1109    2.5224 H         1 FAD1652     0.0000 
     60 H          17.9009   94.1472    5.9276 H         1 FAD1652     0.0000 
     61 H          20.8704   96.9548    8.1783 H         1 FAD1652     0.0000 
     62 H          22.1279   98.1443    7.6995 H         1 FAD1652     0.0000 
     63 H          23.0480   97.1192    3.4139 H         1 FAD1652     0.0000 
     64 H           4.4726   83.5839   -3.8771 H         1 FAD1652     0.0000 
     65 H           6.1291   81.9487    2.7418 H         1 FAD1652     0.0000 
     66 H           7.3442   86.6419    2.7772 H         1 FAD1652     0.0000 
     67 H           7.0050   87.7123    1.1516 H         1 FAD1652     0.0000 
     68 H           6.3787   87.7412   -0.5058 H         1 FAD1652     0.0000 
     69 H           8.3931   86.5693   -1.2928 H         1 FAD1652     0.0000 
     70 H           9.0709   89.0131    0.3499 H         1 FAD1652     0.0000 
     71 H          10.1372   88.3753   -2.3830 H         1 FAD1652     0.0000 
     72 H          10.1579   90.6973   -1.5178 H         1 FAD1652     0.0000 
     73 H          11.7538   90.0314   -1.9047 H         1 FAD1652     0.0000 
     74 H           7.6623   81.9329    4.9932 H         1 FAD1652     0.0000 
     75 H           7.3975   83.2272    5.9103 H         1 FAD1652     0.0000 
     76 H           6.1647   82.3044    5.4467 H         1 FAD1652     0.0000 
     77 H           8.6187   84.9858    5.5012 H         1 FAD1652     0.0000 
     78 H           8.0133   86.4235    5.1105 H         1 FAD1652     0.0000 
     79 H           7.1305   85.3840    5.9627 H         1 FAD1652     0.0000 
     80 H          20.2495   92.0432    1.6819 H         1 FAD1652     0.0000 
     81 H          20.7998   91.2077    3.9901 H         1 FAD1652     0.0000 
     82 H           9.4695   85.5436    0.1748 H         1 FAD1652     0.0000 
     83 H           7.8080   90.0559   -0.8766 H         1 FAD1652     0.0000 
     84 H          10.5637   87.0272   -0.1927 H         1 FAD1652     0.0000 
@<TRIPOS>BOND
     1    2    1 ar   
     2    3    1 ar   
     3    4    1 1    
     4   53    1 1    
     5    5    4 1    
     6    6    5 1    
     7   54    5 1    
     8   55    5 1    
     9    7    6 1    
    10    8    6 1    
    11   56    6 1    
    12   12    7 1    
    13    9    8 1    
    14   10    8 1    
    15   57    8 1    
    16   80    9 1    
    17   11   10 1    
    18   12   10 1    
    19   58   10 1    
    20   81   11 1    
    21   13   12 1    
    22   59   12 1    
    23   14   13 1    
    24   22   13 1    
    25   15   14 2    
    26   60   14 1    
    27   16   15 1    
    28   17   16 ar   
    29   22   16 ar   
    30   18   17 1    
    31   19   17 ar   
    32   61   18 1    
    33   62   18 1    
    34   20   19 ar   
    35   21   20 ar   
    36   63   20 1    
    37   22   21 ar   
    38   24   23 1    
    39   40   23 2    
    40   25   24 2    
    41   26   24 am   
    42   27   26 am   
    43   64   26 1    
    44   28   27 2    
    45   29   27 1    
    46   30   29 2    
    47   40   29 1    
    48   31   30 1    
    49   32   31 ar   
    50   38   31 ar   
    51   33   32 ar   
    52   65   32 1    
    53   34   33 1    
    54   35   33 ar   
    55   74   34 1    
    56   75   34 1    
    57   76   34 1    
    58   36   35 1    
    59   37   35 ar   
    60   77   36 1    
    61   78   36 1    
    62   79   36 1    
    63   38   37 ar   
    64   66   37 1    
    65   39   38 1    
    66   40   39 1    
    67   41   39 1    
    68   42   41 1    
    69   67   41 1    
    70   68   41 1    
    71   43   42 1    
    72   44   42 1    
    73   69   42 1    
    74   82   43 1    
    75   45   44 1    
    76   46   44 1    
    77   70   44 1    
    78   83   45 1    
    79   47   46 1    
    80   48   46 1    
    81   71   46 1    
    82   84   47 1    
    83   49   48 1    
    84   72   48 1    
    85   73   48 1    
    86   50   49 1    
    87   51   50 ar   
    88   52   50 ar   
    89   53   50 1    
@<TRIPOS>SUBSTRUCTURE
     1 FAD1652     1 GROUP   
@<TRIPOS>SET

