#    Name: 3uk6_ADP_8_INTS_M
#    Modification time : Mon Mar 24 22:39:03 2014

@<TRIPOS>MOLECULE
3uk6_ADP_8_INTS_M
   63     0     9     0     0
SMALL
NO_CHARGES


@<TRIPOS>ATOM
      1 N         -29.4460  -27.2165   93.2780 N.am      2 SEC2        0.0000 
      2 N         -30.0420  -26.2710   92.1810 N.am      8 SEL2        0.0000 
      3 N         -28.8500  -28.1620   94.3750 N.am      5 SEP2        0.0000 
      4 N         -30.0355  -26.0085   93.4770 N.am      2 SEC2        0.0000 
      5 N         -30.0290  -25.7460   94.7730 N.am      5 SEP2        0.0000 
      6 N         -30.6085  -28.4015   89.1395 N.am      2 SEC2        0.0000 
      7 N         -29.8610  -27.4740   90.0320 N.am      8 SEL2        0.0000 
      8 N         -31.3560  -29.3290   88.2470 N.am      5 SEP2        0.0000 
      9 N         -29.3315  -28.6225   91.0370 N.am      2 SEC2        0.0000 
     10 N         -28.8020  -29.7710   92.0420 N.am      5 SEP2        0.0000 
     11 N         -31.8655  -26.1265   89.0925 N.am      2 SEC2        0.0000 
     12 N         -31.5300  -25.6380   90.3770 N.am      8 SEL2        0.0000 
     13 N         -32.2010  -26.6150   87.8080 N.am      5 SEP2        0.0000 
     14 N         -31.2810  -29.4500   94.8425 N.am      2 SEC2        0.0000 
     15 N         -32.1680  -28.9210   93.7850 N.am      8 SEL2        0.0000 
     16 N         -30.3940  -29.9790   95.9000 N.am      5 SEP2        0.0000 
     17 N         -31.4675  -29.3140   91.0515 N.am      2 SEC2        0.0000 
     18 N         -31.9110  -27.8370   91.5360 N.am      8 SEL2        0.0000 
     19 N         -31.0240  -30.7910   90.5670 N.am      5 SEP2        0.0000 
     20 O         -37.6325  -29.0860   96.2780 O.2       1 ALC1        0.0000 
     21 O         -37.6750  -29.0180   94.9570 O.2       7 ALL1        0.0000 
     22 O         -37.5900  -29.1540   97.5990 O.2       4 ALP1        0.0000 
     23 CA        -33.6590  -31.1260   95.0755 C.3       3 GLC5        0.0000 
     24 CA        -35.5580  -30.2740   94.6040 C.3       9 GLL5        0.0000 
     25 CA        -31.7600  -31.9780   95.5470 C.3       6 GLP5        0.0000 
     26 O         -36.6325  -29.9635   96.7620 O.2       1 ALC1        0.0000 
     27 O         -35.6750  -30.7730   95.9250 O.2       7 ALL1        0.0000 
     28 CA        -37.2485  -32.3785   92.6060 C.3       3 GLC5        0.0000 
     29 CA        -36.1180  -31.1970   93.5220 C.3       9 GLL5        0.0000 
     30 CA        -38.3790  -33.5600   91.6900 C.3       6 GLP5        0.0000 
     31 CA        -36.3880  -31.1740   91.3055 C.3       3 GLC5        0.0000 
     32 CA        -36.6580  -31.1510   89.0890 C.3       6 GLP5        0.0000 
     33 CA        -32.3980  -32.6700   92.3340 C.3       3 GLC5        0.0000 
     34 CA        -34.0340  -34.0710   92.7470 C.3       9 GLL5        0.0000 
     35 CA        -30.7620  -31.2690   91.9210 C.3       6 GLP5        0.0000 
     36 CA        -34.1810  -37.5885   92.8995 C.3       3 GLC5        0.0000 
     37 CA        -33.6950  -35.4140   93.0290 C.3       9 GLL5        0.0000 
     38 CA        -34.6670  -39.7630   92.7700 C.3       6 GLP5        0.0000 
     39 O         -32.3160  -35.3265   91.3460 O.2       1 ALC1        0.0000 
     40 O         -32.7190  -36.0770   92.4080 O.2       7 ALL1        0.0000 
     41 O         -31.9130  -34.5760   90.2840 O.2       4 ALP1        0.0000 
     42 N         -34.3115  -37.5390   93.9735 N.am      2 SEC2        0.0000 
     43 N         -34.4030  -36.0550   93.9880 N.am      8 SEL2        0.0000 
     44 N         -34.2200  -39.0230   93.9590 N.am      5 SEP2        0.0000 
     45 CA        -36.3240  -35.0325   96.1270 C.3       3 GLC5        0.0000 
     46 CA        -35.3930  -35.3990   94.6050 C.3       9 GLL5        0.0000 
     47 CA        -37.2550  -34.6660   97.6490 C.3       6 GLP5        0.0000 
     48 CA        -34.4770  -36.9980   95.4425 C.3       3 GLC5        0.0000 
     49 CA        -33.5610  -38.5970   96.2800 C.3       6 GLP5        0.0000 
     50 CA        -36.3055  -35.5665   92.8400 C.3       3 GLC5        0.0000 
     51 CA        -37.2180  -35.7340   91.0750 C.3       6 GLP5        0.0000 
     52 N         -36.3945  -33.8340   95.6820 N.am      2 SEC2        0.0000 
     53 N         -35.8060  -34.1400   94.4180 N.am      8 SEL2        0.0000 
     54 N         -36.9830  -33.5280   96.9460 N.am      5 SEP2        0.0000 
     55 CA        -36.7265  -33.5405   92.5850 C.3       3 GLC5        0.0000 
     56 CA        -35.0740  -33.5210   93.4800 C.3       9 GLL5        0.0000 
     57 CA        -36.3238  -29.8545   90.7895 C.3       3 GLC5        0.0000 
     58 CA        -36.5040  -28.9760   92.8500 C.3       9 GLL5        0.0000 
     59 CA        -37.9924  -28.9690   92.4730 C.3       3 GLC5        0.0000 
     60 CA        -39.8000  -29.1560   91.5170 C.3       6 GLP5        0.0000 
     61 CA        -33.1570  -32.8870   94.3302 C.3       3 GLC5        0.0000 
     62 CA        -35.0532  -35.1073   91.4415 C.3       3 GLC5        0.0000 
     63 CA        -36.2420  -35.4720   89.9950 C.3       6 GLP5        0.0000 
@<TRIPOS>BOND
@<TRIPOS>SUBSTRUCTURE
     1 ALC1       20 GROUP        1 X    ALC  0     ROOT ALC X 1
     2 SEC2        1 GROUP        1 X    SEC  0     **** SEC X 2
     3 GLC5       23 GROUP        1 X    GLC  0     **** GLC X 6
     4 ALP1       22 GROUP        1 Y    ALP  0     ROOT ALP Y 8
     5 SEP2        3 GROUP        1 Y    SEP  0     **** SEP Y 9
     6 GLP5       25 GROUP        1 Y    GLP  0     **** GLP Y 13
     7 ALL1       21 GROUP        1 Z    ALL  0     ROOT ALL Z 15
     8 SEL2        2 GROUP        1 Z    SEL  0     **** SEL Z 16
     9 GLL5       24 GROUP        1 Z    GLL  0     **** GLL Z 20
@<TRIPOS>SET

