#    Name: 3uk6_ADP_8_ligand
#    Modification time : Mon Mar 24 22:39:03 2014

@<TRIPOS>MOLECULE
3uk6_ADP_8_ligand
   39    41     1     0     0
SMALL
NO_CHARGES


@<TRIPOS>ATOM
      1 PB        -30.8180  -26.7750   91.0420 P.3       1 ADP1450     0.0000 
      2 O1B       -30.0420  -26.2710   92.1810 O.co2     1 ADP1450     0.0000 
      3 O2B       -29.8610  -27.4740   90.0320 O.co2     1 ADP1450     0.0000 
      4 O3B       -31.5300  -25.6380   90.3770 O.co2     1 ADP1450     0.0000 
      5 PA        -32.8550  -28.0370   92.8170 P.3       1 ADP1450     0.0000 
      6 O1A       -32.1680  -28.9210   93.7850 O.co2     1 ADP1450     0.0000 
      7 O2A       -33.1680  -26.7040   93.4640 O.co2     1 ADP1450     0.0000 
      8 O3A       -31.9110  -27.8370   91.5360 O.3       1 ADP1450     0.0000 
      9 O5'       -34.1790  -28.7390   92.3300 O.3       1 ADP1450     0.0000 
     10 C5'       -35.4750  -28.1400   92.1300 C.3       1 ADP1450     0.0000 
     11 C4'       -36.5040  -28.9760   92.8500 C.3       1 ADP1450     0.0000 
     12 O4'       -36.4370  -30.3580   92.4230 O.3       1 ADP1450     0.0000 
     13 C3'       -36.3800  -29.0060   94.3680 C.3       1 ADP1450     0.0000 
     14 O3'       -37.6750  -29.0180   94.9570 O.3       1 ADP1450     0.0000 
     15 C2'       -35.5580  -30.2740   94.6040 C.3       1 ADP1450     0.0000 
     16 O2'       -35.6750  -30.7730   95.9250 O.3       1 ADP1450     0.0000 
     17 C1'       -36.1180  -31.1970   93.5220 C.3       1 ADP1450     0.0000 
     18 N9        -35.1790  -32.2160   93.0580 N.pl3     1 ADP1450     0.0000 
     19 C8        -34.2120  -32.0580   92.0990 C.2       1 ADP1450     0.0000 
     20 N7        -33.5020  -33.1360   91.8720 N.2       1 ADP1450     0.0000 
     21 C5        -34.0340  -34.0710   92.7470 C.ar      1 ADP1450     0.0000 
     22 C6        -33.6950  -35.4140   93.0290 C.ar      1 ADP1450     0.0000 
     23 N6        -32.7190  -36.0770   92.4080 N.pl3     1 ADP1450     0.0000 
     24 N1        -34.4030  -36.0550   93.9880 N.ar      1 ADP1450     0.0000 
     25 C2        -35.3930  -35.3990   94.6050 C.ar      1 ADP1450     0.0000 
     26 N3        -35.8060  -34.1400   94.4180 N.ar      1 ADP1450     0.0000 
     27 C4        -35.0740  -33.5210   93.4800 C.ar      1 ADP1450     0.0000 
     28 H         -35.7356  -28.1041   91.0711 H         1 ADP1450     0.0000 
     29 H         -35.5088  -27.1259   92.5311 H         1 ADP1450     0.0000 
     30 H         -37.5049  -28.5922   92.6140 H         1 ADP1450     0.0000 
     31 H         -35.7827  -28.1663   94.6499 H         1 ADP1450     0.0000 
     32 H         -34.5430  -30.0358   94.3147 H         1 ADP1450     0.0000 
     33 H         -37.0170  -31.6527   93.9067 H         1 ADP1450     0.0000 
     34 H         -34.0834  -31.1782   91.6283 H         1 ADP1450     0.0000 
     35 H         -32.2455  -35.5823   91.6792 H         1 ADP1450     0.0000 
     36 H         -32.5483  -37.0093   92.7269 H         1 ADP1450     0.0000 
     37 H         -35.9433  -35.9744   95.3720 H         1 ADP1450     0.0000 
     38 H         -37.5115  -29.1064   95.9396 H         1 ADP1450     0.0000 
     39 H         -36.3584  -30.1887   96.3626 H         1 ADP1450     0.0000 
@<TRIPOS>BOND
     1    2    1 ar   
     2    3    1 ar   
     3    4    1 ar   
     4    8    1 1    
     5    6    5 ar   
     6    7    5 ar   
     7    8    5 1    
     8    9    5 1    
     9   10    9 1    
    10   11   10 1    
    11   28   10 1    
    12   29   10 1    
    13   12   11 1    
    14   13   11 1    
    15   30   11 1    
    16   17   12 1    
    17   14   13 1    
    18   15   13 1    
    19   31   13 1    
    20   38   14 1    
    21   16   15 1    
    22   17   15 1    
    23   32   15 1    
    24   39   16 1    
    25   18   17 1    
    26   33   17 1    
    27   19   18 1    
    28   27   18 1    
    29   20   19 2    
    30   34   19 1    
    31   21   20 1    
    32   22   21 ar   
    33   27   21 ar   
    34   23   22 1    
    35   24   22 ar   
    36   35   23 1    
    37   36   23 1    
    38   25   24 ar   
    39   26   25 ar   
    40   37   25 1    
    41   27   26 ar   
@<TRIPOS>SUBSTRUCTURE
     1 ADP1450     1 GROUP   
@<TRIPOS>SET

