#    Name: 1jom_FFO_1_INTS_M
#    Modification time : Tue Mar 25 09:13:45 2014

@<TRIPOS>MOLECULE
1jom_FFO_1_INTS_M
   53     0    12     0     0
SMALL
NO_CHARGES


@<TRIPOS>ATOM
      1 O           4.6420   33.0880   21.7425 O.2       1 ALC1        0.0000 
      2 O           5.1470   33.9490   20.7780 O.2       9 ALL1        0.0000 
      3 O           4.1370   32.2270   22.7070 O.2       5 ALP1        0.0000 
      4 O           5.2555   33.6465   22.4370 O.2       1 ALC1        0.0000 
      5 O           5.3640   33.3440   24.0960 O.2       5 ALP1        0.0000 
      6 O           4.0440   33.6790   19.7450 O.2       1 ALC1        0.0000 
      7 O           2.9410   33.4090   18.7120 O.2       5 ALP1        0.0000 
      8 N           5.7910   34.2230   23.2495 N.am      2 SEC2        0.0000 
      9 N           6.2180   35.1020   22.4030 N.am     10 SEL2        0.0000 
     10 N           5.3640   33.3440   24.0960 N.am      6 SEP2        0.0000 
     11 CA          5.2810   37.0250   22.6325 C.3       4 GLC5        0.0000 
     12 CA          7.2970   37.2340   21.8880 C.3      12 GLL5        0.0000 
     13 CA          3.2650   36.8160   23.3770 C.3       8 GLP5        0.0000 
     14 CA          5.2805   37.6235   19.6490 C.3       4 GLC5        0.0000 
     15 CA          6.8810   37.0970   20.6060 C.3      12 GLL5        0.0000 
     16 CA          3.6800   38.1500   18.6920 C.3       8 GLP5        0.0000 
     17 CA          9.6925   36.6740   19.6335 C.3       4 GLC5        0.0000 
     18 CA          9.8070   38.1350   20.8810 C.3      12 GLL5        0.0000 
     19 CA          9.5780   35.2130   18.3860 C.3       8 GLP5        0.0000 
     20 CA         13.0365   38.0965   21.5580 C.3       4 GLC5        0.0000 
     21 CA         11.4430   36.9710   22.3090 C.3      12 GLL5        0.0000 
     22 CA         14.6300   39.2220   20.8070 C.3       8 GLP5        0.0000 
     23 CA         15.3605   32.9875   21.2630 C.3       4 GLC5        0.0000 
     24 CA         14.6450   31.3250   22.5520 C.3      12 GLL5        0.0000 
     25 CA         16.0760   34.6500   19.9740 C.3       8 GLP5        0.0000 
     26 CA         11.9895   30.2570   24.0075 C.3       4 GLC5        0.0000 
     27 CA         14.0210   30.0410   23.1810 C.3      12 GLL5        0.0000 
     28 CA          9.9580   30.4730   24.8340 C.3       8 GLP5        0.0000 
     29 CA         14.1610   28.4705   21.6650 C.3       4 GLC5        0.0000 
     30 CA         14.3010   26.9000   20.1490 C.3       8 GLP5        0.0000 
     31 NZ         15.1835   30.8560   19.1105 N.4       3 LYC4        0.0000 
     32 NZ         13.8620   31.3580   20.3660 N.4      11 LYL4        0.0000 
     33 NZ         15.8600   31.1520   17.1530 N.4       7 LYP4        0.0000 
     34 N          14.2365   31.3520   18.9790 N.am      2 SEC2        0.0000 
     35 N          13.8620   31.3580   20.3660 N.am     10 SEL2        0.0000 
     36 N          14.6110   31.3460   17.5920 N.am      6 SEP2        0.0000 
     37 NZ         16.2910   30.5515   19.2985 N.4       3 LYC4        0.0000 
     38 NZ         15.7560   30.3660   20.6290 N.4      11 LYL4        0.0000 
     39 N          15.1835   30.8560   19.1105 N.am      2 SEC2        0.0000 
     40 N          15.7560   30.3660   20.6290 N.am     10 SEL2        0.0000 
     41 N          16.2910   30.5515   19.2985 N.am      2 SEC2        0.0000 
     42 N          16.8260   30.7370   17.9680 N.am      6 SEP2        0.0000 
     43 CA         11.1928   33.9057   23.6400 C.3       4 GLC5        0.0000 
     44 CA         12.2730   34.8180   21.9400 C.3      12 GLL5        0.0000 
     45 CA          9.7050   32.9890   24.7830 C.3       8 GLP5        0.0000 
     46 CA         14.3783   34.7362   21.2355 C.3       4 GLC5        0.0000 
     47 CA         13.0880   34.8270   23.0540 C.3      12 GLL5        0.0000 
     48 CA         13.8345   38.0120   22.9672 C.3       4 GLC5        0.0000 
     49 CA         12.2780   37.0230   23.4720 C.3      12 GLL5        0.0000 
     50 CA         14.9850   39.5270   22.2730 C.3       8 GLP5        0.0000 
     51 CA         10.9587   37.3655   24.4921 C.3       4 GLC5        0.0000 
     52 CA         13.0900   35.9710   23.8510 C.3      12 GLL5        0.0000 
     53 CA          9.8540   37.9970   25.9990 C.3       8 GLP5        0.0000 
@<TRIPOS>BOND
@<TRIPOS>SUBSTRUCTURE
     1 ALC1        1 GROUP        1 X    ALC  0     ROOT ALC X 1
     2 SEC2        8 GROUP        1 X    SEC  0     **** SEC X 2
     3 LYC4       31 GROUP        1 X    LYC  0     **** LYC X 4
     4 GLC5       11 GROUP        1 X    GLC  0     **** GLC X 6
     5 ALP1        3 GROUP        1 Y    ALP  0     ROOT ALP Y 8
     6 SEP2       10 GROUP        1 Y    SEP  0     **** SEP Y 9
     7 LYP4       33 GROUP        1 Y    LYP  0     **** LYP Y 11
     8 GLP5       13 GROUP        1 Y    GLP  0     **** GLP Y 13
     9 ALL1        2 GROUP        1 Z    ALL  0     ROOT ALL Z 15
    10 SEL2        9 GROUP        1 Z    SEL  0     **** SEL Z 16
    11 LYL4       32 GROUP        1 Z    LYL  0     **** LYL Z 18
    12 GLL5       12 GROUP        1 Z    GLL  0     **** GLL Z 20
@<TRIPOS>SET

