#    Name: 1jom_FFO_1_ligand
#    Modification time : Tue Mar 25 09:13:45 2014

@<TRIPOS>MOLECULE
1jom_FFO_1_ligand
   53    55     1     0     0
SMALL
NO_CHARGES


@<TRIPOS>ATOM
      1 N1          6.1200   35.9790   20.2000 N.pl3     1 FFO161      0.0000 
      2 C2          5.8050   34.9980   21.0580 C.2       1 FFO161      0.0000 
      3 NA2         5.1470   33.9490   20.7780 N.pl3     1 FFO161      0.0000 
      4 N3          6.2180   35.1020   22.4030 N.2       1 FFO161      0.0000 
      5 C4          6.9360   36.1760   22.8710 C.2       1 FFO161      0.0000 
      6 O4          7.2830   36.2550   24.0660 O.2       1 FFO161      0.0000 
      7 C4A         7.2970   37.2340   21.8880 C.2       1 FFO161      0.0000 
      8 N5          7.9580   38.3790   22.2930 N.am      1 FFO161      0.0000 
      9 C6          8.6200   38.9640   21.2570 C.3       1 FFO161      0.0000 
     10 C7          7.7990   39.0660   20.1010 C.2       1 FFO161      0.0000 
     11 N8          7.2020   37.9890   19.6290 N.2       1 FFO161      0.0000 
     12 C8A         6.8810   37.0970   20.6060 C.2       1 FFO161      0.0000 
     13 C9          9.8070   38.1350   20.8810 C.3       1 FFO161      0.0000 
     14 N10        10.6740   38.1110   22.0900 N.pl3     1 FFO161      0.0000 
     15 C11        13.0880   34.8270   23.0540 C.ar      1 FFO161      0.0000 
     16 C12        13.0900   35.9710   23.8510 C.ar      1 FFO161      0.0000 
     17 C13        12.2780   37.0230   23.4720 C.ar      1 FFO161      0.0000 
     18 C14        11.4430   36.9710   22.3090 C.ar      1 FFO161      0.0000 
     19 C15        11.4250   35.8770   21.5510 C.ar      1 FFO161      0.0000 
     20 C16        12.2730   34.8180   21.9400 C.ar      1 FFO161      0.0000 
     21 C          13.8960   33.6200   23.2820 C.2       1 FFO161      0.0000 
     22 O          14.7830   33.5750   24.1310 O.2       1 FFO161      0.0000 
     23 N          13.6870   32.5130   22.5860 N.am      1 FFO161      0.0000 
     24 CA         14.6450   31.3250   22.5520 C.3       1 FFO161      0.0000 
     25 CB         14.0210   30.0410   23.1810 C.3       1 FFO161      0.0000 
     26 CG         15.0410   29.2310   24.1300 C.3       1 FFO161      0.0000 
     27 CD         14.5050   29.5100   25.5460 C.2       1 FFO161      0.0000 
     28 OE1        13.3730   28.9680   25.6640 O.co2     1 FFO161      0.0000 
     29 OE2        15.0950   30.2320   26.3810 O.co2     1 FFO161      0.0000 
     30 CT         14.7680   30.9650   21.0980 C.2       1 FFO161      0.0000 
     31 O1         13.8620   31.3580   20.3660 O.co2     1 FFO161      0.0000 
     32 O2         15.7560   30.3660   20.6290 O.co2     1 FFO161      0.0000 
     33 C5A         7.6080   39.2740   23.1990 C.2       1 FFO161      0.0000 
     34 O5B         6.6850   38.9810   23.9790 O.2       1 FFO161      0.0000 
     35 H           5.8106   35.9442   19.2039 H         1 FFO161      0.0000 
     36 H           4.8106   33.8781   19.8390 H         1 FFO161      0.0000 
     37 H           5.0274   33.2928   21.5229 H         1 FFO161      0.0000 
     38 H           9.0008   39.9537   21.5188 H         1 FFO161      0.0000 
     39 H           7.7002   39.9987   19.6672 H         1 FFO161      0.0000 
     40 H          10.3277   38.5932   20.0596 H         1 FFO161      0.0000 
     41 H           9.4922   37.1382   20.6299 H         1 FFO161      0.0000 
     42 H          10.6730   38.9029   22.6926 H         1 FFO161      0.0000 
     43 H          13.6706   36.0237   24.6808 H         1 FFO161      0.0000 
     44 H          12.2572   37.8956   24.0390 H         1 FFO161      0.0000 
     45 H          10.8443   35.7715   20.7267 H         1 FFO161      0.0000 
     46 H          12.2754   33.9553   21.3214 H         1 FFO161      0.0000 
     47 H          12.8313   32.3644   21.9935 H         1 FFO161      0.0000 
     48 H          15.5552   31.5318   22.9574 H         1 FFO161      0.0000 
     49 H          13.7026   29.3655   22.3899 H         1 FFO161      0.0000 
     50 H          13.1578   30.3134   23.7845 H         1 FFO161      0.0000 
     51 H          15.9953   29.6461   24.0048 H         1 FFO161      0.0000 
     52 H          14.9592   28.2128   23.8950 H         1 FFO161      0.0000 
     53 H           8.1165   40.1937   23.2292 H         1 FFO161      0.0000 
@<TRIPOS>BOND
     1    2    1 1    
     2   12    1 1    
     3   35    1 1    
     4    3    2 1    
     5    4    2 2    
     6   36    3 1    
     7   37    3 1    
     8    5    4 1    
     9    6    5 2    
    10    7    5 1    
    11    8    7 1    
    12   12    7 2    
    13    9    8 1    
    14   33    8 am   
    15   10    9 1    
    16   13    9 1    
    17   38    9 1    
    18   11   10 2    
    19   39   10 1    
    20   12   11 1    
    21   14   13 1    
    22   40   13 1    
    23   41   13 1    
    24   18   14 1    
    25   42   14 1    
    26   16   15 ar   
    27   20   15 ar   
    28   21   15 1    
    29   17   16 ar   
    30   43   16 1    
    31   18   17 ar   
    32   44   17 1    
    33   19   18 ar   
    34   20   19 ar   
    35   45   19 1    
    36   46   20 1    
    37   22   21 2    
    38   23   21 am   
    39   24   23 1    
    40   47   23 1    
    41   25   24 1    
    42   30   24 1    
    43   48   24 1    
    44   26   25 1    
    45   49   25 1    
    46   50   25 1    
    47   27   26 1    
    48   51   26 1    
    49   52   26 1    
    50   28   27 ar   
    51   29   27 ar   
    52   31   30 ar   
    53   32   30 ar   
    54   34   33 2    
    55   53   33 1    
@<TRIPOS>SUBSTRUCTURE
     1 FFO161      1 GROUP   
@<TRIPOS>SET

