#    Name: 3nrm_NRM_1_INTS_M
#    Modification time : Tue Mar 25 01:59:04 2014

@<TRIPOS>MOLECULE
3nrm_NRM_1_INTS_M
   50     0     9     0     0
SMALL
NO_CHARGES


@<TRIPOS>ATOM
      1 O           2.4755   34.5790    7.3000 O.2       1 ALC1        0.0000 
      2 O           2.4980   33.5140    6.4530 O.2       7 ALL1        0.0000 
      3 O           2.4530   35.6440    8.1470 O.2       4 ALP1        0.0000 
      4 CA          1.7300   31.7600    4.2905 C.3       3 GLC5        0.0000 
      5 CA          2.2010   33.7390    3.6730 C.3       9 GLL5        0.0000 
      6 CA          1.2590   29.7810    4.9080 C.3       6 GLP5        0.0000 
      7 CA          4.4105   28.8190    6.7920 C.3       3 GLC5        0.0000 
      8 CA          5.3720   30.5230    6.1490 C.3       9 GLL5        0.0000 
      9 CA          3.4490   27.1150    7.4350 C.3       6 GLP5        0.0000 
     10 CA          6.2610   32.2580    4.0880 C.3       3 GLC5        0.0000 
     11 CA          4.8580   31.1130    4.9800 C.3       9 GLL5        0.0000 
     12 CA          7.6640   33.4030    3.1960 C.3       6 GLP5        0.0000 
     13 CA          2.2965   30.8825    7.4305 C.3       3 GLC5        0.0000 
     14 CA          3.9900   31.8990    7.5240 C.3       9 GLL5        0.0000 
     15 CA          0.6030   29.8660    7.3370 C.3       6 GLP5        0.0000 
     16 CA          4.4670   33.6340    8.5535 C.3       3 GLC5        0.0000 
     17 CA          4.9440   35.3690    9.5830 C.3       6 GLP5        0.0000 
     18 CA          5.4580   32.8340    7.1485 C.3       3 GLC5        0.0000 
     19 CA          6.9260   33.7690    6.7730 C.3       6 GLP5        0.0000 
     20 N          -0.0260   34.1080    3.1640 N.am      2 SEC2        0.0000 
     21 N           1.3140   34.8800    3.0740 N.am      8 SEL2        0.0000 
     22 N          -1.3660   33.3360    3.2540 N.am      5 SEP2        0.0000 
     23 CA          3.1805   31.9845   10.7480 C.3       3 GLC5        0.0000 
     24 CA          4.5770   31.2260    9.4880 C.3       9 GLL5        0.0000 
     25 CA          1.7840   32.7430   12.0080 C.3       6 GLP5        0.0000 
     26 CA          4.7605   33.2975    9.5355 C.3       3 GLC5        0.0000 
     27 CA          4.2665   28.5580   10.3215 C.3       3 GLC5        0.0000 
     28 CA          6.3780   28.3720    9.8550 C.3       9 GLL5        0.0000 
     29 CA          2.1550   28.7440   10.7880 C.3       6 GLP5        0.0000 
     30 CA          6.8810   29.5755   10.9590 C.3       3 GLC5        0.0000 
     31 CA          7.3840   30.7790   12.0630 C.3       6 GLP5        0.0000 
     32 CA          6.4665   27.0145   11.1090 C.3       3 GLC5        0.0000 
     33 CA          6.5550   25.6570   12.3630 C.3       6 GLP5        0.0000 
     34 CA          0.5940   32.5880    5.4930 C.3       3 GLC5        0.0000 
     35 CA          1.9870   34.1420    5.3480 C.3       9 GLL5        0.0000 
     36 CA         -0.7990   31.0340    5.6380 C.3       6 GLP5        0.0000 
     37 CA          0.9470   36.5160    7.1195 C.3       3 GLC5        0.0000 
     38 CA          1.1470   35.2420    5.3560 C.3       9 GLL5        0.0000 
     39 CA          0.7470   37.7900    8.8830 C.3       6 GLP5        0.0000 
     40 CA          3.1870   30.2995    5.2363 C.3       3 GLC5        0.0000 
     41 CA          6.0205   32.2935    6.1688 C.3       3 GLC5        0.0000 
     42 CA          3.5585   29.7892    9.9172 C.3       3 GLC5        0.0000 
     43 CA          5.3470   30.4430    8.6050 C.3       9 GLL5        0.0000 
     44 CA          6.3049   30.6758   10.5938 C.3       3 GLC5        0.0000 
     45 CA          6.6714   31.5912    8.8503 C.3       3 GLC5        0.0000 
     46 CA          6.4020   29.3950    8.9170 C.3       9 GLL5        0.0000 
     47 CA          8.1170   32.6100    8.5760 C.3       6 GLP5        0.0000 
     48 CA          4.7876   28.1302    8.3715 C.3       3 GLC5        0.0000 
     49 CA          3.0018   35.6011    4.8266 C.3       3 GLC5        0.0000 
     50 CA          4.3830   36.6110    4.7200 C.3       6 GLP5        0.0000 
@<TRIPOS>BOND
@<TRIPOS>SUBSTRUCTURE
     1 ALC1        1 GROUP        1 X    ALC  0     ROOT ALC X 1
     2 SEC2       20 GROUP        1 X    SEC  0     **** SEC X 2
     3 GLC5        4 GROUP        1 X    GLC  0     **** GLC X 6
     4 ALP1        3 GROUP        1 Y    ALP  0     ROOT ALP Y 8
     5 SEP2       22 GROUP        1 Y    SEP  0     **** SEP Y 9
     6 GLP5        6 GROUP        1 Y    GLP  0     **** GLP Y 13
     7 ALL1        2 GROUP        1 Z    ALL  0     ROOT ALL Z 15
     8 SEL2       21 GROUP        1 Z    SEL  0     **** SEL Z 16
     9 GLL5        5 GROUP        1 Z    GLL  0     **** GLL Z 20
@<TRIPOS>SET

