#    Name: 3nrm_NRM_1_ligand
#    Modification time : Tue Mar 25 01:59:04 2014

@<TRIPOS>MOLECULE
3nrm_NRM_1_ligand
   33    36     1     0     0
SMALL
NO_CHARGES


@<TRIPOS>ATOM
      1 C1          6.4020   29.3950    8.9170 C.2       1 NRM1        0.0000 
      2 N1          2.4980   33.5140    6.4530 N.pl3     1 NRM1        0.0000 
      3 S1          2.2010   33.7390    3.6730 S.3       1 NRM1        0.0000 
      4 C2          5.3720   30.5230    6.1490 C.2       1 NRM1        0.0000 
      5 N2          3.7520   32.1270    8.8740 N.pl3     1 NRM1        0.0000 
      6 C3          4.8580   31.1130    4.9800 C.2       1 NRM1        0.0000 
      7 N3          4.9360   30.9400    7.3780 N.pl3     1 NRM1        0.0000 
      8 N4          7.5540   27.7000    9.7990 N.pl3     1 NRM1        0.0000 
      9 C5          3.4410   32.5050    6.3770 C.2       1 NRM1        0.0000 
     10 N5          8.3230   28.2510    8.8450 N.2       1 NRM1        0.0000 
     11 C6          3.9900   31.8990    7.5240 C.2       1 NRM1        0.0000 
     12 N6          1.3140   34.8800    3.0740 N.2       1 NRM1        0.0000 
     13 C7          5.3470   30.4430    8.6050 C.2       1 NRM1        0.0000 
     14 N7          3.9160   32.0750    5.1300 N.2       1 NRM1        0.0000 
     15 C8          7.6390   29.2720    8.2950 C.2       1 NRM1        0.0000 
     16 C9          4.5770   31.2260    9.4880 C.2       1 NRM1        0.0000 
     17 C10         6.3780   28.3720    9.8550 C.2       1 NRM1        0.0000 
     18 C11         1.9870   34.1420    5.3480 C.2       1 NRM1        0.0000 
     19 C12         1.1470   35.2420    5.3560 C.2       1 NRM1        0.0000 
     20 C13        -0.1190   36.8070    3.7680 C.3       1 NRM1        0.0000 
     21 C14         0.7800   35.6500    4.0720 C.2       1 NRM1        0.0000 
     22 H           2.1608   33.8091    7.4068 H         1 NRM1        0.0000 
     23 H           6.0772   29.7771    6.0624 H         1 NRM1        0.0000 
     24 H           3.1765   32.7387    9.2488 H         1 NRM1        0.0000 
     25 H           5.1954   30.8129    4.0724 H         1 NRM1        0.0000 
     26 H           7.7938   26.9469   10.3582 H         1 NRM1        0.0000 
     27 H           7.9400   29.8456    7.5775 H         1 NRM1        0.0000 
     28 H           4.6434   31.1164   10.4709 H         1 NRM1        0.0000 
     29 H           5.6399   28.1860   10.4393 H         1 NRM1        0.0000 
     30 H           0.8399   35.6899    6.1699 H         1 NRM1        0.0000 
     31 H           0.3388   37.4952    3.2052 H         1 NRM1        0.0000 
     32 H          -0.9384   36.5203    3.2716 H         1 NRM1        0.0000 
     33 H          -0.4268   37.2670    4.6009 H         1 NRM1        0.0000 
@<TRIPOS>BOND
     1   13    1 1    
     2   15    1 1    
     3   17    1 2    
     4    9    2 1    
     5   18    2 1    
     6   22    2 1    
     7   12    3 1    
     8   18    3 1    
     9    6    4 2    
    10    7    4 1    
    11   23    4 1    
    12   11    5 2    
    13   16    5 1    
    14   24    5 1    
    15   14    6 1    
    16   25    6 1    
    17   11    7 1    
    18   13    7 1    
    19   10    8 1    
    20   17    8 1    
    21   26    8 1    
    22   11    9 1    
    23   14    9 2    
    24   15   10 2    
    25   21   12 2    
    26   16   13 2    
    27   27   15 1    
    28   28   16 1    
    29   29   17 1    
    30   19   18 2    
    31   21   19 1    
    32   30   19 1    
    33   21   20 1    
    34   31   20 1    
    35   32   20 1    
    36   33   20 1    
@<TRIPOS>SUBSTRUCTURE
     1 NRM1        1 GROUP   
@<TRIPOS>SET

