#    Name: 4ft9_H4K_1_INTS_M
#    Modification time : Mon Mar 24 20:44:11 2014

@<TRIPOS>MOLECULE
4ft9_H4K_1_INTS_M
   57     0     9     0     0
SMALL
NO_CHARGES


@<TRIPOS>ATOM
      1 N           9.9040   -6.8910   13.9445 N.am      2 SEC2        0.0000 
      2 N          10.9670   -5.6980   13.6890 N.am      8 SEL2        0.0000 
      3 N           8.8410   -8.0840   14.2000 N.am      5 SEP2        0.0000 
      4 CA         10.2970   -6.4985   12.3710 C.3       3 GLC5        0.0000 
      5 CA         11.6830   -5.1220   13.0150 C.3       9 GLL5        0.0000 
      6 CA          8.9110   -7.8750   11.7270 C.3       6 GLP5        0.0000 
      7 CA         11.0940   -4.7760   14.8705 C.3       3 GLC5        0.0000 
      8 CA         10.5050   -4.4300   16.7260 C.3       6 GLP5        0.0000 
      9 CA         13.1455   -3.1105   13.7315 C.3       3 GLC5        0.0000 
     10 CA         12.5490   -4.3970   12.1450 C.3       9 GLL5        0.0000 
     11 CA         13.7420   -1.8240   15.3180 C.3       6 GLP5        0.0000 
     12 CA         12.0930   -1.0495   11.2795 C.3       3 GLC5        0.0000 
     13 CA         12.9080   -2.5930   10.7760 C.3       9 GLL5        0.0000 
     14 CA         11.2780    0.4940   11.7830 C.3       6 GLP5        0.0000 
     15 CA         11.3105   -2.2745    9.8390 C.3       3 GLC5        0.0000 
     16 CA          9.7130   -1.9560    8.9020 C.3       6 GLP5        0.0000 
     17 CA         13.4835   -6.7120   10.8620 C.3       3 GLC5        0.0000 
     18 CA         13.8060   -4.9420   11.7620 C.3       9 GLL5        0.0000 
     19 CA         13.1610   -8.4820    9.9620 C.3       6 GLP5        0.0000 
     20 CA         15.0775   -3.3560   12.1670 C.3       3 GLC5        0.0000 
     21 CA         16.3490   -1.7700   12.5720 C.3       6 GLP5        0.0000 
     22 CA         14.1785   -5.0580    9.3155 C.3       3 GLC5        0.0000 
     23 CA         14.1650   -3.1120   10.4190 C.3       9 GLL5        0.0000 
     24 CA         14.1920   -7.0040    8.2120 C.3       6 GLP5        0.0000 
     25 O          14.3235   -1.2345    8.9635 O.2       1 ALC1        0.0000 
     26 O          14.9990   -2.4150    9.5300 O.2       7 ALL1        0.0000 
     27 O          13.6480   -0.0540    8.3970 O.2       4 ALP1        0.0000 
     28 N          17.0510   -0.5675    8.0645 N.am      2 SEC2        0.0000 
     29 N          16.8090   -1.8860    8.2690 N.am      8 SEL2        0.0000 
     30 N          17.2930    0.7510    7.8600 N.am      5 SEP2        0.0000 
     31 CA         17.3150   -2.9075   11.0805 C.3       3 GLC5        0.0000 
     32 CA         18.2810   -4.0450    9.5890 C.3       9 GLL5        0.0000 
     33 CA         20.4770   -5.2645   12.4805 C.3       3 GLC5        0.0000 
     34 CA         19.8540   -5.5450   10.4070 C.3       9 GLL5        0.0000 
     35 CA         21.1000   -4.9840   14.5540 C.3       6 GLP5        0.0000 
     36 CA         21.6085   -1.2170    7.3040 C.3       3 GLC5        0.0000 
     37 CA         21.6090   -3.3200    7.9880 C.3       9 GLL5        0.0000 
     38 CA         21.6080    0.8860    6.6200 C.3       6 GLP5        0.0000 
     39 CA         10.5700   -4.4017   11.3815 C.3       3 GLC5        0.0000 
     40 CA          9.0240   -4.0440   10.1830 C.3       6 GLP5        0.0000 
     41 CA         13.4488   -3.0703    8.6803 C.3       3 GLC5        0.0000 
     42 CA         13.3610   -3.2880    6.7630 C.3       6 GLP5        0.0000 
     43 CA         14.9428   -2.3112   11.5847 C.3       3 GLC5        0.0000 
     44 CA         17.8970   -4.4690    7.6095 C.3       3 GLC5        0.0000 
     45 CA         17.0320   -5.2150    6.0520 C.3       6 GLP5        0.0000 
     46 CA         19.1842   -6.2330    8.6113 C.3       3 GLC5        0.0000 
     47 CA         17.9990   -7.1940    7.2190 C.3       6 GLP5        0.0000 
     48 CA         20.2398   -4.7400    6.9630 C.3       3 GLC5        0.0000 
     49 CA         20.5740   -3.8940    8.7660 C.3       9 GLL5        0.0000 
     50 CA         19.3880   -5.8730    5.5490 C.3       6 GLP5        0.0000 
     51 CA         21.2711   -2.9184   10.0805 C.3       3 GLC5        0.0000 
     52 CA         19.2430   -3.4010    8.7450 C.3       9 GLL5        0.0000 
     53 CA         22.5560   -1.9130   11.1970 C.3       6 GLP5        0.0000 
     54 CA         22.6275   -3.5565   10.2075 C.3       3 GLC5        0.0000 
     55 CA         22.2150   -5.4930    9.6020 C.3       9 GLL5        0.0000 
     56 CA         22.4008   -2.7422    9.6035 C.3       3 GLC5        0.0000 
     57 CA         22.8820   -3.8230    8.0320 C.3       9 GLL5        0.0000 
@<TRIPOS>BOND
@<TRIPOS>SUBSTRUCTURE
     1 ALC1       25 GROUP        1 X    ALC  0     ROOT ALC X 1
     2 SEC2        1 GROUP        1 X    SEC  0     **** SEC X 2
     3 GLC5        4 GROUP        1 X    GLC  0     **** GLC X 6
     4 ALP1       27 GROUP        1 Y    ALP  0     ROOT ALP Y 8
     5 SEP2        3 GROUP        1 Y    SEP  0     **** SEP Y 9
     6 GLP5        6 GROUP        1 Y    GLP  0     **** GLP Y 13
     7 ALL1       26 GROUP        1 Z    ALL  0     ROOT ALL Z 15
     8 SEL2        2 GROUP        1 Z    SEL  0     **** SEL Z 16
     9 GLL5        5 GROUP        1 Z    GLL  0     **** GLL Z 20
@<TRIPOS>SET

