#    Name: 4ft9_H4K_1_ligand
#    Modification time : Mon Mar 24 20:44:11 2014

@<TRIPOS>MOLECULE
4ft9_H4K_1_ligand
   32    34     1     0     0
SMALL
NO_CHARGES


@<TRIPOS>ATOM
      1 N4         10.9670   -5.6980   13.6890 N.1       1 H4K300      0.0000 
      2 C6         11.6830   -5.1220   13.0150 C.1       1 H4K300      0.0000 
      3 C4         12.5490   -4.3970   12.1450 C.ar      1 H4K300      0.0000 
      4 N2         12.1210   -3.2160   11.6600 N.ar      1 H4K300      0.0000 
      5 C3         12.9080   -2.5930   10.7760 C.ar      1 H4K300      0.0000 
      6 C5         13.8060   -4.9420   11.7620 C.ar      1 H4K300      0.0000 
      7 N3         14.6040   -4.2860   10.9090 N.ar      1 H4K300      0.0000 
      8 C2         14.1650   -3.1120   10.4190 C.ar      1 H4K300      0.0000 
      9 N1         14.9990   -2.4150    9.5300 N.am      1 H4K300      0.0000 
     10 C1         16.2870   -2.6080    9.1080 C.2       1 H4K300      0.0000 
     11 O          16.8090   -1.8860    8.2690 O.2       1 H4K300      0.0000 
     12 N5         16.9400   -3.6490    9.7310 N.am      1 H4K300      0.0000 
     13 C7         18.2810   -4.0450    9.5890 C.ar      1 H4K300      0.0000 
     14 N6         18.6270   -5.0720   10.3790 N.ar      1 H4K300      0.0000 
     15 C15        19.8540   -5.5450   10.4070 C.ar      1 H4K300      0.0000 
     16 C14        20.8850   -4.9990    9.6000 C.ar      1 H4K300      0.0000 
     17 C9         20.5740   -3.8940    8.7660 C.ar      1 H4K300      0.0000 
     18 C8         19.2430   -3.4010    8.7450 C.ar      1 H4K300      0.0000 
     19 C13        22.2150   -5.4930    9.6020 C.ar      1 H4K300      0.0000 
     20 C12        23.1830   -4.9070    8.8340 C.ar      1 H4K300      0.0000 
     21 C11        22.8820   -3.8230    8.0320 C.ar      1 H4K300      0.0000 
     22 C10        21.6090   -3.3200    7.9880 C.ar      1 H4K300      0.0000 
     23 H          12.6090   -1.6993   10.3242 H         1 H4K300      0.0000 
     24 H          14.0740   -5.8580   12.1671 H         1 H4K300      0.0000 
     25 H          14.4960   -1.5165    9.0782 H         1 H4K300      0.0000 
     26 H          16.3514   -4.2465   10.4227 H         1 H4K300      0.0000 
     27 H          20.1225   -6.3475   11.0284 H         1 H4K300      0.0000 
     28 H          18.9799   -2.6313    8.1634 H         1 H4K300      0.0000 
     29 H          22.4328   -6.3081   10.1998 H         1 H4K300      0.0000 
     30 H          24.1528   -5.2747    8.8494 H         1 H4K300      0.0000 
     31 H          23.6312   -3.3897    7.4597 H         1 H4K300      0.0000 
     32 H          21.3798   -2.5117    7.3858 H         1 H4K300      0.0000 
@<TRIPOS>BOND
     1    2    1 3    
     2    3    2 1    
     3    4    3 ar   
     4    6    3 ar   
     5    5    4 ar   
     6    8    5 ar   
     7   23    5 1    
     8    7    6 ar   
     9   24    6 1    
    10    8    7 ar   
    11    9    8 1    
    12   10    9 am   
    13   25    9 1    
    14   11   10 2    
    15   12   10 am   
    16   13   12 1    
    17   26   12 1    
    18   14   13 ar   
    19   18   13 ar   
    20   15   14 ar   
    21   16   15 ar   
    22   27   15 1    
    23   17   16 ar   
    24   19   16 ar   
    25   18   17 ar   
    26   22   17 ar   
    27   28   18 1    
    28   20   19 ar   
    29   29   19 1    
    30   21   20 ar   
    31   30   20 1    
    32   22   21 ar   
    33   31   21 1    
    34   32   22 1    
@<TRIPOS>SUBSTRUCTURE
     1 H4K300      1 GROUP   
@<TRIPOS>SET

