#    Name: 4fyh_TR5_3_INTS_M
#    Modification time : Mon Mar 24 21:03:16 2014

@<TRIPOS>MOLECULE
4fyh_TR5_3_INTS_M
   65     0     9     0     0
SMALL
NO_CHARGES


@<TRIPOS>ATOM
      1 N           9.4240   17.6515   40.7745 N.am      2 SEC2        0.0000 
      2 N          10.5850   18.4190   41.1070 N.am      8 SEL2        0.0000 
      3 N           8.2630   16.8840   40.4420 N.am      5 SEP2        0.0000 
      4 N          11.2165   17.3395   40.5920 N.am      2 SEC2        0.0000 
      5 N          11.8480   16.2600   40.0770 N.am      5 SEP2        0.0000 
      6 N          12.6205   20.1710   43.1625 N.am      2 SEC2        0.0000 
      7 N          12.3490   18.7970   42.8690 N.am      8 SEL2        0.0000 
      8 N          12.8920   21.5450   43.4560 N.am      5 SEP2        0.0000 
      9 N          10.3670   20.6015   44.2260 N.am      2 SEC2        0.0000 
     10 N          10.0870   19.9620   43.0000 N.am      8 SEL2        0.0000 
     11 N          10.6470   21.2410   45.4520 N.am      5 SEP2        0.0000 
     12 N          10.5920   21.3915   42.4425 N.am      2 SEC2        0.0000 
     13 N          11.0970   22.8210   41.8850 N.am      5 SEP2        0.0000 
     14 N           8.8430   19.7145   42.7585 N.am      2 SEC2        0.0000 
     15 N           7.5990   19.4670   42.5170 N.am      5 SEP2        0.0000 
     16 CA          9.0590   19.4205   45.2400 C.3       3 GLC5        0.0000 
     17 CA          9.8730   17.5010   44.7070 C.3       9 GLL5        0.0000 
     18 CA          8.2450   21.3400   45.7730 C.3       6 GLP5        0.0000 
     19 CA         11.0600   18.5255   46.0405 C.3       3 GLC5        0.0000 
     20 CA         12.2470   19.5500   47.3740 C.3       6 GLP5        0.0000 
     21 N           7.4675   16.9010   48.0570 N.am      2 SEC2        0.0000 
     22 N           8.3800   15.9870   47.4190 N.am      8 SEL2        0.0000 
     23 N           6.5550   17.8150   48.6950 N.am      5 SEP2        0.0000 
     24 O           8.5425   14.3245   46.9380 O.2       1 ALC1        0.0000 
     25 O           8.3800   15.9870   47.4190 O.2       7 ALL1        0.0000 
     26 O           8.7050   12.6620   46.4570 O.2       4 ALP1        0.0000 
     27 O           7.7005   14.9905   46.7450 O.2       1 ALC1        0.0000 
     28 O           7.0210   13.9940   46.0710 O.2       4 ALP1        0.0000 
     29 O           9.4080   13.3375   47.1630 O.2       1 ALC1        0.0000 
     30 O          10.1110   14.0130   47.8690 O.2       7 ALL1        0.0000 
     31 CA         11.3100   13.7205   44.2325 C.3       3 GLC5        0.0000 
     32 CA         11.3150   14.5990   45.8300 C.3       9 GLL5        0.0000 
     33 CA         11.3050   12.8420   42.6350 C.3       6 GLP5        0.0000 
     34 CA         12.1910   14.4085   43.6455 C.3       3 GLC5        0.0000 
     35 CA         13.0770   15.9750   44.6560 C.3       9 GLL5        0.0000 
     36 N          13.3115   12.5485   46.9000 N.am      2 SEC2        0.0000 
     37 N          13.9920   14.0220   47.4200 N.am      8 SEL2        0.0000 
     38 N          12.6310   11.0750   46.3800 N.am      5 SEP2        0.0000 
     39 CA         15.5475   12.7910   46.4680 C.3       3 GLC5        0.0000 
     40 CA         15.3460   13.8920   48.0360 C.3       9 GLL5        0.0000 
     41 CA         15.7490   11.6900   44.9000 C.3       6 GLP5        0.0000 
     42 CA         18.6405   14.5285   45.4780 C.3       3 GLC5        0.0000 
     43 CA         18.3980   16.2930   46.0260 C.3       9 GLL5        0.0000 
     44 CA         18.8830   12.7640   44.9300 C.3       6 GLP5        0.0000 
     45 CA         14.8105   18.7615   45.2480 C.3       3 GLC5        0.0000 
     46 CA         15.2860   16.9700   44.1340 C.3       9 GLL5        0.0000 
     47 CA         14.3350   20.5530   46.3620 C.3       6 GLP5        0.0000 
     48 CA         15.3155   18.7660   42.8975 C.3       3 GLC5        0.0000 
     49 CA         15.3450   20.5620   41.6610 C.3       6 GLP5        0.0000 
     50 CA         15.8270   15.7190   43.0205 C.3       3 GLC5        0.0000 
     51 CA         16.3680   14.4680   41.9070 C.3       6 GLP5        0.0000 
     52 CA          9.0972   16.2920   43.1785 C.3       3 GLC5        0.0000 
     53 CA          8.4870   15.7780   41.3710 C.3       6 GLP5        0.0000 
     54 CA          7.7428   17.5460   45.0145 C.3       3 GLC5        0.0000 
     55 CA          5.7780   18.2860   45.0430 C.3       6 GLP5        0.0000 
     56 CA         11.8154   16.6584   47.0572 C.3       3 GLC5        0.0000 
     57 CA          9.6900   16.1770   46.7850 C.3       9 GLL5        0.0000 
     58 CA         12.8690   18.1990   47.7140 C.3       6 GLP5        0.0000 
     59 CA         13.2997   17.1472   46.2168 C.3       3 GLC5        0.0000 
     60 CA         14.0195   16.7611   46.9451 C.3       3 GLC5        0.0000 
     61 CA         14.7910   15.5010   45.8260 C.3       9 GLL5        0.0000 
     62 CA         15.4595   13.5066   45.5381 C.3       3 GLC5        0.0000 
     63 CA         13.7830   14.8160   46.3510 C.3       9 GLL5        0.0000 
     64 CA         15.8441   15.0706   43.8456 C.3       3 GLC5        0.0000 
     65 CA         16.0530   15.4880   46.2640 C.3       9 GLL5        0.0000 
@<TRIPOS>BOND
@<TRIPOS>SUBSTRUCTURE
     1 ALC1       24 GROUP        1 X    ALC  0     ROOT ALC X 1
     2 SEC2        1 GROUP        1 X    SEC  0     **** SEC X 2
     3 GLC5       16 GROUP        1 X    GLC  0     **** GLC X 6
     4 ALP1       26 GROUP        1 Y    ALP  0     ROOT ALP Y 8
     5 SEP2        3 GROUP        1 Y    SEP  0     **** SEP Y 9
     6 GLP5       18 GROUP        1 Y    GLP  0     **** GLP Y 13
     7 ALL1       25 GROUP        1 Z    ALL  0     ROOT ALL Z 15
     8 SEL2        2 GROUP        1 Z    SEL  0     **** SEL Z 16
     9 GLL5       17 GROUP        1 Z    GLL  0     **** GLL Z 20
@<TRIPOS>SET

