#    Name: 4fyh_TR5_3_ligand
#    Modification time : Mon Mar 24 21:03:16 2014

@<TRIPOS>MOLECULE
4fyh_TR5_3_ligand
   43    46     1     0     0
SMALL
NO_CHARGES


@<TRIPOS>ATOM
      1 O2         10.5850   18.4190   41.1070 O.co2     1 TR5201      0.0000 
      2 PB         10.8950   18.7720   42.6180 P.3       1 TR5201      0.0000 
      3 O3         12.3490   18.7970   42.8690 O.co2     1 TR5201      0.0000 
      4 O1         10.0870   19.9620   43.0000 O.co2     1 TR5201      0.0000 
      5 O5'        10.2880   17.4410   43.3390 O.3       1 TR5201      0.0000 
      6 C5'         9.8730   17.5010   44.7070 C.3       1 TR5201      0.0000 
      7 C4'         9.5420   16.1110   45.2650 C.3       1 TR5201      0.0000 
      8 O4'        10.4560   15.0960   44.7800 O.3       1 TR5201      0.0000 
      9 C3'         9.6900   16.1770   46.7850 C.3       1 TR5201      0.0000 
     10 O3'         8.3800   15.9870   47.4190 O.3       1 TR5201      0.0000 
     11 C2'        10.7270   15.0960   47.1570 C.3       1 TR5201      0.0000 
     12 O2'        10.1110   14.0130   47.8690 O.3       1 TR5201      0.0000 
     13 C1'        11.3150   14.5990   45.8300 C.3       1 TR5201      0.0000 
     14 N9         12.7040   15.1130   45.6180 N.pl3     1 TR5201      0.0000 
     15 C8         13.0770   15.9750   44.6560 C.2       1 TR5201      0.0000 
     16 C7         14.3840   16.2160   44.7830 C.2       1 TR5201      0.0000 
     17 C5         14.7910   15.5010   45.8260 C.ar      1 TR5201      0.0000 
     18 C4         13.7830   14.8160   46.3510 C.ar      1 TR5201      0.0000 
     19 N3         13.9920   14.0220   47.4200 N.ar      1 TR5201      0.0000 
     20 C2         15.3460   13.8920   48.0360 C.ar      1 TR5201      0.0000 
     21 N1         16.3690   14.7270   47.3310 N.ar      1 TR5201      0.0000 
     22 C6         16.0530   15.4880   46.2640 C.ar      1 TR5201      0.0000 
     23 N61        16.9660   16.2500   45.6040 N.pl3     1 TR5201      0.0000 
     24 C62        18.3980   16.2930   46.0260 C.3       1 TR5201      0.0000 
     25 N71        16.5740   16.9920   44.5350 N.pl3     1 TR5201      0.0000 
     26 C72        15.2860   16.9700   44.1340 C.2       1 TR5201      0.0000 
     27 N73        14.8600   17.6760   43.0830 N.pl3     1 TR5201      0.0000 
     28 H           8.9740   18.1298   44.8309 H         1 TR5201      0.0000 
     29 H          10.6573   17.9373   45.3500 H         1 TR5201      0.0000 
     30 H           8.5283   15.8761   45.0405 H         1 TR5201      0.0000 
     31 H          10.1107   17.1386   47.0255 H         1 TR5201      0.0000 
     32 H          11.5085   15.5658   47.7108 H         1 TR5201      0.0000 
     33 H          11.3142   13.5297   45.8417 H         1 TR5201      0.0000 
     34 H          12.4896   16.3557   43.9835 H         1 TR5201      0.0000 
     35 H          15.5349   13.3522   48.7762 H         1 TR5201      0.0000 
     36 H          17.2708   17.5758   44.0286 H         1 TR5201      0.0000 
     37 H          15.5517   18.2218   42.6100 H         1 TR5201      0.0000 
     38 H          13.8877   17.5953   42.8636 H         1 TR5201      0.0000 
     39 H          18.8244   15.3894   45.9854 H         1 TR5201      0.0000 
     40 H          18.9390   16.8989   45.4427 H         1 TR5201      0.0000 
     41 H          18.4988   16.6228   46.9647 H         1 TR5201      0.0000 
     42 H           7.9467   15.2491   46.9015 H         1 TR5201      0.0000 
     43 H          10.0352   13.2735   47.2001 H         1 TR5201      0.0000 
@<TRIPOS>BOND
     1    2    1 ar   
     2    3    2 ar   
     3    4    2 ar   
     4    5    2 1    
     5    6    5 1    
     6    7    6 1    
     7   28    6 1    
     8   29    6 1    
     9    8    7 1    
    10    9    7 1    
    11   30    7 1    
    12   13    8 1    
    13   10    9 1    
    14   11    9 1    
    15   31    9 1    
    16   42   10 1    
    17   12   11 1    
    18   13   11 1    
    19   32   11 1    
    20   43   12 1    
    21   14   13 1    
    22   33   13 1    
    23   15   14 1    
    24   18   14 1    
    25   16   15 2    
    26   34   15 1    
    27   17   16 1    
    28   26   16 1    
    29   18   17 ar   
    30   22   17 ar   
    31   19   18 ar   
    32   20   19 ar   
    33   21   20 ar   
    34   35   20 1    
    35   22   21 ar   
    36   23   22 1    
    37   24   23 1    
    38   25   23 1    
    39   39   24 1    
    40   40   24 1    
    41   41   24 1    
    42   26   25 2    
    43   36   25 1    
    44   27   26 1    
    45   37   27 1    
    46   38   27 1    
@<TRIPOS>SUBSTRUCTURE
     1 TR5201      1 GROUP   
@<TRIPOS>SET

