#    Name: 2vii_AMP_1_INTS_M
#    Modification time : Tue Mar 25 01:52:29 2014

@<TRIPOS>MOLECULE
2vii_AMP_1_INTS_M
   43     0     9     0     0
SMALL
NO_CHARGES


@<TRIPOS>ATOM
      1 N          33.0910   11.7680   -3.6075 N.am      2 SEC2        0.0000 
      2 N          32.7110   10.5600   -3.8430 N.am      8 SEL2        0.0000 
      3 N          33.4710   12.9760   -3.3720 N.am      5 SEP2        0.0000 
      4 N          32.5775    7.8075   -4.7165 N.am      2 SEC2        0.0000 
      5 N          32.1050    8.3760   -3.5880 N.am      8 SEL2        0.0000 
      6 N          33.0500    7.2390   -5.8450 N.am      5 SEP2        0.0000 
      7 N          34.7785   10.0775   -3.3800 N.am      2 SEC2        0.0000 
      8 N          34.1120    9.0830   -2.5450 N.am      8 SEL2        0.0000 
      9 N          35.4450   11.0720   -4.2150 N.am      5 SEP2        0.0000 
     10 CA         35.0420   10.1520   -2.2540 C.3       3 GLC5        0.0000 
     11 CA         34.4020    8.3390   -1.4200 C.3       9 GLL5        0.0000 
     12 CA         35.6820   11.9650   -3.0880 C.3       6 GLP5        0.0000 
     13 CA         35.6765    5.4715   -2.4100 C.3       3 GLC5        0.0000 
     14 CA         35.5670    7.3610   -1.3710 C.3       9 GLL5        0.0000 
     15 CA         35.7860    3.5820   -3.4490 C.3       6 GLP5        0.0000 
     16 CA         37.7720    9.8570    0.3840 C.3       3 GLC5        0.0000 
     17 CA         37.3370    7.8770    0.0890 C.3       9 GLL5        0.0000 
     18 CA         38.2070   11.8370    0.6790 C.3       6 GLP5        0.0000 
     19 CA         39.2585    7.3425   -2.5870 C.3       3 GLC5        0.0000 
     20 CA         37.8870    7.6230   -1.2960 C.3       9 GLL5        0.0000 
     21 CA         40.6300    7.0620   -3.8780 C.3       6 GLP5        0.0000 
     22 CA         42.5710   12.4155   -0.6655 C.3       3 GLC5        0.0000 
     23 CA         41.6000   10.9560   -1.7330 C.3       9 GLL5        0.0000 
     24 CA         43.5420   13.8750    0.4020 C.3       6 GLP5        0.0000 
     25 O          43.2970   12.6560   -3.1090 O.2       1 ALC1        0.0000 
     26 O          41.9690   12.1550   -2.2050 O.2       7 ALL1        0.0000 
     27 O          44.6250   13.1570   -4.0130 O.2       4 ALP1        0.0000 
     28 N          43.6425   11.4795   -1.2065 N.am      2 SEC2        0.0000 
     29 N          42.4780   10.2030   -1.0810 N.am      8 SEL2        0.0000 
     30 N          44.8070   12.7560   -1.3320 N.am      5 SEP2        0.0000 
     31 CA         42.9880    9.2625   -2.3810 C.3       3 GLC5        0.0000 
     32 CA         42.1840    8.9810   -0.5720 C.3       9 GLL5        0.0000 
     33 CA         43.7920    9.5440   -4.1900 C.3       6 GLP5        0.0000 
     34 CA         41.4070    8.0215   -2.2250 C.3       3 GLC5        0.0000 
     35 CA         40.2965    8.0630   -2.5990 C.3       3 GLC5        0.0000 
     36 CA         39.9630    9.0640   -1.3200 C.3       9 GLL5        0.0000 
     37 CA         34.6928    7.4060   -3.4032 C.3       3 GLC5        0.0000 
     38 CA         34.4010    6.9620   -5.4110 C.3       6 GLP5        0.0000 
     39 CA         42.3573   10.1080   -2.9983 C.3       3 GLC5        0.0000 
     40 CA         40.2450   10.3880   -1.8800 C.3       9 GLL5        0.0000 
     41 CA         40.6077   10.1530   -3.5568 C.3       3 GLC5        0.0000 
     42 CA         40.2930    9.6340   -5.3070 C.3       6 GLP5        0.0000 
     43 CA         39.3249   10.8525   -0.4421 C.3       3 GLC5        0.0000 
@<TRIPOS>BOND
@<TRIPOS>SUBSTRUCTURE
     1 ALC1       25 GROUP        1 X    ALC  0     ROOT ALC X 1
     2 SEC2        1 GROUP        1 X    SEC  0     **** SEC X 2
     3 GLC5       10 GROUP        1 X    GLC  0     **** GLC X 6
     4 ALP1       27 GROUP        1 Y    ALP  0     ROOT ALP Y 8
     5 SEP2        3 GROUP        1 Y    SEP  0     **** SEP Y 9
     6 GLP5       12 GROUP        1 Y    GLP  0     **** GLP Y 13
     7 ALL1       26 GROUP        1 Z    ALL  0     ROOT ALL Z 15
     8 SEL2        2 GROUP        1 Z    SEL  0     **** SEL Z 16
     9 GLL5       11 GROUP        1 Z    GLL  0     **** GLL Z 20
@<TRIPOS>SET

