#    Name: 2vii_AMP_1_ligand
#    Modification time : Tue Mar 25 01:52:29 2014

@<TRIPOS>MOLECULE
2vii_AMP_1_ligand
   35    37     1     0     0
SMALL
NO_CHARGES


@<TRIPOS>ATOM
      1 P          32.6780    9.4750   -2.9490 P.3       1 AMP260      0.0000 
      2 O1P        32.7110   10.5600   -3.8430 O.co2     1 AMP260      0.0000 
      3 O2P        32.1050    8.3760   -3.5880 O.co2     1 AMP260      0.0000 
      4 O3P        32.0980    9.7720   -1.6830 O.co2     1 AMP260      0.0000 
      5 O5'        34.1120    9.0830   -2.5450 O.3       1 AMP260      0.0000 
      6 C5'        34.4020    8.3390   -1.4200 C.3       1 AMP260      0.0000 
      7 C4'        35.5670    7.3610   -1.3710 C.3       1 AMP260      0.0000 
      8 O4'        36.7250    7.6590   -2.0990 O.3       1 AMP260      0.0000 
      9 C3'        36.0180    7.2490    0.0240 C.3       1 AMP260      0.0000 
     10 O3'        36.1800    5.8970    0.3750 O.3       1 AMP260      0.0000 
     11 C2'        37.3370    7.8770    0.0890 C.3       1 AMP260      0.0000 
     12 O2'        37.9060    7.6430    1.3720 O.3       1 AMP260      0.0000 
     13 C1'        37.8870    7.6230   -1.2960 C.3       1 AMP260      0.0000 
     14 N9         38.6960    8.8110   -1.6100 N.pl3     1 AMP260      0.0000 
     15 C8         38.2250    9.8440   -2.2640 C.2       1 AMP260      0.0000 
     16 N7         39.1230   10.7710   -2.4290 N.2       1 AMP260      0.0000 
     17 C5         40.2450   10.3880   -1.8800 C.ar      1 AMP260      0.0000 
     18 C6         41.6000   10.9560   -1.7330 C.ar      1 AMP260      0.0000 
     19 N6         41.9690   12.1550   -2.2050 N.pl3     1 AMP260      0.0000 
     20 N1         42.4780   10.2030   -1.0810 N.ar      1 AMP260      0.0000 
     21 C2         42.1840    8.9810   -0.5720 C.ar      1 AMP260      0.0000 
     22 N3         40.9860    8.4180   -0.6790 N.ar      1 AMP260      0.0000 
     23 C4         39.9630    9.0640   -1.3200 C.ar      1 AMP260      0.0000 
     24 H          33.4763    7.7318   -1.0791 H         1 AMP260      0.0000 
     25 H          34.5380    9.0257   -0.4971 H         1 AMP260      0.0000 
     26 H          35.1798    6.3634   -1.6448 H         1 AMP260      0.0000 
     27 H          35.3469    7.7599    0.6675 H         1 AMP260      0.0000 
     28 H          37.0208    9.0197    0.0468 H         1 AMP260      0.0000 
     29 H          38.4056    6.7559   -1.3228 H         1 AMP260      0.0000 
     30 H          37.2782    9.9082   -2.5978 H         1 AMP260      0.0000 
     31 H          42.9358   12.2570   -2.4395 H         1 AMP260      0.0000 
     32 H          41.2445   12.8402   -2.2804 H         1 AMP260      0.0000 
     33 H          42.9603    8.4561   -0.0633 H         1 AMP260      0.0000 
     34 H          36.8944    5.8952    1.0748 H         1 AMP260      0.0000 
     35 H          38.8874    7.7916    1.2507 H         1 AMP260      0.0000 
@<TRIPOS>BOND
     1    2    1 ar   
     2    3    1 ar   
     3    4    1 ar   
     4    5    1 1    
     5    6    5 1    
     6    7    6 1    
     7   24    6 1    
     8   25    6 1    
     9    8    7 1    
    10    9    7 1    
    11   26    7 1    
    12   13    8 1    
    13   10    9 1    
    14   11    9 1    
    15   27    9 1    
    16   34   10 1    
    17   12   11 1    
    18   13   11 1    
    19   28   11 1    
    20   35   12 1    
    21   14   13 1    
    22   29   13 1    
    23   15   14 1    
    24   23   14 1    
    25   16   15 2    
    26   30   15 1    
    27   17   16 1    
    28   18   17 ar   
    29   23   17 ar   
    30   19   18 1    
    31   20   18 ar   
    32   31   19 1    
    33   32   19 1    
    34   21   20 ar   
    35   22   21 ar   
    36   33   21 1    
    37   23   22 ar   
@<TRIPOS>SUBSTRUCTURE
     1 AMP260      1 GROUP   
@<TRIPOS>SET

