#    Name: 1unh_IXM_2_INTS_M
#    Modification time : Tue Mar 25 06:46:20 2014

@<TRIPOS>MOLECULE
1unh_IXM_2_INTS_M
   54     0     9     0     0
SMALL
NO_CHARGES


@<TRIPOS>ATOM
      1 O          42.3520   19.8055    8.1735 O.2       1 ALC1        0.0000 
      2 O          41.5050   20.0900    9.4880 O.2       7 ALL1        0.0000 
      3 O          43.1990   19.5210    6.8590 O.2       4 ALP1        0.0000 
      4 CA         41.9190   22.7880   10.1885 C.3       3 GLC5        0.0000 
      5 CA         40.8420   21.1230   10.0620 C.3       9 GLL5        0.0000 
      6 CA         42.9960   24.4530   10.3150 C.3       6 GLP5        0.0000 
      7 O          38.8995   23.0770    5.9395 O.2       1 ALC1        0.0000 
      8 O          39.0890   22.8010    7.3270 O.2       7 ALL1        0.0000 
      9 O          38.7100   23.3530    4.5520 O.2       4 ALP1        0.0000 
     10 CA         38.7450   25.8940    7.0070 C.3       3 GLC5        0.0000 
     11 CA         37.8710   24.7080    8.3170 C.3       9 GLL5        0.0000 
     12 CA         39.6190   27.0800    5.6970 C.3       6 GLP5        0.0000 
     13 CA         36.1855   25.4700   11.6710 C.3       3 GLC5        0.0000 
     14 CA         38.0790   25.0270   10.7160 C.3       9 GLL5        0.0000 
     15 CA         34.2920   25.9130   12.6260 C.3       6 GLP5        0.0000 
     16 CA         40.9495   24.2060   10.5775 C.3       3 GLC5        0.0000 
     17 CA         38.9030   23.9590   10.8400 C.3       9 GLL5        0.0000 
     18 N          41.2540   21.0580    6.1450 N.am      2 SEC2        0.0000 
     19 N          40.4710   20.9340    7.2650 N.am      8 SEL2        0.0000 
     20 N          42.0370   21.1820    5.0250 N.am      5 SEP2        0.0000 
     21 CA         40.8468   18.5180   12.6067 C.3       3 GLC5        0.0000 
     22 CA         41.9690   20.0330   11.7170 C.3       9 GLL5        0.0000 
     23 CA         39.4280   17.2470   12.8830 C.3       6 GLP5        0.0000 
     24 CA         40.8173   18.3495   10.2210 C.3       3 GLC5        0.0000 
     25 CA         42.1700   19.4550   10.4960 C.3       9 GLL5        0.0000 
     26 CA         39.0420   17.8280    9.9950 C.3       6 GLP5        0.0000 
     27 CA         44.4012   19.0695   10.0485 C.3       3 GLC5        0.0000 
     28 CA         46.2100   19.2680    9.6500 C.3       6 GLP5        0.0000 
     29 CA         41.4597   17.6785   12.5400 C.3       3 GLC5        0.0000 
     30 CA         43.5990   17.8050   11.5740 C.3       9 GLL5        0.0000 
     31 CA         44.8507   18.6890   10.9235 C.3       3 GLC5        0.0000 
     32 CA         43.3840   18.4150   12.8200 C.3       9 GLL5        0.0000 
     33 CA         45.2032   17.0100   12.6210 C.3       3 GLC5        0.0000 
     34 CA         46.9150   15.9100   13.0450 C.3       6 GLP5        0.0000 
     35 CA         44.0859   20.7215   12.9541 C.3       3 GLC5        0.0000 
     36 CA         45.3470   22.3410   13.3330 C.3       6 GLP5        0.0000 
     37 CA         39.7447   19.6943    9.8322 C.3       3 GLC5        0.0000 
     38 CA         40.7687   23.9488    8.8425 C.3       3 GLC5        0.0000 
     39 CA         39.2340   23.2090    9.6050 C.3       9 GLL5        0.0000 
     40 CA         41.8940   25.2940    8.2440 C.3       6 GLP5        0.0000 
     41 CA         37.7354   21.9076    9.7805 C.3       3 GLC5        0.0000 
     42 CA         40.0530   21.9980    9.2770 C.3       9 GLL5        0.0000 
     43 CA         36.2930   20.7270   10.6520 C.3       6 GLP5        0.0000 
     44 CA         37.3748   22.4922    7.5405 C.3       3 GLC5        0.0000 
     45 CA         38.7120   23.5730    8.3770 C.3       9 GLL5        0.0000 
     46 CA         36.4580   20.8440    6.7340 C.3       6 GLP5        0.0000 
     47 CA         40.0927   24.7172    8.2955 C.3       3 GLC5        0.0000 
     48 CA         36.8646   24.9334    7.1933 C.3       3 GLC5        0.0000 
     49 CA         35.8190   25.0740    5.5090 C.3       6 GLP5        0.0000 
     50 CA         39.3340   26.7130   10.1825 C.3       3 GLC5        0.0000 
     51 CA         37.5290   25.4450    9.4080 C.3       9 GLL5        0.0000 
     52 CA         40.8640   28.1900   10.3030 C.3       6 GLP5        0.0000 
     53 CA         37.2860   23.1775   11.8335 C.3       3 GLC5        0.0000 
     54 CA         36.0810   21.8620   12.8890 C.3       6 GLP5        0.0000 
@<TRIPOS>BOND
@<TRIPOS>SUBSTRUCTURE
     1 ALC1        1 GROUP        1 X    ALC  0     ROOT ALC X 1
     2 SEC2       18 GROUP        1 X    SEC  0     **** SEC X 2
     3 GLC5        4 GROUP        1 X    GLC  0     **** GLC X 6
     4 ALP1        3 GROUP        1 Y    ALP  0     ROOT ALP Y 8
     5 SEP2       20 GROUP        1 Y    SEP  0     **** SEP Y 9
     6 GLP5        6 GROUP        1 Y    GLP  0     **** GLP Y 13
     7 ALL1        2 GROUP        1 Z    ALL  0     ROOT ALL Z 15
     8 SEL2       19 GROUP        1 Z    SEL  0     **** SEL Z 16
     9 GLL5        5 GROUP        1 Z    GLL  0     **** GLL Z 20
@<TRIPOS>SET

