#    Name: 1unh_IXM_2_ligand
#    Modification time : Tue Mar 25 06:46:20 2014

@<TRIPOS>MOLECULE
1unh_IXM_2_ligand
   32    35     1     0     0
SMALL
NO_CHARGES


@<TRIPOS>ATOM
      1 C1         41.9690   20.0330   11.7170 C.ar      1 IXM1288     0.0000 
      2 C2         41.0800   21.1600   11.4410 C.2       1 IXM1288     0.0000 
      3 C3         42.1700   19.4550   10.4960 C.ar      1 IXM1288     0.0000 
      4 N4         41.5050   20.0900    9.4880 N.pl3     1 IXM1288     0.0000 
      5 C5         43.0150   18.2870   10.3980 C.ar      1 IXM1288     0.0000 
      6 C7         43.5990   17.8050   11.5740 C.ar      1 IXM1288     0.0000 
      7 C9         43.3840   18.4150   12.8200 C.ar      1 IXM1288     0.0000 
      8 C11        42.5620   19.5450   12.9440 C.ar      1 IXM1288     0.0000 
      9 C13        40.8420   21.1230   10.0620 C.2       1 IXM1288     0.0000 
     10 C14        40.0530   21.9980    9.2770 C.2       1 IXM1288     0.0000 
     11 C15        39.8900   21.8590    7.9070 C.2       1 IXM1288     0.0000 
     12 N16        39.0890   22.8010    7.3270 N.am      1 IXM1288     0.0000 
     13 C17        38.7120   23.5730    8.3770 C.ar      1 IXM1288     0.0000 
     14 C18        39.2340   23.2090    9.6050 C.ar      1 IXM1288     0.0000 
     15 C19        37.8710   24.7080    8.3170 C.ar      1 IXM1288     0.0000 
     16 C20        37.5290   25.4450    9.4080 C.ar      1 IXM1288     0.0000 
     17 C21        38.0790   25.0270   10.7160 C.ar      1 IXM1288     0.0000 
     18 C22        38.9030   23.9590   10.8400 C.ar      1 IXM1288     0.0000 
     19 O23        40.4710   20.9340    7.2650 O.2       1 IXM1288     0.0000 
     20 N24        40.6230   22.0360   12.3800 N.2       1 IXM1288     0.0000 
     21 O39        41.0840   21.9670   13.7050 O.3       1 IXM1288     0.0000 
     22 H          41.5095   19.8516    8.5704 H         1 IXM1288     0.0000 
     23 H          43.1642   17.8525    9.5074 H         1 IXM1288     0.0000 
     24 H          44.2133   16.9670   11.5261 H         1 IXM1288     0.0000 
     25 H          43.8395   18.0244   13.6604 H         1 IXM1288     0.0000 
     26 H          42.3853   19.9954   13.8052 H         1 IXM1288     0.0000 
     27 H          38.8616   22.8870    6.4319 H         1 IXM1288     0.0000 
     28 H          37.5014   24.9790    7.3682 H         1 IXM1288     0.0000 
     29 H          36.9313   26.2496    9.3849 H         1 IXM1288     0.0000 
     30 H          37.7945   25.6016   11.5289 H         1 IXM1288     0.0000 
     31 H          39.3027   23.6412   11.7015 H         1 IXM1288     0.0000 
     32 H          41.6614   22.5444   14.2824 H         1 IXM1288     0.0000 
@<TRIPOS>BOND
     1    2    1 1    
     2    3    1 ar   
     3    8    1 ar   
     4    9    2 1    
     5   20    2 2    
     6    4    3 1    
     7    5    3 ar   
     8    9    4 1    
     9   22    4 1    
    10    6    5 ar   
    11   23    5 1    
    12    7    6 ar   
    13   24    6 1    
    14    8    7 ar   
    15   25    7 1    
    16   26    8 1    
    17   10    9 2    
    18   11   10 1    
    19   14   10 1    
    20   12   11 am   
    21   19   11 2    
    22   13   12 1    
    23   27   12 1    
    24   14   13 ar   
    25   15   13 ar   
    26   18   14 ar   
    27   16   15 ar   
    28   28   15 1    
    29   17   16 ar   
    30   29   16 1    
    31   18   17 ar   
    32   30   17 1    
    33   31   18 1    
    34   21   20 1    
    35   32   21 1    
@<TRIPOS>SUBSTRUCTURE
     1 IXM1288     1 GROUP   
@<TRIPOS>SET

