#    Name: 1dg5_TOP_1_INTS_M
#    Modification time : Mon Mar 24 21:51:23 2014

@<TRIPOS>MOLECULE
1dg5_TOP_1_INTS_M
   56     0     9     0     0
SMALL
NO_CHARGES


@<TRIPOS>ATOM
      1 CA          4.2285   25.9910    8.8395 C.3       3 GLC5        0.0000 
      2 CA          5.9830   25.7930   10.1880 C.3       9 GLL5        0.0000 
      3 CA          2.4740   26.1890    7.4910 C.3       6 GLP5        0.0000 
      4 N           6.2625   27.5985    8.7820 N.am      2 SEC2        0.0000 
      5 N           6.2400   26.2760    8.9520 N.am      8 SEL2        0.0000 
      6 N           6.2850   28.9210    8.6120 N.am      5 SEP2        0.0000 
      7 CA          5.9975   23.8955    6.5080 C.3       3 GLC5        0.0000 
      8 CA          6.5570   25.4290    7.9930 C.3       9 GLL5        0.0000 
      9 CA          5.4380   22.3620    5.0230 C.3       6 GLP5        0.0000 
     10 CA          8.0150   24.0925    7.3525 C.3       3 GLC5        0.0000 
     11 CA          9.4730   22.7560    6.7120 C.3       6 GLP5        0.0000 
     12 CA          8.4195   26.4045    7.5405 C.3       3 GLC5        0.0000 
     13 CA         10.2820   27.3800    7.0880 C.3       6 GLP5        0.0000 
     14 CA          4.5155   25.8090    7.7420 C.3       3 GLC5        0.0000 
     15 O           6.7590   27.3095    6.6135 O.2       1 ALC1        0.0000 
     16 O           6.8030   25.9090    6.7380 O.2       7 ALL1        0.0000 
     17 O           6.7150   28.7100    6.4890 O.2       4 ALP1        0.0000 
     18 O           6.9340   25.5115    5.1600 O.2       1 ALC1        0.0000 
     19 O           7.0650   25.1140    3.5820 O.2       4 ALP1        0.0000 
     20 CA          5.5810   21.9945    7.8620 C.3       3 GLC5        0.0000 
     21 CA          6.4370   23.5410    9.2500 C.3       9 GLL5        0.0000 
     22 CA          4.7250   20.4480    6.4740 C.3       6 GLP5        0.0000 
     23 CA          7.9550   23.1485    7.9810 C.3       3 GLC5        0.0000 
     24 O           7.1405   21.4655    8.4495 O.2       1 ALC1        0.0000 
     25 O           6.5300   22.2160    9.4330 O.2       7 ALL1        0.0000 
     26 O           7.7510   20.7150    7.4660 O.2       4 ALP1        0.0000 
     27 O           6.7225   21.3265   10.5270 O.2       1 ALC1        0.0000 
     28 O           6.9150   20.4370   11.6210 O.2       4 ALP1        0.0000 
     29 CA          4.3940   23.3595   10.5230 C.3       3 GLC5        0.0000 
     30 CA          5.7660   23.8470   11.7890 C.3       9 GLL5        0.0000 
     31 CA          3.0220   22.8720    9.2570 C.3       6 GLP5        0.0000 
     32 CA          5.0400   21.7730   11.3400 C.3       3 GLC5        0.0000 
     33 CA          4.3140   19.6990   10.8910 C.3       6 GLP5        0.0000 
     34 CA          7.4710   23.4595   11.8655 C.3       3 GLC5        0.0000 
     35 CA          9.1760   23.0720   11.9420 C.3       6 GLP5        0.0000 
     36 CA          9.4065   26.5900   14.7900 C.3       3 GLC5        0.0000 
     37 CA          8.2680   25.4640   15.8470 C.3       9 GLL5        0.0000 
     38 CA         10.5450   27.7160   13.7330 C.3       6 GLP5        0.0000 
     39 CA          8.3985   24.7290   17.6545 C.3       3 GLC5        0.0000 
     40 CA          8.5290   23.9940   19.4620 C.3       6 GLP5        0.0000 
     41 CA          9.1350   23.9265   15.0290 C.3       3 GLC5        0.0000 
     42 CA         10.0020   22.3890   14.2110 C.3       6 GLP5        0.0000 
     43 CA          4.2615   28.4075   17.3365 C.3       3 GLC5        0.0000 
     44 CA          5.2380   28.8840   15.3710 C.3       9 GLL5        0.0000 
     45 CA          3.2850   27.9310   19.3020 C.3       6 GLP5        0.0000 
     46 CA          1.7855   26.2225   11.1925 C.3       3 GLC5        0.0000 
     47 CA          2.0460   27.2620   12.7990 C.3       9 GLL5        0.0000 
     48 CA          1.5250   25.1830    9.5860 C.3       6 GLP5        0.0000 
     49 CA          7.8130   26.6085   13.5642 C.3       3 GLC5        0.0000 
     50 CA          6.1740   26.0090   14.8470 C.3       9 GLL5        0.0000 
     51 CA          9.3450   27.6770   12.7930 C.3       6 GLP5        0.0000 
     52 CA          4.7955   24.8210   15.5682 C.3       3 GLC5        0.0000 
     53 CA          6.3880   25.0710   13.8240 C.3       9 GLL5        0.0000 
     54 CA          3.3100   24.1020   16.8010 C.3       6 GLP5        0.0000 
     55 CA          3.8175   25.0929   15.2051 C.3       3 GLC5        0.0000 
     56 CA          4.9590   26.7200   14.8540 C.3       9 GLL5        0.0000 
@<TRIPOS>BOND
@<TRIPOS>SUBSTRUCTURE
     1 ALC1       15 GROUP        1 X    ALC  0     ROOT ALC X 1
     2 SEC2        4 GROUP        1 X    SEC  0     **** SEC X 2
     3 GLC5        1 GROUP        1 X    GLC  0     **** GLC X 6
     4 ALP1       17 GROUP        1 Y    ALP  0     ROOT ALP Y 8
     5 SEP2        6 GROUP        1 Y    SEP  0     **** SEP Y 9
     6 GLP5        3 GROUP        1 Y    GLP  0     **** GLP Y 13
     7 ALL1       16 GROUP        1 Z    ALL  0     ROOT ALL Z 15
     8 SEL2        5 GROUP        1 Z    SEL  0     **** SEL Z 16
     9 GLL5        2 GROUP        1 Z    GLL  0     **** GLL Z 20
@<TRIPOS>SET

