#    Name: 1dg5_TOP_1_ligand
#    Modification time : Mon Mar 24 21:51:23 2014

@<TRIPOS>MOLECULE
1dg5_TOP_1_ligand
   39    40     1     0     0
SMALL
NO_CHARGES


@<TRIPOS>ATOM
      1 C1          5.9830   25.7930   10.1880 C.ar      1 TOP201      0.0000 
      2 N2          6.2400   26.2760    8.9520 N.ar      1 TOP201      0.0000 
      3 C3          6.5570   25.4290    7.9930 C.ar      1 TOP201      0.0000 
      4 N4          6.8030   25.9090    6.7380 N.pl3     1 TOP201      0.0000 
      5 N5          6.6800   24.0740    8.0500 N.ar      1 TOP201      0.0000 
      6 C6          6.4370   23.5410    9.2500 C.ar      1 TOP201      0.0000 
      7 N7          6.5300   22.2160    9.4330 N.pl3     1 TOP201      0.0000 
      8 C8          6.0550   24.4400   10.4130 C.ar      1 TOP201      0.0000 
      9 C9          5.7660   23.8470   11.7890 C.3       1 TOP201      0.0000 
     10 C10         5.4170   24.8530   12.8490 C.ar      1 TOP201      0.0000 
     11 C11         6.3880   25.0710   13.8240 C.ar      1 TOP201      0.0000 
     12 C12         6.1740   26.0090   14.8470 C.ar      1 TOP201      0.0000 
     13 O13         7.1040   26.2590   15.8270 O.3       1 TOP201      0.0000 
     14 C14         8.2680   25.4640   15.8470 C.3       1 TOP201      0.0000 
     15 C15         4.9590   26.7200   14.8540 C.ar      1 TOP201      0.0000 
     16 O16         4.7110   27.6750   15.8490 O.3       1 TOP201      0.0000 
     17 C17         5.2380   28.8840   15.3710 C.3       1 TOP201      0.0000 
     18 C18         3.9730   26.5030   13.8830 C.ar      1 TOP201      0.0000 
     19 O19         2.8140   27.2690   14.0130 O.3       1 TOP201      0.0000 
     20 C20         2.0460   27.2620   12.7990 C.3       1 TOP201      0.0000 
     21 C21         4.1840   25.5560   12.8500 C.ar      1 TOP201      0.0000 
     22 H           5.7334   26.4287   10.9643 H         1 TOP201      0.0000 
     23 H           7.0069   25.2251    6.0375 H         1 TOP201      0.0000 
     24 H           6.7576   26.9021    6.6300 H         1 TOP201      0.0000 
     25 H           6.7822   21.6774    8.6291 H         1 TOP201      0.0000 
     26 H           6.3389   21.8849   10.3571 H         1 TOP201      0.0000 
     27 H           6.6522   23.2638   12.1129 H         1 TOP201      0.0000 
     28 H           4.9380   23.1157   11.6891 H         1 TOP201      0.0000 
     29 H           7.2711   24.5427   13.7986 H         1 TOP201      0.0000 
     30 H           3.4908   25.3886   12.1477 H         1 TOP201      0.0000 
     31 H           8.7882   25.5457   14.9969 H         1 TOP201      0.0000 
     32 H           8.8820   25.7232   16.5925 H         1 TOP201      0.0000 
     33 H           8.0537   24.4947   15.9674 H         1 TOP201      0.0000 
     34 H           6.2210   28.8186   15.1993 H         1 TOP201      0.0000 
     35 H           4.8083   29.1626   14.5121 H         1 TOP201      0.0000 
     36 H           5.1033   29.6310   16.0220 H         1 TOP201      0.0000 
     37 H           2.5637   27.6368   12.0299 H         1 TOP201      0.0000 
     38 H           1.7669   26.3369   12.5414 H         1 TOP201      0.0000 
     39 H           1.2118   27.8068   12.8841 H         1 TOP201      0.0000 
@<TRIPOS>BOND
     1    2    1 ar   
     2    8    1 ar   
     3   22    1 1    
     4    3    2 ar   
     5    4    3 1    
     6    5    3 ar   
     7   23    4 1    
     8   24    4 1    
     9    6    5 ar   
    10    7    6 1    
    11    8    6 ar   
    12   25    7 1    
    13   26    7 1    
    14    9    8 1    
    15   10    9 1    
    16   27    9 1    
    17   28    9 1    
    18   11   10 ar   
    19   21   10 ar   
    20   12   11 ar   
    21   29   11 1    
    22   13   12 1    
    23   15   12 ar   
    24   14   13 1    
    25   31   14 1    
    26   32   14 1    
    27   33   14 1    
    28   16   15 1    
    29   18   15 ar   
    30   17   16 1    
    31   34   17 1    
    32   35   17 1    
    33   36   17 1    
    34   19   18 1    
    35   21   18 ar   
    36   20   19 1    
    37   37   20 1    
    38   38   20 1    
    39   39   20 1    
    40   30   21 1    
@<TRIPOS>SUBSTRUCTURE
     1 TOP201      1 GROUP   
@<TRIPOS>SET

