#    Name: 1knu_YPA_1_INTS_M
#    Modification time : Tue Mar 25 10:15:26 2014

@<TRIPOS>MOLECULE
1knu_YPA_1_INTS_M
   76     0     6     0     0
SMALL
NO_CHARGES


@<TRIPOS>ATOM
      1 CA         14.9760   63.9415    8.2705 C.3       2 GLC5        0.0000 
      2 CA         14.1610   64.1620   10.0660 C.3       6 GLL5        0.0000 
      3 CA         15.7910   63.7210    6.4750 C.3       4 GLP5        0.0000 
      4 CA         11.6745   60.8750    9.8100 C.3       2 GLC5        0.0000 
      5 CA         11.9900   62.9680   10.2220 C.3       6 GLL5        0.0000 
      6 CA         11.3590   58.7820    9.3980 C.3       4 GLP5        0.0000 
      7 CA         15.7565   67.1865    6.3945 C.3       2 GLC5        0.0000 
      8 CA         15.5850   68.2770    8.3080 C.3       6 GLL5        0.0000 
      9 CA         15.9280   66.0960    4.4810 C.3       4 GLP5        0.0000 
     10 CA         18.2425   65.8540   10.9770 C.3       2 GLC5        0.0000 
     11 CA         16.9110   66.5330    9.4390 C.3       6 GLL5        0.0000 
     12 CA         19.5740   65.1750   12.5150 C.3       4 GLP5        0.0000 
     13 CA         16.2570   63.7465    8.6330 C.3       2 GLC5        0.0000 
     14 CA         16.7230   63.7720   10.7910 C.3       6 GLL5        0.0000 
     15 CA         15.9915   60.3965   11.6100 C.3       2 GLC5        0.0000 
     16 CA         16.5560   62.3900   11.4740 C.3       6 GLL5        0.0000 
     17 CA         15.4270   58.4030   11.7460 C.3       4 GLP5        0.0000 
     18 CA         17.6910   59.8645   13.2550 C.3       2 GLC5        0.0000 
     19 CA         17.9080   61.9910   13.4520 C.3       6 GLL5        0.0000 
     20 CA         17.4740   57.7380   13.0580 C.3       4 GLP5        0.0000 
     21 CA         19.0955   60.8110   12.2650 C.3       2 GLC5        0.0000 
     22 CA         20.2830   59.6310   11.0780 C.3       4 GLP5        0.0000 
     23 CA         15.9255   60.6955   16.6680 C.3       2 GLC5        0.0000 
     24 CA         16.9990   62.1690   15.7720 C.3       6 GLL5        0.0000 
     25 CA         14.8520   59.2220   17.5640 C.3       4 GLP5        0.0000 
     26 CA         18.7850   60.2195   17.8405 C.3       2 GLC5        0.0000 
     27 CA         18.5770   62.2180   17.8320 C.3       6 GLL5        0.0000 
     28 CA         18.9930   58.2210   17.8490 C.3       4 GLP5        0.0000 
     29 N          21.1505   63.1060   20.0015 N.am      1 SEC2        0.0000 
     30 N          20.0200   63.7990   20.5510 N.am      5 SEL2        0.0000 
     31 N          22.2810   62.4130   19.4520 N.am      3 SEP2        0.0000 
     32 N          20.0440   62.7190   21.5260 N.am      1 SEC2        0.0000 
     33 N          20.0680   61.6390   22.5010 N.am      3 SEP2        0.0000 
     34 N          16.5565   63.6505   19.9725 N.am      1 SEC2        0.0000 
     35 N          17.7960   63.6950   20.6260 N.am      5 SEL2        0.0000 
     36 N          15.3170   63.6060   19.3190 N.am      3 SEP2        0.0000 
     37 N          17.5510   62.6585   21.6610 N.am      1 SEC2        0.0000 
     38 N          17.3060   61.6220   22.6960 N.am      3 SEP2        0.0000 
     39 N          21.2020   63.2710   18.6410 N.am      1 SEC2        0.0000 
     40 N          20.1230   64.1290   17.8300 N.am      5 SEL2        0.0000 
     41 CA         12.5273   64.1308    7.6725 C.3       2 GLC5        0.0000 
     42 CA         11.3500   64.0610    9.5710 C.3       6 GLL5        0.0000 
     43 CA         13.3240   63.6330    5.9750 C.3       4 GLP5        0.0000 
     44 CA         11.6296   65.6456    7.7680 C.3       2 GLC5        0.0000 
     45 CA         13.4960   65.2200    9.4160 C.3       6 GLL5        0.0000 
     46 CA         10.6460   66.3670    6.1430 C.3       4 GLP5        0.0000 
     47 CA         13.1421   64.1662   11.6683 C.3       2 GLC5        0.0000 
     48 CA         12.6730   64.4810   13.2290 C.3       4 GLP5        0.0000 
     49 CA         11.5071   64.1481   11.4540 C.3       2 GLC5        0.0000 
     50 CA         11.1540   64.4980   13.1120 C.3       4 GLP5        0.0000 
     51 CA         16.0532   64.9338    7.9932 C.3       2 GLC5        0.0000 
     52 CA         15.7200   65.7600    9.5840 C.3       6 GLL5        0.0000 
     53 CA         14.3989   65.5640    7.4089 C.3       2 GLC5        0.0000 
     54 CA         14.5990   64.5140    5.9530 C.3       4 GLP5        0.0000 
     55 CA         17.1555   68.5225   10.6210 C.3       2 GLC5        0.0000 
     56 CA         17.4350   69.8780   12.1270 C.3       4 GLP5        0.0000 
     57 CA         18.1067   64.1280   11.8238 C.3       2 GLC5        0.0000 
     58 CA         19.0665   63.5750   13.1220 C.3       2 GLC5        0.0000 
     59 CA         20.4545   61.1837   13.3658 C.3       2 GLC5        0.0000 
     60 CA         19.2100   61.9590   14.0060 C.3       6 GLL5        0.0000 
     61 CA         21.5960   60.3730   12.0220 C.3       4 GLP5        0.0000 
     62 CA         18.8627   63.8698   14.9663 C.3       2 GLC5        0.0000 
     63 CA         19.4160   62.0300   15.4130 C.3       6 GLL5        0.0000 
     64 CA         18.8580   65.6560   14.0680 C.3       4 GLP5        0.0000 
     65 CA         16.4505   63.3580   17.1630 C.3       2 GLC5        0.0000 
     66 CA         18.3190   62.1370   16.3160 C.3       6 GLL5        0.0000 
     67 CA         15.2420   64.5630   18.2820 C.3       4 GLP5        0.0000 
     68 CA         17.8765   63.8942   14.5667 C.3       2 GLC5        0.0000 
     69 CA         16.9780   63.7528   18.1923 C.3       2 GLC5        0.0000 
     70 CA         22.4042   66.6095   17.2927 C.3       2 GLC5        0.0000 
     71 CA         20.6170   65.4340   18.1520 C.3       6 GLL5        0.0000 
     72 CA         24.0610   67.3940   17.0740 C.3       4 GLP5        0.0000 
     73 CA         19.8028   65.7405   15.7897 C.3       2 GLC5        0.0000 
     74 CA         20.8780   66.2160   16.8710 C.3       6 GLL5        0.0000 
     75 CA         19.9787   67.4145   18.0508 C.3       2 GLC5        0.0000 
     76 CA         19.2100   69.0040   18.5900 C.3       4 GLP5        0.0000 
@<TRIPOS>BOND
@<TRIPOS>SUBSTRUCTURE
     1 SEC2       29 GROUP        1 X    SEC  0     ROOT SEC X 2
     2 GLC5        1 GROUP        1 X    GLC  0     **** GLC X 6
     3 SEP2       31 GROUP        1 Y    SEP  0     ROOT SEP Y 9
     4 GLP5        3 GROUP        1 Y    GLP  0     **** GLP Y 13
     5 SEL2       30 GROUP        1 Z    SEL  0     ROOT SEL Z 16
     6 GLL5        2 GROUP        1 Z    GLL  0     **** GLL Z 20
@<TRIPOS>SET

