#    Name: 1knu_YPA_1_ligand
#    Modification time : Tue Mar 25 10:15:26 2014

@<TRIPOS>MOLECULE
1knu_YPA_1_ligand
   54    57     1     0     0
SMALL
NO_CHARGES


@<TRIPOS>ATOM
      1 C1         11.3500   64.0610    9.5710 C.ar      1 YPA1001     0.0000 
      2 C2         12.1110   65.1960    9.1690 C.ar      1 YPA1001     0.0000 
      3 C3         13.4960   65.2200    9.4160 C.ar      1 YPA1001     0.0000 
      4 C4         14.1610   64.1620   10.0660 C.ar      1 YPA1001     0.0000 
      5 C5         13.3940   63.0120   10.4740 C.ar      1 YPA1001     0.0000 
      6 C6         11.9900   62.9680   10.2220 C.ar      1 YPA1001     0.0000 
      7 C11        14.4990   66.2440    9.1110 C.ar      1 YPA1001     0.0000 
      8 C12        15.7200   65.7600    9.5840 C.ar      1 YPA1001     0.0000 
      9 N13        15.5370   64.5100   10.1770 N.pl3     1 YPA1001     0.0000 
     10 C14        14.4000   67.4960    8.4660 C.ar      1 YPA1001     0.0000 
     11 C15        15.5850   68.2770    8.3080 C.ar      1 YPA1001     0.0000 
     12 C16        16.8410   67.8010    8.7910 C.ar      1 YPA1001     0.0000 
     13 C17        16.9110   66.5330    9.4390 C.ar      1 YPA1001     0.0000 
     14 C22        16.7230   63.7720   10.7910 C.3       1 YPA1001     0.0000 
     15 C23        16.5560   62.3900   11.4740 C.3       1 YPA1001     0.0000 
     16 O26        17.8010   61.9100   12.0160 O.3       1 YPA1001     0.0000 
     17 C29        17.9080   61.9910   13.4520 C.ar      1 YPA1001     0.0000 
     18 C30        19.2100   61.9590   14.0060 C.ar      1 YPA1001     0.0000 
     19 C31        19.4160   62.0300   15.4130 C.ar      1 YPA1001     0.0000 
     20 C32        18.3190   62.1370   16.3160 C.ar      1 YPA1001     0.0000 
     21 C33        16.9990   62.1690   15.7720 C.ar      1 YPA1001     0.0000 
     22 C34        16.7910   62.0960   14.3590 C.ar      1 YPA1001     0.0000 
     23 C39        18.5770   62.2180   17.8320 C.3       1 YPA1001     0.0000 
     24 C40        18.8510   63.6670   18.3730 C.3       1 YPA1001     0.0000 
     25 C43        18.7990   63.7140   19.9670 C.2       1 YPA1001     0.0000 
     26 O44        20.0200   63.7990   20.5510 O.co2     1 YPA1001     0.0000 
     27 O45        17.7960   63.6950   20.6260 O.co2     1 YPA1001     0.0000 
     28 O47        20.1230   64.1290   17.8300 O.3       1 YPA1001     0.0000 
     29 C49        20.6170   65.4340   18.1520 C.3       1 YPA1001     0.0000 
     30 C50        20.8780   66.2160   16.8710 C.3       1 YPA1001     0.0000 
     31 H          10.3489   64.0313    9.3929 H         1 YPA1001     0.0000 
     32 H          11.6514   65.9759    8.7094 H         1 YPA1001     0.0000 
     33 H          13.8564   62.2397   10.9383 H         1 YPA1001     0.0000 
     34 H          11.4486   62.1568   10.5074 H         1 YPA1001     0.0000 
     35 H          13.5162   67.8375    8.1222 H         1 YPA1001     0.0000 
     36 H          15.5331   69.1852    7.8447 H         1 YPA1001     0.0000 
     37 H          17.6771   68.3612    8.6737 H         1 YPA1001     0.0000 
     38 H          17.7917   66.1856    9.7911 H         1 YPA1001     0.0000 
     39 H          17.2206   64.4626   11.5433 H         1 YPA1001     0.0000 
     40 H          17.5237   63.6598    9.9929 H         1 YPA1001     0.0000 
     41 H          16.1500   61.7003   10.7185 H         1 YPA1001     0.0000 
     42 H          15.7903   62.5038   12.2563 H         1 YPA1001     0.0000 
     43 H          20.0245   61.8831   13.3840 H         1 YPA1001     0.0000 
     44 H          20.3721   62.0037   15.7841 H         1 YPA1001     0.0000 
     45 H          16.1961   62.2446   16.3966 H         1 YPA1001     0.0000 
     46 H          15.8443   62.1180   13.9828 H         1 YPA1001     0.0000 
     47 H          19.4430   61.5901   18.0864 H         1 YPA1001     0.0000 
     48 H          17.7080   61.8124   18.3698 H         1 YPA1001     0.0000 
     49 H          18.0339   64.2928   18.0094 H         1 YPA1001     0.0000 
     50 H          21.5570   65.3827   18.7134 H         1 YPA1001     0.0000 
     51 H          19.8969   66.0013   18.7528 H         1 YPA1001     0.0000 
     52 H          21.2207   67.1361   17.0608 H         1 YPA1001     0.0000 
     53 H          21.5565   65.7642   16.2918 H         1 YPA1001     0.0000 
     54 H          20.0477   66.3197   16.3235 H         1 YPA1001     0.0000 
@<TRIPOS>BOND
     1    2    1 ar   
     2    6    1 ar   
     3   31    1 1    
     4    3    2 ar   
     5   32    2 1    
     6    4    3 ar   
     7    7    3 1    
     8    5    4 ar   
     9    9    4 1    
    10    6    5 ar   
    11   33    5 1    
    12   34    6 1    
    13    8    7 ar   
    14   10    7 ar   
    15    9    8 1    
    16   13    8 ar   
    17   14    9 1    
    18   11   10 ar   
    19   35   10 1    
    20   12   11 ar   
    21   36   11 1    
    22   13   12 ar   
    23   37   12 1    
    24   38   13 1    
    25   15   14 1    
    26   39   14 1    
    27   40   14 1    
    28   16   15 1    
    29   41   15 1    
    30   42   15 1    
    31   17   16 1    
    32   18   17 ar   
    33   22   17 ar   
    34   19   18 ar   
    35   43   18 1    
    36   20   19 ar   
    37   44   19 1    
    38   21   20 ar   
    39   23   20 1    
    40   22   21 ar   
    41   45   21 1    
    42   46   22 1    
    43   24   23 1    
    44   47   23 1    
    45   48   23 1    
    46   25   24 1    
    47   28   24 1    
    48   49   24 1    
    49   26   25 ar   
    50   27   25 ar   
    51   29   28 1    
    52   30   29 1    
    53   50   29 1    
    54   51   29 1    
    55   52   30 1    
    56   53   30 1    
    57   54   30 1    
@<TRIPOS>SUBSTRUCTURE
     1 YPA1001     1 GROUP   
@<TRIPOS>SET

