#    Name: 2r84_AMP_3_INTS_M
#    Modification time : Mon Mar 24 23:19:22 2014

@<TRIPOS>MOLECULE
2r84_AMP_3_INTS_M
   44     0    12     0     0
SMALL
NO_CHARGES


@<TRIPOS>ATOM
      1 N          41.9040   37.9720    3.1485 N.am      2 SEC2        0.0000 
      2 N          42.3450   37.8360    4.3890 N.am     10 SEL2        0.0000 
      3 N          41.4630   38.1080    1.9080 N.am      6 SEP2        0.0000 
      4 NZ         42.3710   41.4815    3.9015 N.4       3 LYC4        0.0000 
      5 NZ         42.3050   40.3560    4.7070 N.4      11 LYL4        0.0000 
      6 NZ         42.4370   42.6070    3.0960 N.4       7 LYP4        0.0000 
      7 N          42.3710   41.4815    3.9015 N.am      2 SEC2        0.0000 
      8 N          42.3050   40.3560    4.7070 N.am     10 SEL2        0.0000 
      9 N          42.4370   42.6070    3.0960 N.am      6 SEP2        0.0000 
     10 CA         44.4985   38.3310    2.8980 C.3       4 GLC5        0.0000 
     11 CA         45.3330   38.0650    4.6890 C.3      12 GLL5        0.0000 
     12 CA         43.6640   38.5970    1.1070 C.3       8 GLP5        0.0000 
     13 CA         46.4445   36.4055    4.2640 C.3       4 GLC5        0.0000 
     14 CA         47.5560   34.7460    3.8390 C.3       8 GLP5        0.0000 
     15 CA         48.2280   37.5350    4.5410 C.3       4 GLC5        0.0000 
     16 CA         46.7280   38.6380    4.8810 C.3      12 GLL5        0.0000 
     17 CA         49.7280   36.4320    4.2010 C.3       8 GLP5        0.0000 
     18 CA         48.1245   42.4115    6.4660 C.3       4 GLC5        0.0000 
     19 CA         47.8900   40.5250    5.7510 C.3      12 GLL5        0.0000 
     20 CA         48.3590   44.2980    7.1810 C.3       8 GLP5        0.0000 
     21 N          43.8735   42.9620    3.3680 N.am      2 SEC2        0.0000 
     22 N          45.3100   43.3170    3.6400 N.am     10 SEL2        0.0000 
     23 CA         44.5470   43.0975    2.4635 C.3       4 GLC5        0.0000 
     24 CA         46.4250   43.9620    3.2580 C.3      12 GLL5        0.0000 
     25 CA         42.6690   42.2330    1.6690 C.3       8 GLP5        0.0000 
     26 CA         47.5580   46.6035    1.1360 C.3       4 GLC5        0.0000 
     27 CA         46.7480   45.3130    2.7410 C.3      12 GLL5        0.0000 
     28 CA         48.3680   47.8940   -0.4690 C.3       8 GLP5        0.0000 
     29 O          44.3315   46.0585    2.8230 O.2       1 ALC1        0.0000 
     30 O          45.7720   46.2350    2.5550 O.2       9 ALL1        0.0000 
     31 O          42.8910   45.8820    3.0910 O.2       5 ALP1        0.0000 
     32 O          45.9685   47.4390    1.7905 O.2       1 ALC1        0.0000 
     33 O          46.1650   48.6430    1.0260 O.2       5 ALP1        0.0000 
     34 N          48.8000   46.8305    2.0495 N.am      2 SEC2        0.0000 
     35 N          48.0440   45.5880    2.4620 N.am     10 SEL2        0.0000 
     36 N          49.5560   48.0730    1.6370 N.am      6 SEP2        0.0000 
     37 CA         49.7420   46.6730    2.6280 C.3       4 GLC5        0.0000 
     38 CA         49.0210   44.6740    2.6440 C.3      12 GLL5        0.0000 
     39 CA         50.4630   48.6720    2.6120 C.3       8 GLP5        0.0000 
     40 CA         47.0815   42.4470    1.4620 C.3       4 GLC5        0.0000 
     41 CA         47.5450   43.0190    3.4320 C.3      12 GLL5        0.0000 
     42 CA         46.6180   41.8750   -0.5080 C.3       8 GLP5        0.0000 
     43 CA         45.9198   44.6983    1.2048 C.3       4 GLC5        0.0000 
     44 CA         45.2530   44.7590   -0.5900 C.3       8 GLP5        0.0000 
@<TRIPOS>BOND
@<TRIPOS>SUBSTRUCTURE
     1 ALC1       29 GROUP        1 X    ALC  0     ROOT ALC X 1
     2 SEC2        1 GROUP        1 X    SEC  0     **** SEC X 2
     3 LYC4        4 GROUP        1 X    LYC  0     **** LYC X 4
     4 GLC5       10 GROUP        1 X    GLC  0     **** GLC X 6
     5 ALP1       31 GROUP        1 Y    ALP  0     ROOT ALP Y 8
     6 SEP2        3 GROUP        1 Y    SEP  0     **** SEP Y 9
     7 LYP4        6 GROUP        1 Y    LYP  0     **** LYP Y 11
     8 GLP5       12 GROUP        1 Y    GLP  0     **** GLP Y 13
     9 ALL1       30 GROUP        1 Z    ALL  0     ROOT ALL Z 15
    10 SEL2        2 GROUP        1 Z    SEL  0     **** SEL Z 16
    11 LYL4        5 GROUP        1 Z    LYL  0     **** LYL Z 18
    12 GLL5       11 GROUP        1 Z    GLL  0     **** GLL Z 20
@<TRIPOS>SET

