#    Name: 2r84_AMP_3_ligand
#    Modification time : Mon Mar 24 23:19:22 2014

@<TRIPOS>MOLECULE
2r84_AMP_3_ligand
   35    37     1     0     0
SMALL
NO_CHARGES


@<TRIPOS>ATOM
      1 P          42.9160   39.0360    5.1100 P.3       1 AMP400      0.0000 
      2 O1P        42.3450   37.8360    4.3890 O.co2     1 AMP400      0.0000 
      3 O2P        42.3050   40.3560    4.7070 O.co2     1 AMP400      0.0000 
      4 O3P        43.0840   38.8470    6.5980 O.co2     1 AMP400      0.0000 
      5 O5'        44.4140   39.1430    4.5380 O.3       1 AMP400      0.0000 
      6 C5'        45.3330   38.0650    4.6890 C.3       1 AMP400      0.0000 
      7 C4'        46.7280   38.6380    4.8810 C.3       1 AMP400      0.0000 
      8 O4'        47.0850   39.4750    3.7780 O.3       1 AMP400      0.0000 
      9 C3'        46.8140   39.5220    6.1130 C.3       1 AMP400      0.0000 
     10 O3'        47.1270   38.7660    7.2860 O.3       1 AMP400      0.0000 
     11 C2'        47.8900   40.5250    5.7510 C.3       1 AMP400      0.0000 
     12 O2'        49.1790   40.0050    6.0900 O.3       1 AMP400      0.0000 
     13 C1'        47.7720   40.6460    4.2380 C.3       1 AMP400      0.0000 
     14 N9         47.0120   41.8870    3.9000 N.pl3     1 AMP400      0.0000 
     15 C8         45.6790   42.0680    4.0230 C.2       1 AMP400      0.0000 
     16 N7         45.3100   43.3170    3.6400 N.2       1 AMP400      0.0000 
     17 C5         46.4250   43.9620    3.2580 C.ar      1 AMP400      0.0000 
     18 C6         46.7480   45.3130    2.7410 C.ar      1 AMP400      0.0000 
     19 N6         45.7720   46.2350    2.5550 N.pl3     1 AMP400      0.0000 
     20 N1         48.0440   45.5880    2.4620 N.ar      1 AMP400      0.0000 
     21 C2         49.0210   44.6740    2.6440 C.ar      1 AMP400      0.0000 
     22 N3         48.8010   43.4300    3.1120 N.ar      1 AMP400      0.0000 
     23 C4         47.5450   43.0190    3.4320 C.ar      1 AMP400      0.0000 
     24 H          45.3517   37.4195    3.8072 H         1 AMP400      0.0000 
     25 H          45.0982   37.4491    5.5608 H         1 AMP400      0.0000 
     26 H          47.4330   37.8357    4.9929 H         1 AMP400      0.0000 
     27 H          45.8825   40.0537    6.1917 H         1 AMP400      0.0000 
     28 H          47.6692   41.4484    6.1878 H         1 AMP400      0.0000 
     29 H          48.7616   40.7013    3.8336 H         1 AMP400      0.0000 
     30 H          45.0520   41.3838    4.3485 H         1 AMP400      0.0000 
     31 H          46.0683   47.1263    2.2119 H         1 AMP400      0.0000 
     32 H          44.8420   45.9423    2.7773 H         1 AMP400      0.0000 
     33 H          50.0223   44.9536    2.4035 H         1 AMP400      0.0000 
     34 H          46.7420   39.2929    8.0437 H         1 AMP400      0.0000 
     35 H          49.0375   39.4960    6.9391 H         1 AMP400      0.0000 
@<TRIPOS>BOND
     1    2    1 ar   
     2    3    1 ar   
     3    4    1 ar   
     4    5    1 1    
     5    6    5 1    
     6    7    6 1    
     7   24    6 1    
     8   25    6 1    
     9    8    7 1    
    10    9    7 1    
    11   26    7 1    
    12   13    8 1    
    13   10    9 1    
    14   11    9 1    
    15   27    9 1    
    16   34   10 1    
    17   12   11 1    
    18   13   11 1    
    19   28   11 1    
    20   35   12 1    
    21   14   13 1    
    22   29   13 1    
    23   15   14 1    
    24   23   14 1    
    25   16   15 2    
    26   30   15 1    
    27   17   16 1    
    28   18   17 ar   
    29   23   17 ar   
    30   19   18 1    
    31   20   18 ar   
    32   31   19 1    
    33   32   19 1    
    34   21   20 ar   
    35   22   21 ar   
    36   33   21 1    
    37   23   22 ar   
@<TRIPOS>SUBSTRUCTURE
     1 AMP400      1 GROUP   
@<TRIPOS>SET

