#    Name: 3p88_P88_1_INTS_M
#    Modification time : Tue Mar 25 06:03:46 2014

@<TRIPOS>MOLECULE
3p88_P88_1_INTS_M
  102     0     6     0     0
SMALL
NO_CHARGES


@<TRIPOS>ATOM
      1 CA         99.9630   43.9370  141.7520 C.3       2 GLC5        0.0000 
      2 CA         98.3540   42.9130  141.5750 C.3       6 GLL5        0.0000 
      3 CA        101.5720   44.9610  141.9290 C.3       4 GLP5        0.0000 
      4 CA         98.8505   42.8655  143.5740 C.3       2 GLC5        0.0000 
      5 CA         99.3470   42.8180  145.5730 C.3       4 GLP5        0.0000 
      6 N          94.5510   43.2175  145.6250 N.am      1 SEC2        0.0000 
      7 N          95.3050   42.2200  144.6830 N.am      5 SEL2        0.0000 
      8 N          93.7970   44.2150  146.5670 N.am      3 SEP2        0.0000 
      9 CA         97.4370   46.4480  141.7035 C.3       2 GLC5        0.0000 
     10 CA         96.6270   44.7430  141.6590 C.3       6 GLL5        0.0000 
     11 CA         98.2470   48.1530  141.7480 C.3       4 GLP5        0.0000 
     12 CA         95.3750   45.8920  140.3805 C.3       2 GLC5        0.0000 
     13 CA         94.1230   47.0410  139.1020 C.3       4 GLP5        0.0000 
     14 CA         95.1945   45.7610  142.4230 C.3       2 GLC5        0.0000 
     15 CA         93.7620   46.7790  143.1870 C.3       4 GLP5        0.0000 
     16 CA         97.0290   40.0545  140.4740 C.3       2 GLC5        0.0000 
     17 CA         95.2550   40.2120  141.5540 C.3       6 GLL5        0.0000 
     18 CA         98.8030   39.8970  139.3940 C.3       4 GLP5        0.0000 
     19 CA         94.2785   41.6720  140.3315 C.3       2 GLC5        0.0000 
     20 CA         93.3020   43.1320  139.1090 C.3       4 GLP5        0.0000 
     21 CA         93.3180   41.1270  139.7850 C.3       2 GLC5        0.0000 
     22 CA         93.3340   39.1220  140.4610 C.3       6 GLL5        0.0000 
     23 CA         90.2980   40.2935  140.9785 C.3       2 GLC5        0.0000 
     24 CA         91.9890   39.2400  140.1430 C.3       6 GLL5        0.0000 
     25 CA         88.6070   41.3470  141.8140 C.3       4 GLP5        0.0000 
     26 CA         90.0410   39.5360  138.1260 C.3       2 GLC5        0.0000 
     27 CA         91.4060   38.4080  139.1920 C.3       6 GLL5        0.0000 
     28 CA         88.6760   40.6640  137.0600 C.3       4 GLP5        0.0000 
     29 CA         94.9555   35.8770  138.5895 C.3       2 GLC5        0.0000 
     30 CA         93.5080   37.3210  138.8620 C.3       6 GLL5        0.0000 
     31 CA         96.4030   34.4330  138.3170 C.3       4 GLP5        0.0000 
     32 CA         96.0635   37.8490  139.7760 C.3       2 GLC5        0.0000 
     33 CA         94.0930   38.1530  139.8140 C.3       6 GLL5        0.0000 
     34 CA         98.0340   37.5450  139.7380 C.3       4 GLP5        0.0000 
     35 CA         93.4800   34.2700  138.0655 C.3       2 GLC5        0.0000 
     36 CA         92.3260   35.6080  136.9000 C.3       6 GLL5        0.0000 
     37 CA         94.6340   32.9320  139.2310 C.3       4 GLP5        0.0000 
     38 CA         92.0165   32.7455  135.4665 C.3       2 GLC5        0.0000 
     39 CA         91.7580   34.7690  135.9440 C.3       6 GLL5        0.0000 
     40 CA         92.2750   30.7220  134.9890 C.3       4 GLP5        0.0000 
     41 CA         89.5165   35.7690  133.3450 C.3       2 GLC5        0.0000 
     42 CA         89.8440   34.0500  134.6710 C.3       6 GLL5        0.0000 
     43 CA         89.1890   37.4880  132.0190 C.3       4 GLP5        0.0000 
     44 CA         91.0595   32.3860  134.8300 C.3       2 GLC5        0.0000 
     45 CA         88.1535   35.5560  133.0535 C.3       2 GLC5        0.0000 
     46 CA         88.4900   34.1920  134.3710 C.3       6 GLL5        0.0000 
     47 CA         87.8170   36.9200  131.7360 C.3       4 GLP5        0.0000 
     48 CA         87.4380   37.5505  136.6195 C.3       2 GLC5        0.0000 
     49 CA         88.2980   35.9460  135.9320 C.3       6 GLL5        0.0000 
     50 CA         86.5780   39.1550  137.3070 C.3       4 GLP5        0.0000 
     51 CA         87.0965   35.0460  137.2990 C.3       2 GLC5        0.0000 
     52 CA         85.8950   34.1460  138.6660 C.3       4 GLP5        0.0000 
     53 CA         88.9320   38.2570  137.4930 C.3       2 GLC5        0.0000 
     54 CA         90.2070   36.6840  137.2140 C.3       6 GLL5        0.0000 
     55 CA         87.6570   39.8300  137.7720 C.3       4 GLP5        0.0000 
     56 CA         91.9120   36.2275  144.1170 C.3       2 GLC5        0.0000 
     57 CA         92.6870   37.8020  145.4790 C.3       6 GLL5        0.0000 
     58 CA         91.1370   34.6530  142.7550 C.3       4 GLP5        0.0000 
     59 CA         95.2605   36.9105  146.7840 C.3       2 GLC5        0.0000 
     60 CA         94.0590   37.6720  145.2890 C.3       6 GLL5        0.0000 
     61 CA         96.4620   36.1490  148.2790 C.3       4 GLP5        0.0000 
     62 CA         90.9645   41.9860  146.2475 C.3       2 GLC5        0.0000 
     63 CA         91.9860   41.6170  144.3230 C.3       6 GLL5        0.0000 
     64 CA         89.9430   42.3550  148.1720 C.3       4 GLP5        0.0000 
     65 CA         90.8790   42.1660  143.0445 C.3       2 GLC5        0.0000 
     66 CA         89.7720   42.7150  141.7660 C.3       4 GLP5        0.0000 
     67 CA         92.8810   42.5480  146.0240 C.3       2 GLC5        0.0000 
     68 CA         93.7760   43.4790  147.7250 C.3       4 GLP5        0.0000 
     69 CA         91.8660   43.5495  143.9365 C.3       2 GLC5        0.0000 
     70 CA         91.7460   45.4820  143.5500 C.3       4 GLP5        0.0000 
     71 CA         97.4410   36.9340  143.6795 C.3       2 GLC5        0.0000 
     72 CA         96.5630   38.5470  144.5810 C.3       6 GLL5        0.0000 
     73 CA         98.3190   35.3210  142.7780 C.3       4 GLP5        0.0000 
     74 CA         98.4620   38.7380  145.4955 C.3       2 GLC5        0.0000 
     75 CA        100.3610   38.9290  146.4100 C.3       4 GLP5        0.0000 
     76 CA         96.5125   37.3480  146.4300 C.3       2 GLC5        0.0000 
     77 CA         98.2067   41.4877  140.4683 C.3       2 GLC5        0.0000 
     78 CA         95.0245   43.5628  140.3468 C.3       2 GLC5        0.0000 
     79 CA         96.8670   43.2440  141.5100 C.3       6 GLL5        0.0000 
     80 CA         97.2544   43.8674  139.6164 C.3       2 GLC5        0.0000 
     81 CA         97.3900   43.8240  137.6320 C.3       4 GLP5        0.0000 
     82 CA         92.0923   40.6610  138.8277 C.3       2 GLC5        0.0000 
     83 CA         92.4870   42.4980  137.9880 C.3       4 GLP5        0.0000 
     84 CA         93.9746   38.4432  137.5850 C.3       2 GLC5        0.0000 
     85 CA         92.1510   37.4270  138.5260 C.3       6 GLL5        0.0000 
     86 CA         94.4880   39.1230  135.9160 C.3       4 GLP5        0.0000 
     87 CA         93.8695   34.6532  135.5470 C.3       2 GLC5        0.0000 
     88 CA         95.6970   34.1180  134.6720 C.3       4 GLP5        0.0000 
     89 CA         93.2329   36.6515  135.8186 C.3       2 GLC5        0.0000 
     90 CA         94.6140   37.8700  135.0500 C.3       4 GLP5        0.0000 
     91 CA         90.3575   33.0652  136.6462 C.3       2 GLC5        0.0000 
     92 CA         89.6270   31.3040  137.5090 C.3       4 GLP5        0.0000 
     93 CA         91.2190   34.9691  133.4891 C.3       2 GLC5        0.0000 
     94 CA         91.9720   35.5000  131.7510 C.3       4 GLP5        0.0000 
     95 CA         89.3970   32.7125  136.0150 C.3       2 GLC5        0.0000 
     96 CA         89.0259   37.3801  135.4931 C.3       2 GLC5        0.0000 
     97 CA         88.3660   38.5910  134.4110 C.3       4 GLP5        0.0000 
     98 CA         90.6213   39.9852  143.9725 C.3       2 GLC5        0.0000 
     99 CA         92.0590   39.0070  145.1820 C.3       6 GLL5        0.0000 
    100 CA         88.8100   40.4300  143.0040 C.3       4 GLP5        0.0000 
    101 CA         90.6225   37.7662  145.6732 C.3       2 GLC5        0.0000 
    102 CA         88.8720   37.1280  146.0160 C.3       4 GLP5        0.0000 
@<TRIPOS>BOND
@<TRIPOS>SUBSTRUCTURE
     1 SEC2        6 GROUP        1 X    SEC  0     ROOT SEC X 2
     2 GLC5        1 GROUP        1 X    GLC  0     **** GLC X 6
     3 SEP2        8 GROUP        1 Y    SEP  0     ROOT SEP Y 9
     4 GLP5        3 GROUP        1 Y    GLP  0     **** GLP Y 13
     5 SEL2        7 GROUP        1 Z    SEL  0     ROOT SEL Z 16
     6 GLL5        2 GROUP        1 Z    GLL  0     **** GLL Z 20
@<TRIPOS>SET

