#    Name: 3p88_P88_1_ligand
#    Modification time : Tue Mar 25 06:03:46 2014

@<TRIPOS>MOLECULE
3p88_P88_1_ligand
   64    68     1     0     0
SMALL
NO_CHARGES


@<TRIPOS>ATOM
      1 C1         98.3540   42.9130  141.5750 C.3       1 P881        0.0000 
      2 N1         95.3050   42.2200  144.6830 N.2       1 P881        0.0000 
      3 O1         96.0430   43.0740  143.7960 O.3       1 P881        0.0000 
      4 C2         96.8670   43.2440  141.5100 C.3       1 P881        0.0000 
      5 N2         87.7550   35.1380  135.0080 N.ar      1 P881        0.0000 
      6 O2         93.8610   39.9610  141.4080 O.3       1 P881        0.0000 
      7 C3         96.6270   44.7430  141.6590 C.3       1 P881        0.0000 
      8 O3         88.5300   32.4780  132.7140 O.co2     1 P881        0.0000 
      9 C4         96.1390   42.5090  142.5710 C.2       1 P881        0.0000 
     10 O4         86.6120   33.4480  133.1180 O.co2     1 P881        0.0000 
     11 C5         94.9520   41.1090  143.9780 C.2       1 P881        0.0000 
     12 C6         95.4290   41.2150  142.6620 C.2       1 P881        0.0000 
     13 C7         95.2550   40.2120  141.5540 C.3       1 P881        0.0000 
     14 C8         93.3340   39.1220  140.4610 C.ar      1 P881        0.0000 
     15 C9         91.9890   39.2400  140.1430 C.ar      1 P881        0.0000 
     16 C10        91.4060   38.4080  139.1920 C.ar      1 P881        0.0000 
     17 C11        92.1510   37.4270  138.5260 C.ar      1 P881        0.0000 
     18 C12        93.5080   37.3210  138.8620 C.ar      1 P881        0.0000 
     19 C13        94.0930   38.1530  139.8140 C.ar      1 P881        0.0000 
     20 C14        91.5650   36.5860  137.5610 C.ar      1 P881        0.0000 
     21 C15        92.3260   35.6080  136.9000 C.ar      1 P881        0.0000 
     22 C16        91.7580   34.7690  135.9440 C.ar      1 P881        0.0000 
     23 C17        90.4180   34.8840  135.6230 C.ar      1 P881        0.0000 
     24 C18        89.8440   34.0500  134.6710 C.ar      1 P881        0.0000 
     25 C19        88.4900   34.1920  134.3710 C.ar      1 P881        0.0000 
     26 C20        88.2980   35.9460  135.9320 C.ar      1 P881        0.0000 
     27 C21        89.6440   35.8410  136.2590 C.ar      1 P881        0.0000 
     28 C22        90.2070   36.6840  137.2140 C.ar      1 P881        0.0000 
     29 C23        87.8370   33.3120  133.3400 C.2       1 P881        0.0000 
     30 C24        94.1710   39.9530  144.5100 C.ar      1 P881        0.0000 
     31 C25        92.8060   40.0740  144.7000 C.ar      1 P881        0.0000 
     32 C26        92.0590   39.0070  145.1820 C.ar      1 P881        0.0000 
     33 C27        92.6870   37.8020  145.4790 C.ar      1 P881        0.0000 
     34 C28        94.0590   37.6720  145.2890 C.ar      1 P881        0.0000 
     35 C29        94.7960   38.7470  144.8050 C.ar      1 P881        0.0000 
     36 CL1        91.9860   41.6170  144.3230 C.3       1 P881        0.0000 
     37 CL2        96.5630   38.5470  144.5810 C.3       1 P881        0.0000 
     38 H          96.4918   42.9348  140.5392 H         1 P881        0.0000 
     39 H          95.6885   40.6262  140.6423 H         1 P881        0.0000 
     40 H          95.8029   39.3063  141.8191 H         1 P881        0.0000 
     41 H          91.4107   39.9544  140.6174 H         1 P881        0.0000 
     42 H          90.3994   38.5136  138.9693 H         1 P881        0.0000 
     43 H          94.0882   36.6033  138.3874 H         1 P881        0.0000 
     44 H          95.0929   38.0490  140.0390 H         1 P881        0.0000 
     45 H          93.3309   35.5124  137.1318 H         1 P881        0.0000 
     46 H          92.3433   34.0605  135.4762 H         1 P881        0.0000 
     47 H          90.4058   33.3408  134.1956 H         1 P881        0.0000 
     48 H          87.7234   36.6639  136.4193 H         1 P881        0.0000 
     49 H          89.6196   37.3965  137.6790 H         1 P881        0.0000 
     50 H          91.0460   39.1064  145.3190 H         1 P881        0.0000 
     51 H          92.1397   37.0106  145.8374 H         1 P881        0.0000 
     52 H          94.5264   36.7833  145.5060 H         1 P881        0.0000 
     53 H          98.8678   43.3673  140.8472 H         1 P881        0.0000 
     54 H          98.7605   43.1986  142.4429 H         1 P881        0.0000 
     55 H          98.5204   41.9313  141.4824 H         1 P881        0.0000 
     56 H          96.9674   45.0885  142.5335 H         1 P881        0.0000 
     57 H          97.0842   45.2657  140.9394 H         1 P881        0.0000 
     58 H          95.6541   44.9697  141.6129 H         1 P881        0.0000 
     59 H          92.3471   42.3727  144.8694 H         1 P881        0.0000 
     60 H          92.0964   41.8711  143.3621 H         1 P881        0.0000 
     61 H          91.0034   41.5689  144.5025 H         1 P881        0.0000 
     62 H          97.0836   39.1942  145.1379 H         1 P881        0.0000 
     63 H          96.8682   37.6294  144.8358 H         1 P881        0.0000 
     64 H          96.8357   38.6930  143.6300 H         1 P881        0.0000 
@<TRIPOS>BOND
     1    4    1 1    
     2   53    1 1    
     3   54    1 1    
     4   55    1 1    
     5    3    2 1    
     6   11    2 2    
     7    9    3 1    
     8    7    4 1    
     9    9    4 1    
    10   38    4 1    
    11   25    5 ar   
    12   26    5 ar   
    13   13    6 1    
    14   14    6 1    
    15   56    7 1    
    16   57    7 1    
    17   58    7 1    
    18   29    8 ar   
    19   12    9 2    
    20   29   10 ar   
    21   12   11 1    
    22   30   11 1    
    23   13   12 1    
    24   39   13 1    
    25   40   13 1    
    26   15   14 ar   
    27   19   14 ar   
    28   16   15 ar   
    29   41   15 1    
    30   17   16 ar   
    31   42   16 1    
    32   18   17 ar   
    33   20   17 1    
    34   19   18 ar   
    35   43   18 1    
    36   44   19 1    
    37   21   20 ar   
    38   28   20 ar   
    39   22   21 ar   
    40   45   21 1    
    41   23   22 ar   
    42   46   22 1    
    43   24   23 ar   
    44   27   23 ar   
    45   25   24 ar   
    46   47   24 1    
    47   29   25 1    
    48   27   26 ar   
    49   48   26 1    
    50   28   27 ar   
    51   49   28 1    
    52   31   30 ar   
    53   35   30 ar   
    54   32   31 ar   
    55   36   31 1    
    56   33   32 ar   
    57   50   32 1    
    58   34   33 ar   
    59   51   33 1    
    60   35   34 ar   
    61   52   34 1    
    62   37   35 1    
    63   59   36 1    
    64   60   36 1    
    65   61   36 1    
    66   62   37 1    
    67   63   37 1    
    68   64   37 1    
@<TRIPOS>SUBSTRUCTURE
     1 P881        1 GROUP   
@<TRIPOS>SET

