#    Name: 4azm_T4B_1_INTS_M
#    Modification time : Tue Mar 25 06:24:09 2014

@<TRIPOS>MOLECULE
4azm_T4B_1_INTS_M
   77     0     9     0     0
SMALL
NO_CHARGES


@<TRIPOS>ATOM
      1 CA         28.1810    3.1910   23.3560 C.3       3 GLC5        0.0000 
      2 CA         29.6050    2.9550   21.6520 C.3       9 GLL5        0.0000 
      3 CA         26.7570    3.4270   25.0600 C.3       6 GLP5        0.0000 
      4 CA         30.1300    2.5210   23.6865 C.3       3 GLC5        0.0000 
      5 CA         30.6550    2.0870   25.7210 C.3       6 GLP5        0.0000 
      6 CA         30.2260    4.8560   22.5895 C.3       3 GLC5        0.0000 
      7 CA         30.8470    6.7570   23.5270 C.3       6 GLP5        0.0000 
      8 CA         35.4245    4.4540   19.2740 C.3       3 GLC5        0.0000 
      9 CA         34.8860    3.4200   18.1570 C.3       9 GLL5        0.0000 
     10 CA         35.9630    5.4880   20.3910 C.3       6 GLP5        0.0000 
     11 CA         36.0625    4.9605   17.5745 C.3       3 GLC5        0.0000 
     12 CA         37.2390    6.5010   16.9920 C.3       6 GLP5        0.0000 
     13 CA         29.8630    6.2800   14.6750 C.3       3 GLC5        0.0000 
     14 CA         31.1160    4.6920   14.4800 C.3       9 GLL5        0.0000 
     15 CA         28.6100    7.8680   14.8700 C.3       6 GLP5        0.0000 
     16 CA         29.0480    4.3250   13.9410 C.3       3 GLC5        0.0000 
     17 CA         26.9800    3.9580   13.4020 C.3       6 GLP5        0.0000 
     18 CA         34.4780   -4.0160   18.6190 C.3       3 GLC5        0.0000 
     19 CA         34.7080   -1.8730   19.1480 C.3       9 GLL5        0.0000 
     20 CA         34.2480   -6.1590   18.0900 C.3       6 GLP5        0.0000 
     21 CA         35.7015    1.1040   20.2390 C.3       3 GLC5        0.0000 
     22 CA         33.8130    0.3300   20.6270 C.3       9 GLL5        0.0000 
     23 CA         37.5900    1.8780   19.8510 C.3       6 GLP5        0.0000 
     24 NZ         26.6040    1.9915   21.5505 N.4       2 LYC4        0.0000 
     25 NZ         27.2640    3.3090   21.5370 N.4       8 LYL4        0.0000 
     26 NZ         24.8870    0.3940   22.3230 N.4       5 LYP4        0.0000 
     27 N          26.6040    1.9915   21.5505 N.am      1 SEC2        0.0000 
     28 N          27.2640    3.3090   21.5370 N.am      7 SEL2        0.0000 
     29 N          25.9440    0.6740   21.5640 N.am      4 SEP2        0.0000 
     30 NZ         29.6430    5.9380   21.8365 N.4       2 LYC4        0.0000 
     31 NZ         28.5810    5.1170   21.6080 N.4       8 LYL4        0.0000 
     32 NZ         31.4180    7.5220   21.2310 N.4       5 LYP4        0.0000 
     33 N          27.9140    5.9645   20.7935 N.am      1 SEC2        0.0000 
     34 N          28.5810    5.1170   21.6080 N.am      7 SEL2        0.0000 
     35 N          27.2470    6.8120   19.9790 N.am      4 SEP2        0.0000 
     36 N          29.6430    5.9380   21.8365 N.am      1 SEC2        0.0000 
     37 N          30.7050    6.7590   22.0650 N.am      4 SEP2        0.0000 
     38 CA         29.0420    3.4880   15.0605 C.3       3 GLC5        0.0000 
     39 CA         31.1150    3.5630   15.3110 C.3       9 GLL5        0.0000 
     40 CA         26.9690    3.4130   14.8100 C.3       6 GLP5        0.0000 
     41 CA         27.0025    0.9640   16.6995 C.3       3 GLC5        0.0000 
     42 CA         26.6000    2.2420   18.3000 C.3       9 GLL5        0.0000 
     43 CA         27.4050   -0.3140   15.0990 C.3       6 GLP5        0.0000 
     44 CA         34.5583   -1.6732   16.8590 C.3       3 GLC5        0.0000 
     45 CA         33.8490   -0.9600   18.5560 C.3       9 GLL5        0.0000 
     46 CA         34.8380   -1.9300   14.8660 C.3       6 GLP5        0.0000 
     47 CA         36.3990    0.0662   21.1700 C.3       3 GLC5        0.0000 
     48 CA         34.6890   -0.5930   21.1960 C.3       9 GLL5        0.0000 
     49 CA         37.8910    1.2730   21.5110 C.3       6 GLP5        0.0000 
     50 CA         35.8140   -1.7457   22.2850 C.3       3 GLC5        0.0000 
     51 CA         36.7210   -2.3510   23.7410 C.3       6 GLP5        0.0000 
     52 CA         31.6052    5.0392   23.1163 C.3       3 GLC5        0.0000 
     53 CA         31.8430    2.9910   22.3790 C.3       9 GLL5        0.0000 
     54 CA         31.5436    2.5638   24.1133 C.3       3 GLC5        0.0000 
     55 CA         32.8840    3.6520   23.0320 C.3       9 GLL5        0.0000 
     56 CA         33.3860    4.6335   24.5945 C.3       3 GLC5        0.0000 
     57 CA         33.2310    5.8300   26.2280 C.3       6 GLP5        0.0000 
     58 CA         35.9836    1.8850   21.9162 C.3       3 GLC5        0.0000 
     59 CA         34.1980    3.2220   22.8900 C.3       9 GLL5        0.0000 
     60 CA         36.0920    2.3675   18.7942 C.3       3 GLC5        0.0000 
     61 CA         25.1415    0.9850   17.9838 C.3       3 GLC5        0.0000 
     62 CA         27.2380    1.0060   18.2470 C.3       9 GLL5        0.0000 
     63 CA         23.3640    0.3460   17.6940 C.3       6 GLP5        0.0000 
     64 CA         27.4525    2.1913   16.5085 C.3       3 GLC5        0.0000 
     65 CA         28.0420    0.6104   16.6378 C.3       3 GLC5        0.0000 
     66 CA         28.6340    0.9330   18.1670 C.3       9 GLL5        0.0000 
     67 CA         28.0323    3.0682   16.4940 C.3       3 GLC5        0.0000 
     68 CA         29.4220    2.1000   18.1460 C.3       9 GLL5        0.0000 
     69 CA         25.0422    3.5898   18.3100 C.3       3 GLC5        0.0000 
     70 CA         27.3650    3.4130   18.2780 C.3       9 GLL5        0.0000 
     71 CA         23.1020    4.3520   18.3310 C.3       6 GLP5        0.0000 
     72 CA         26.9758    3.1202   16.5495 C.3       3 GLC5        0.0000 
     73 CA         33.0797    7.4488   15.0427 C.3       3 GLC5        0.0000 
     74 CA         31.7010    5.8940   14.9020 C.3       9 GLL5        0.0000 
     75 CA         34.1660    8.9610   14.5500 C.3       6 GLP5        0.0000 
     76 CA         30.5785    6.7756   15.9794 C.3       3 GLC5        0.0000 
     77 CA         29.1670    7.8950   16.2170 C.3       6 GLP5        0.0000 
@<TRIPOS>BOND
@<TRIPOS>SUBSTRUCTURE
     1 SEC2       27 GROUP        1 X    SEC  0     ROOT SEC X 2
     2 LYC4       24 GROUP        1 X    LYC  0     **** LYC X 4
     3 GLC5        1 GROUP        1 X    GLC  0     **** GLC X 6
     4 SEP2       29 GROUP        1 Y    SEP  0     ROOT SEP Y 9
     5 LYP4       26 GROUP        1 Y    LYP  0     **** LYP Y 11
     6 GLP5        3 GROUP        1 Y    GLP  0     **** GLP Y 13
     7 SEL2       28 GROUP        1 Z    SEL  0     ROOT SEL Z 16
     8 LYL4       25 GROUP        1 Z    LYL  0     **** LYL Z 18
     9 GLL5        2 GROUP        1 Z    GLL  0     **** GLL Z 20
@<TRIPOS>SET

