#    Name: 4azm_T4B_1_ligand
#    Modification time : Tue Mar 25 06:24:09 2014

@<TRIPOS>MOLECULE
4azm_T4B_1_ligand
   61    65     1     0     0
SMALL
NO_CHARGES


@<TRIPOS>ATOM
      1 C1         33.8490   -0.9600   18.5560 C.ar      1 T4B1135     0.0000 
      2 C2         33.4410    1.4270   21.4230 C.ar      1 T4B1135     0.0000 
      3 C3         32.1180    1.8670   21.5790 C.ar      1 T4B1135     0.0000 
      4 C7         34.6890   -0.5930   21.1960 C.ar      1 T4B1135     0.0000 
      5 C8         35.1250   -1.6880   20.4620 C.ar      1 T4B1135     0.0000 
      6 C9         29.6050    2.9550   21.6520 C.3       1 T4B1135     0.0000 
      7 C10        28.3800    3.8770   21.6040 C.2       1 T4B1135     0.0000 
      8 C11        31.8430    2.9910   22.3790 C.ar      1 T4B1135     0.0000 
      9 C12        32.8840    3.6520   23.0320 C.ar      1 T4B1135     0.0000 
     10 C13        34.1980    3.2220   22.8900 C.ar      1 T4B1135     0.0000 
     11 C14        34.4680    2.1170   22.0830 C.ar      1 T4B1135     0.0000 
     12 C15        34.8860    3.4200   18.1570 C.3       1 T4B1135     0.0000 
     13 C16        31.6970    3.6410   16.5820 C.ar      1 T4B1135     0.0000 
     14 C19        31.7430    2.5910   17.4300 C.2       1 T4B1135     0.0000 
     15 C20        32.8740    1.9790   17.8020 C.2       1 T4B1135     0.0000 
     16 C21        34.3020    2.2940   17.3180 C.3       1 T4B1135     0.0000 
     17 C22        31.1160    4.6920   14.4800 C.ar      1 T4B1135     0.0000 
     18 C24        27.2380    1.0060   18.2470 C.ar      1 T4B1135     0.0000 
     19 C27        29.4220    2.1000   18.1460 C.ar      1 T4B1135     0.0000 
     20 C30        32.2720    4.8580   16.9940 C.ar      1 T4B1135     0.0000 
     21 C          34.7080   -1.8730   19.1480 C.ar      1 T4B1135     0.0000 
     22 C4         28.7690    3.3470   18.2100 C.ar      1 T4B1135     0.0000 
     23 C5         33.4020    0.1510   19.2760 C.ar      1 T4B1135     0.0000 
     24 C6         33.8130    0.3300   20.6270 C.ar      1 T4B1135     0.0000 
     25 O          27.2640    3.3090   21.5370 O.co2     1 T4B1135     0.0000 
     26 O1         28.5810    5.1170   21.6080 O.co2     1 T4B1135     0.0000 
     27 O2         30.5760    3.4770   22.5620 O.3       1 T4B1135     0.0000 
     28 C17        31.1150    3.5630   15.3110 C.ar      1 T4B1135     0.0000 
     29 N          32.5670    1.0060   18.6620 N.pl3     1 T4B1135     0.0000 
     30 N1         31.3400    0.9960   18.8240 N.2       1 T4B1135     0.0000 
     31 C18        30.7630    1.9520   18.1020 C.2       1 T4B1135     0.0000 
     32 C23        28.6340    0.9330   18.1670 C.ar      1 T4B1135     0.0000 
     33 C25        26.6000    2.2420   18.3000 C.ar      1 T4B1135     0.0000 
     34 C26        27.3650    3.4130   18.2780 C.ar      1 T4B1135     0.0000 
     35 C28        31.7010    5.8940   14.9020 C.ar      1 T4B1135     0.0000 
     36 C29        32.2860    5.9790   16.1690 C.ar      1 T4B1135     0.0000 
     37 H          33.5373   -1.0963   17.5852 H         1 T4B1135     0.0000 
     38 H          31.3537    1.3727   21.1127 H         1 T4B1135     0.0000 
     39 H          35.0126   -0.4601   22.1646 H         1 T4B1135     0.0000 
     40 H          35.7658   -2.3731   20.8953 H         1 T4B1135     0.0000 
     41 H          30.0021    2.8778   20.6327 H         1 T4B1135     0.0000 
     42 H          29.2588    1.9589   21.9530 H         1 T4B1135     0.0000 
     43 H          32.6733    4.4695   23.6268 H         1 T4B1135     0.0000 
     44 H          34.9582    3.7078   23.3699 H         1 T4B1135     0.0000 
     45 H          35.4457    1.7970   21.9668 H         1 T4B1135     0.0000 
     46 H          34.9126    1.4060   17.4214 H         1 T4B1135     0.0000 
     47 H          34.2631    2.5943   16.2786 H         1 T4B1135     0.0000 
     48 H          30.6813    4.6377   13.5474 H         1 T4B1135     0.0000 
     49 H          26.6839    0.1391   18.2665 H         1 T4B1135     0.0000 
     50 H          32.6954    4.9142   17.9400 H         1 T4B1135     0.0000 
     51 H          35.0390   -2.6900   18.6159 H         1 T4B1135     0.0000 
     52 H          29.3209    4.2111   18.2070 H         1 T4B1135     0.0000 
     53 H          30.6924    2.6899   14.9907 H         1 T4B1135     0.0000 
     54 H          29.0956    0.0121   18.1226 H         1 T4B1135     0.0000 
     55 H          25.5800    2.2970   18.3546 H         1 T4B1135     0.0000 
     56 H          26.9019    4.3295   18.3116 H         1 T4B1135     0.0000 
     57 H          31.6990    6.7092   14.2808 H         1 T4B1135     0.0000 
     58 H          32.7152    6.8494   16.4810 H         1 T4B1135     0.0000 
     59 H          35.8151    3.6534   17.8702 H         1 T4B1135     0.0000 
     60 H          34.3400    4.2550   18.0896 H         1 T4B1135     0.0000 
     61 H          34.9308    3.1765   19.1259 H         1 T4B1135     0.0000 
@<TRIPOS>BOND
     1   21    1 ar   
     2   23    1 ar   
     3   37    1 1    
     4    3    2 ar   
     5   11    2 ar   
     6   24    2 1    
     7    8    3 ar   
     8   38    3 1    
     9    5    4 ar   
    10   24    4 ar   
    11   39    4 1    
    12   21    5 ar   
    13   40    5 1    
    14    7    6 1    
    15   27    6 1    
    16   41    6 1    
    17   42    6 1    
    18   25    7 ar   
    19   26    7 ar   
    20    9    8 ar   
    21   27    8 1    
    22   10    9 ar   
    23   43    9 1    
    24   11   10 ar   
    25   44   10 1    
    26   45   11 1    
    27   16   12 1    
    28   59   12 1    
    29   60   12 1    
    30   61   12 1    
    31   14   13 1    
    32   20   13 ar   
    33   28   13 ar   
    34   15   14 2    
    35   31   14 1    
    36   16   15 1    
    37   29   15 1    
    38   46   16 1    
    39   47   16 1    
    40   28   17 ar   
    41   35   17 ar   
    42   48   17 1    
    43   32   18 ar   
    44   33   18 ar   
    45   49   18 1    
    46   22   19 ar   
    47   31   19 1    
    48   32   19 ar   
    49   36   20 ar   
    50   50   20 1    
    51   51   21 1    
    52   34   22 ar   
    53   52   22 1    
    54   24   23 ar   
    55   29   23 1    
    56   53   28 1    
    57   30   29 1    
    58   31   30 2    
    59   54   32 1    
    60   34   33 ar   
    61   55   33 1    
    62   56   34 1    
    63   36   35 ar   
    64   57   35 1    
    65   58   36 1    
@<TRIPOS>SUBSTRUCTURE
     1 T4B1135     1 GROUP   
@<TRIPOS>SET

