#    Name: 4fv9_E71_1_INTS_M
#    Modification time : Mon Mar 24 20:51:50 2014

@<TRIPOS>MOLECULE
4fv9_E71_1_INTS_M
   79     0     9     0     0
SMALL
NO_CHARGES


@<TRIPOS>ATOM
      1 CA         -9.5330    3.1600   10.7450 C.3       3 GLC5        0.0000 
      2 CA        -10.2870    1.8230   10.1490 C.3       9 GLL5        0.0000 
      3 CA         -8.7790    4.4970   11.3410 C.3       6 GLP5        0.0000 
      4 CA        -10.8075    3.8030   11.9380 C.3       3 GLC5        0.0000 
      5 CA        -11.7390    2.2490   11.9420 C.3       9 GLL5        0.0000 
      6 CA         -9.8760    5.3570   11.9340 C.3       6 GLP5        0.0000 
      7 CA         -9.7640    3.2015   12.0630 C.3       3 GLC5        0.0000 
      8 CA        -10.7490    1.9060   12.7850 C.3       9 GLL5        0.0000 
      9 CA        -14.7990    4.0790    8.9860 C.3       3 GLC5        0.0000 
     10 CA        -13.7660    2.8040   10.1580 C.3       9 GLL5        0.0000 
     11 CA        -15.8320    5.3540    7.8140 C.3       6 GLP5        0.0000 
     12 CA        -14.8310    4.5100   12.2845 C.3       3 GLC5        0.0000 
     13 CA        -13.9860    2.9460   11.5180 C.3       9 GLL5        0.0000 
     14 CA        -15.6760    6.0740   13.0510 C.3       6 GLP5        0.0000 
     15 CA        -15.0060    4.1815   13.8165 C.3       3 GLC5        0.0000 
     16 CA        -14.3360    2.2890   14.5820 C.3       9 GLL5        0.0000 
     17 CA        -13.2660    0.7080   15.7530 C.3       3 GLC5        0.0000 
     18 CA        -12.1960   -0.8730   16.9240 C.3       6 GLP5        0.0000 
     19 CA        -15.3265   -0.0750   11.1515 C.3       3 GLC5        0.0000 
     20 CA        -15.6570    0.7080   13.1630 C.3       9 GLL5        0.0000 
     21 CA        -14.9960   -0.8580    9.1400 C.3       6 GLP5        0.0000 
     22 O         -17.7600   -0.4970   12.1455 O.2       1 ALC1        0.0000 
     23 O         -16.9520    0.2740   13.0720 O.2       7 ALL1        0.0000 
     24 O         -18.5680   -1.2680   11.2190 O.2       4 ALP1        0.0000 
     25 CA        -19.3855    0.3640   12.7270 C.3       3 GLC5        0.0000 
     26 CA        -17.6570    0.9030   14.0560 C.3       9 GLL5        0.0000 
     27 CA        -21.1140   -0.1750   11.3980 C.3       6 GLP5        0.0000 
     28 CA        -18.9880   -0.6995   14.8530 C.3       3 GLC5        0.0000 
     29 CA        -20.3190   -2.3020   15.6500 C.3       6 GLP5        0.0000 
     30 CA        -16.6970   -0.4475   14.8215 C.3       3 GLC5        0.0000 
     31 CA        -15.7370   -1.7980   15.5870 C.3       6 GLP5        0.0000 
     32 N         -20.0070   -0.1105   13.9895 N.am      2 SEC2        0.0000 
     33 N         -18.9710    0.7960   14.3110 N.am      8 SEL2        0.0000 
     34 N         -21.0430   -1.0170   13.6680 N.am      5 SEP2        0.0000 
     35 CA        -20.6245    2.1230   13.9540 C.3       3 GLC5        0.0000 
     36 CA        -19.4780    1.4940   15.3360 C.3       9 GLL5        0.0000 
     37 CA        -21.7710    2.7520   12.5720 C.3       6 GLP5        0.0000 
     38 CA        -20.4935   -0.1375   15.0850 C.3       3 GLC5        0.0000 
     39 CA        -21.5090   -1.7690   14.8340 C.3       6 GLP5        0.0000 
     40 CA        -21.5835    4.8570   20.4105 C.3       3 GLC5        0.0000 
     41 CA        -21.2790    4.0850   18.3350 C.3       9 GLL5        0.0000 
     42 CA        -21.8880    5.6290   22.4860 C.3       6 GLP5        0.0000 
     43 N         -21.3615    5.2975   20.2640 N.am      2 SEC2        0.0000 
     44 N         -20.5880    4.4580   19.4160 N.am      8 SEL2        0.0000 
     45 N         -22.1350    6.1370   21.1120 N.am      5 SEP2        0.0000 
     46 CA        -19.8510    4.7615   21.0750 C.3       3 GLC5        0.0000 
     47 CA        -19.2840    4.1630   19.4260 C.3       9 GLL5        0.0000 
     48 CA        -20.4180    5.3600   22.7240 C.3       6 GLP5        0.0000 
     49 CA        -17.8155    2.1530   19.9585 C.3       3 GLC5        0.0000 
     50 CA        -18.6350    3.5120   18.3920 C.3       9 GLL5        0.0000 
     51 CA        -16.9960    0.7940   21.5250 C.3       6 GLP5        0.0000 
     52 CA        -12.1982    0.5715    9.6252 C.3       3 GLC5        0.0000 
     53 CA        -13.4910   -0.8400    8.8820 C.3       6 GLP5        0.0000 
     54 CA        -11.8355    3.9430   10.1328 C.3       3 GLC5        0.0000 
     55 CA        -12.5300    2.3930    9.6830 C.3       9 GLL5        0.0000 
     56 CA        -11.6440    5.6180   10.1300 C.3       6 GLP5        0.0000 
     57 CA        -11.1429    1.6105    8.3229 C.3       3 GLC5        0.0000 
     58 CA        -10.5680    1.0330    6.6200 C.3       6 GLP5        0.0000 
     59 CA        -13.3195    0.8792    9.4012 C.3       3 GLC5        0.0000 
     60 CA        -15.9010    2.6570   10.8120 C.3       3 GLC5        0.0000 
     61 CA        -17.9260    2.4390   10.7860 C.3       6 GLP5        0.0000 
     62 CA        -13.2305    4.7765   13.3902 C.3       3 GLC5        0.0000 
     63 CA        -12.9650    2.6530   12.4230 C.3       9 GLL5        0.0000 
     64 CA        -13.3590    6.8490   13.6280 C.3       6 GLP5        0.0000 
     65 CA        -12.5323    4.1910   10.8803 C.3       3 GLC5        0.0000 
     66 CA        -15.5155   -0.2358   14.6825 C.3       3 GLC5        0.0000 
     67 CA        -16.6608    0.8435   16.4733 C.3       3 GLC5        0.0000 
     68 CA        -16.8380    1.7220   14.8000 C.3       9 GLL5        0.0000 
     69 CA        -16.2160   -0.3860   17.6070 C.3       6 GLP5        0.0000 
     70 CA        -17.6603    0.7572   16.6830 C.3       3 GLC5        0.0000 
     71 CA        -18.7310    2.3070   16.1820 C.3       9 GLL5        0.0000 
     72 CA        -19.6494    5.2856   17.1026 C.3       3 GLC5        0.0000 
     73 CA        -18.6410    6.8860   16.4110 C.3       6 GLP5        0.0000 
     74 CA        -21.1024    2.1436   18.9616 C.3       3 GLC5        0.0000 
     75 CA        -19.3550    3.1370   17.2550 C.3       9 GLL5        0.0000 
     76 CA        -21.5470    0.6020   20.1290 C.3       6 GLP5        0.0000 
     77 CA        -18.8002    5.3617   17.6600 C.3       3 GLC5        0.0000 
     78 CA        -20.2533    2.2198   19.5190 C.3       3 GLC5        0.0000 
     79 CA        -17.1728    1.8363   12.4209 C.3       3 GLC5        0.0000 
@<TRIPOS>BOND
@<TRIPOS>SUBSTRUCTURE
     1 ALC1       22 GROUP        1 X    ALC  0     ROOT ALC X 1
     2 SEC2       32 GROUP        1 X    SEC  0     **** SEC X 2
     3 GLC5        1 GROUP        1 X    GLC  0     **** GLC X 6
     4 ALP1       24 GROUP        1 Y    ALP  0     ROOT ALP Y 8
     5 SEP2       34 GROUP        1 Y    SEP  0     **** SEP Y 9
     6 GLP5        3 GROUP        1 Y    GLP  0     **** GLP Y 13
     7 ALL1       23 GROUP        1 Z    ALL  0     ROOT ALL Z 15
     8 SEL2       33 GROUP        1 Z    SEL  0     **** SEL Z 16
     9 GLL5        2 GROUP        1 Z    GLL  0     **** GLL Z 20
@<TRIPOS>SET

