#    Name: 4fv9_E71_1_ligand
#    Modification time : Mon Mar 24 20:51:50 2014

@<TRIPOS>MOLECULE
4fv9_E71_1_ligand
   40    44     1     0     0
SMALL
NO_CHARGES


@<TRIPOS>ATOM
      1 F2        -10.2870    1.8230   10.1490 F         1 E71401      0.0000 
      2 C6        -11.5240    2.1430   10.5880 C.ar      1 E71401      0.0000 
      3 C1        -11.7390    2.2490   11.9420 C.ar      1 E71401      0.0000 
      4 F1        -10.7490    1.9060   12.7850 F         1 E71401      0.0000 
      5 C5        -12.5300    2.3930    9.6830 C.ar      1 E71401      0.0000 
      6 C4        -13.7660    2.8040   10.1580 C.ar      1 E71401      0.0000 
      7 C3        -13.9860    2.9460   11.5180 C.ar      1 E71401      0.0000 
      8 C2        -12.9650    2.6530   12.4230 C.ar      1 E71401      0.0000 
      9 C7        -13.2390    2.7550   13.8820 C.2       1 E71401      0.0000 
     10 C9        -14.3360    2.2890   14.5820 C.2       1 E71401      0.0000 
     11 O         -14.1720    2.6130   15.8820 O.3       1 E71401      0.0000 
     12 N1        -12.9500    3.3070   16.0490 N.2       1 E71401      0.0000 
     13 C8        -12.4340    3.3660   14.8550 C.2       1 E71401      0.0000 
     14 C10       -15.5260    1.6010   14.2040 C.2       1 E71401      0.0000 
     15 C16       -15.6570    0.7080   13.1630 C.2       1 E71401      0.0000 
     16 N3        -16.9520    0.2740   13.0720 N.pl3     1 E71401      0.0000 
     17 C15       -17.6570    0.9030   14.0560 C.ar      1 E71401      0.0000 
     18 C11       -16.8380    1.7220   14.8000 C.ar      1 E71401      0.0000 
     19 N2        -18.9710    0.7960   14.3110 N.ar      1 E71401      0.0000 
     20 C14       -19.4780    1.4940   15.3360 C.ar      1 E71401      0.0000 
     21 C13       -18.7310    2.3070   16.1820 C.ar      1 E71401      0.0000 
     22 C12       -17.3730    2.4240   15.8790 C.ar      1 E71401      0.0000 
     23 C17       -19.3550    3.1370   17.2550 C.ar      1 E71401      0.0000 
     24 C21       -20.7180    3.4340   17.2520 C.ar      1 E71401      0.0000 
     25 C20       -21.2790    4.0850   18.3350 C.ar      1 E71401      0.0000 
     26 N4        -20.5880    4.4580   19.4160 N.ar      1 E71401      0.0000 
     27 C19       -19.2840    4.1630   19.4260 C.ar      1 E71401      0.0000 
     28 C18       -18.6350    3.5120   18.3920 C.ar      1 E71401      0.0000 
     29 H         -12.3739    2.2793    8.6790 H         1 E71401      0.0000 
     30 H         -14.5295    3.0060    9.4909 H         1 E71401      0.0000 
     31 H         -14.8989    3.2666   11.8652 H         1 E71401      0.0000 
     32 H         -11.5679    3.7860   14.6048 H         1 E71401      0.0000 
     33 H         -14.9339    0.4305   12.5821 H         1 E71401      0.0000 
     34 H         -17.2935   -0.3492   12.4403 H         1 E71401      0.0000 
     35 H         -20.5262    1.4359   15.5343 H         1 E71401      0.0000 
     36 H         -16.7702    3.0265   16.4507 H         1 E71401      0.0000 
     37 H         -21.2969    3.1681   16.4469 H         1 E71401      0.0000 
     38 H         -22.3222    4.2922   18.2865 H         1 E71401      0.0000 
     39 H         -18.6947    4.4367   20.2693 H         1 E71401      0.0000 
     40 H         -17.6333    3.3036   18.4539 H         1 E71401      0.0000 
@<TRIPOS>BOND
     1    2    1 1    
     2    3    2 ar   
     3    5    2 ar   
     4    4    3 1    
     5    8    3 ar   
     6    6    5 ar   
     7   29    5 1    
     8    7    6 ar   
     9   30    6 1    
    10    8    7 ar   
    11   31    7 1    
    12    9    8 1    
    13   10    9 2    
    14   13    9 1    
    15   11   10 1    
    16   14   10 1    
    17   12   11 1    
    18   13   12 2    
    19   32   13 1    
    20   15   14 2    
    21   18   14 1    
    22   16   15 1    
    23   33   15 1    
    24   17   16 1    
    25   34   16 1    
    26   18   17 ar   
    27   19   17 ar   
    28   22   18 ar   
    29   20   19 ar   
    30   21   20 ar   
    31   35   20 1    
    32   22   21 ar   
    33   23   21 1    
    34   36   22 1    
    35   24   23 ar   
    36   28   23 ar   
    37   25   24 ar   
    38   37   24 1    
    39   26   25 ar   
    40   38   25 1    
    41   27   26 ar   
    42   28   27 ar   
    43   39   27 1    
    44   40   28 1    
@<TRIPOS>SUBSTRUCTURE
     1 E71401      1 GROUP   
@<TRIPOS>SET

