#    Name: 1ie8_KH1_1_INTS_M
#    Modification time : Tue Mar 25 06:58:17 2014

@<TRIPOS>MOLECULE
1ie8_KH1_1_INTS_M
  130     0     9     0     0
SMALL
NO_CHARGES


@<TRIPOS>ATOM
      1 N          17.8825   16.9535   34.6605 N.am      2 SEC2        0.0000 
      2 N          16.9440   17.9210   34.2590 N.am      8 SEL2        0.0000 
      3 N          18.8210   15.9860   35.0620 N.am      5 SEP2        0.0000 
      4 O          17.8135   18.7870   33.5500 O.2       1 ALC1        0.0000 
      5 O          16.9440   17.9210   34.2590 O.2       7 ALL1        0.0000 
      6 O          18.6830   19.6530   32.8410 O.2       4 ALP1        0.0000 
      7 CA         14.3300   17.6425   37.0760 C.3       3 GLC5        0.0000 
      8 CA         14.1020   17.8690   35.1530 C.3       9 GLL5        0.0000 
      9 CA         14.5580   17.4160   38.9990 C.3       6 GLP5        0.0000 
     10 CA         15.5895   19.0195   35.9855 C.3       3 GLC5        0.0000 
     11 CA         17.0770   20.1700   36.8180 C.3       6 GLP5        0.0000 
     12 CA         16.0680   15.8920   35.4690 C.3       3 GLC5        0.0000 
     13 CA         14.8000   16.7630   34.2750 C.3       9 GLL5        0.0000 
     14 CA         17.3360   15.0210   36.6630 C.3       6 GLP5        0.0000 
     15 CA         17.1370   16.1390   34.6040 C.3       3 GLC5        0.0000 
     16 CA         15.8770   17.3800   33.4080 C.3       9 GLL5        0.0000 
     17 CA         18.3970   14.8980   35.8000 C.3       6 GLP5        0.0000 
     18 CA         17.0325   16.0520   32.6975 C.3       3 GLC5        0.0000 
     19 CA         18.1880   14.7240   31.9870 C.3       6 GLP5        0.0000 
     20 CA         14.7905   17.2320   30.9805 C.3       3 GLC5        0.0000 
     21 CA         15.2630   18.4950   32.5580 C.3       9 GLL5        0.0000 
     22 CA         14.3180   15.9690   29.4030 C.3       6 GLP5        0.0000 
     23 CA         13.3530   17.9280   31.9045 C.3       3 GLC5        0.0000 
     24 CA         11.4430   17.3610   31.2510 C.3       6 GLP5        0.0000 
     25 CA         15.4830   24.1100   33.5345 C.3       3 GLC5        0.0000 
     26 CA         13.8430   23.2090   33.2220 C.3       9 GLL5        0.0000 
     27 CA         17.1230   25.0110   33.8470 C.3       6 GLP5        0.0000 
     28 CA         15.7115   24.2070   32.1330 C.3       3 GLC5        0.0000 
     29 CA         14.1200   23.6120   31.8090 C.3       9 GLL5        0.0000 
     30 CA         17.3030   24.8020   32.4570 C.3       6 GLP5        0.0000 
     31 CA         12.5080   18.1850   32.7990 C.3       3 GLC5        0.0000 
     32 CA         13.5730   19.0090   34.3470 C.3       9 GLL5        0.0000 
     33 CA         11.5410   23.4805   29.7410 C.3       3 GLC5        0.0000 
     34 CA         12.7470   24.0440   31.1600 C.3       9 GLL5        0.0000 
     35 CA         10.3350   22.9170   28.3220 C.3       6 GLP5        0.0000 
     36 CA         12.1860   21.9260   30.8755 C.3       3 GLC5        0.0000 
     37 CA         11.6250   19.8080   30.5910 C.3       6 GLP5        0.0000 
     38 CA         10.7130   25.2040   30.1655 C.3       3 GLC5        0.0000 
     39 CA         12.0030   25.1160   31.9100 C.3       9 GLL5        0.0000 
     40 CA          9.4230   25.2920   28.4210 C.3       6 GLP5        0.0000 
     41 CA         12.2335   26.8040   31.1390 C.3       3 GLC5        0.0000 
     42 CA         12.4640   28.4920   30.3680 C.3       6 GLP5        0.0000 
     43 CA         14.9050   25.2410   34.1795 C.3       3 GLC5        0.0000 
     44 CA         13.1510   24.2690   33.9860 C.3       9 GLL5        0.0000 
     45 CA         16.6590   26.2130   34.3730 C.3       6 GLP5        0.0000 
     46 CA         14.4785   22.6855   35.8950 C.3       3 GLC5        0.0000 
     47 CA         12.8300   24.0930   35.4880 C.3       9 GLL5        0.0000 
     48 CA         16.1270   21.2780   36.3020 C.3       6 GLP5        0.0000 
     49 CA         12.1700   25.2390   37.7960 C.3       3 GLC5        0.0000 
     50 CA         11.6650   25.1090   35.7770 C.3       9 GLL5        0.0000 
     51 CA         12.6750   25.3690   39.8150 C.3       6 GLP5        0.0000 
     52 CA          9.2695   22.5015   33.6770 C.3       3 GLC5        0.0000 
     53 CA         10.7680   23.4340   33.3720 C.3       9 GLL5        0.0000 
     54 CA          7.7710   21.5690   33.9820 C.3       6 GLP5        0.0000 
     55 CA         11.5155   19.1005   32.8065 C.3       3 GLC5        0.0000 
     56 CA         12.3080   19.4900   34.4490 C.3       9 GLL5        0.0000 
     57 CA         10.7230   18.7110   31.1640 C.3       6 GLP5        0.0000 
     58 CA         11.0775   18.0365   35.2925 C.3       3 GLC5        0.0000 
     59 CA          9.8470   16.5830   36.1360 C.3       6 GLP5        0.0000 
     60 CA         11.6915   20.4160   36.0050 C.3       3 GLC5        0.0000 
     61 CA         11.0750   21.3420   37.5610 C.3       6 GLP5        0.0000 
     62 N          13.1400   15.9595   36.6455 N.am      2 SEC2        0.0000 
     63 N          13.0820   17.2600   35.9510 N.am      8 SEL2        0.0000 
     64 N          13.1980   14.6590   37.3400 N.am      5 SEP2        0.0000 
     65 O          11.8480   16.9150   35.4470 O.2       1 ALC1        0.0000 
     66 O          13.0820   17.2600   35.9510 O.2       7 ALL1        0.0000 
     67 O          10.6140   16.5700   34.9430 O.2       4 ALP1        0.0000 
     68 CA          8.8300   25.6860   30.4395 C.3       3 GLC5        0.0000 
     69 CA          8.2370   26.0800   32.4580 C.3       9 GLL5        0.0000 
     70 CA          9.3830   27.9220   31.9395 C.3       3 GLC5        0.0000 
     71 CA         10.5290   29.7640   31.4210 C.3       6 GLP5        0.0000 
     72 CA          6.7370   27.1900   35.5415 C.3       3 GLC5        0.0000 
     73 CA          7.2510   26.3070   33.5960 C.3       9 GLL5        0.0000 
     74 CA          6.2230   28.0730   37.4870 C.3       6 GLP5        0.0000 
     75 N           5.1655   28.0255   34.1810 N.am      2 SEC2        0.0000 
     76 N           4.6450   26.7630   34.5930 N.am      8 SEL2        0.0000 
     77 N           5.6860   29.2880   33.7690 N.am      5 SEP2        0.0000 
     78 N           4.9695   26.9465   35.8510 N.am      2 SEC2        0.0000 
     79 N           5.2940   27.1300   37.1090 N.am      5 SEP2        0.0000 
     80 CA          5.0460   22.6430   34.9280 C.3       3 GLC5        0.0000 
     81 CA          4.0380   24.5230   34.2420 C.3       9 GLL5        0.0000 
     82 CA          6.0540   20.7630   35.6140 C.3       6 GLP5        0.0000 
     83 CA          3.6835   23.6390   36.2015 C.3       3 GLC5        0.0000 
     84 CA          3.3290   22.7550   38.1610 C.3       6 GLP5        0.0000 
     85 CA         10.1530   28.6985   33.1820 C.3       3 GLC5        0.0000 
     86 CA          9.7770   27.6330   34.9430 C.3       9 GLL5        0.0000 
     87 CA          8.1720   28.6865   33.8800 C.3       3 GLC5        0.0000 
     88 CA          6.5670   29.7400   32.8170 C.3       6 GLP5        0.0000 
     89 CA          9.3275   29.3395   35.6680 C.3       3 GLC5        0.0000 
     90 CA          8.8780   31.0460   36.3930 C.3       6 GLP5        0.0000 
     91 CA         11.7915   28.0985   35.3610 C.3       3 GLC5        0.0000 
     92 CA         13.8060   28.5640   35.7790 C.3       6 GLP5        0.0000 
     93 CA          8.0000   27.8530   36.2150 C.3       3 GLC5        0.0000 
     94 CA          6.9600   23.4405   33.6510 C.3       3 GLC5        0.0000 
     95 CA          6.1490   25.3120   33.3200 C.3       9 GLL5        0.0000 
     96 CA          4.2195   22.1295   31.9000 C.3       3 GLC5        0.0000 
     97 CA          4.2340   23.2360   33.3830 C.3       9 GLL5        0.0000 
     98 CA          4.2050   21.0230   30.4170 C.3       6 GLP5        0.0000 
     99 CA          5.4305   21.9045   33.8045 C.3       3 GLC5        0.0000 
    100 CA          6.6270   20.5730   34.2260 C.3       6 GLP5        0.0000 
    101 CA          5.5425   27.7075   30.0620 C.3       3 GLC5        0.0000 
    102 CA          4.5120   27.5550   31.8300 C.3       9 GLL5        0.0000 
    103 CA          6.5730   27.8600   28.2940 C.3       6 GLP5        0.0000 
    104 CA         14.6723   16.0902   32.1363 C.3       3 GLC5        0.0000 
    105 CA         14.0060   15.1090   30.4310 C.3       6 GLP5        0.0000 
    106 CA         17.6175   18.3377   32.7125 C.3       3 GLC5        0.0000 
    107 CA         19.6650   18.7380   32.4420 C.3       6 GLP5        0.0000 
    108 CA         16.4955   18.0467   31.2990 C.3       3 GLC5        0.0000 
    109 CA         17.4210   18.1560   29.6150 C.3       6 GLP5        0.0000 
    110 CA         13.1150   20.0095   31.8990 C.3       3 GLC5        0.0000 
    111 CA         14.5160   19.5510   33.3460 C.3       9 GLL5        0.0000 
    112 CA         16.1292   22.1785   33.4865 C.3       3 GLC5        0.0000 
    113 CA         14.6940   20.8710   33.0680 C.3       9 GLL5        0.0000 
    114 CA         17.8650   22.9160   33.5590 C.3       6 GLP5        0.0000 
    115 CA         15.0475   21.9440   34.8965 C.3       3 GLC5        0.0000 
    116 CA         14.0930   22.0110   33.7600 C.3       9 GLL5        0.0000 
    117 CA         14.3547   23.8330   29.7353 C.3       3 GLC5        0.0000 
    118 CA         15.2760   23.8380   27.9860 C.3       6 GLP5        0.0000 
    119 CA         15.1080   20.4440   35.0395 C.3       3 GLC5        0.0000 
    120 CA         11.6612   22.9715   36.5968 C.3       3 GLC5        0.0000 
    121 CA         12.6502   26.9905   35.4235 C.3       3 GLC5        0.0000 
    122 CA          3.5942   26.3308   30.6908 C.3       3 GLC5        0.0000 
    123 CA          2.9640   25.7400   29.2270 C.3       6 GLP5        0.0000 
    124 CA          2.8272   27.9338   31.8792 C.3       3 GLC5        0.0000 
    125 CA          3.9370   26.2880   32.4790 C.3       9 GLL5        0.0000 
    126 CA          1.4300   28.9460   31.6040 C.3       6 GLP5        0.0000 
    127 CA          2.4595   22.9348   34.3367 C.3       3 GLC5        0.0000 
    128 CA          0.7830   21.9900   34.8610 C.3       6 GLP5        0.0000 
    129 CA          6.7568   27.7464   32.9952 C.3       3 GLC5        0.0000 
    130 CA          5.4934   28.2611   32.6307 C.3       3 GLC5        0.0000 
@<TRIPOS>BOND
@<TRIPOS>SUBSTRUCTURE
     1 ALC1        4 GROUP        1 X    ALC  0     ROOT ALC X 1
     2 SEC2        1 GROUP        1 X    SEC  0     **** SEC X 2
     3 GLC5        7 GROUP        1 X    GLC  0     **** GLC X 6
     4 ALP1        6 GROUP        1 Y    ALP  0     ROOT ALP Y 8
     5 SEP2        3 GROUP        1 Y    SEP  0     **** SEP Y 9
     6 GLP5        9 GROUP        1 Y    GLP  0     **** GLP Y 13
     7 ALL1        5 GROUP        1 Z    ALL  0     ROOT ALL Z 15
     8 SEL2        2 GROUP        1 Z    SEL  0     **** SEL Z 16
     9 GLL5        8 GROUP        1 Z    GLL  0     **** GLL Z 20
@<TRIPOS>SET

