#    Name: 1ie8_KH1_1_ligand
#    Modification time : Tue Mar 25 06:58:17 2014

@<TRIPOS>MOLECULE
1ie8_KH1_1_ligand
   79    81     1     0     0
SMALL
NO_CHARGES


@<TRIPOS>ATOM
      1 O2         16.9440   17.9210   34.2590 O.3       1 KH1500      0.0000 
      2 C1         14.1020   17.8690   35.1530 C.3       1 KH1500      0.0000 
      3 C2         14.8000   16.7630   34.2750 C.3       1 KH1500      0.0000 
      4 C3         15.8770   17.3800   33.4080 C.3       1 KH1500      0.0000 
      5 C4         15.2630   18.4950   32.5580 C.3       1 KH1500      0.0000 
      6 C5         14.5160   19.5510   33.3460 C.2       1 KH1500      0.0000 
      7 C6         14.6940   20.8710   33.0680 C.2       1 KH1500      0.0000 
      8 C7         14.0930   22.0110   33.7600 C.2       1 KH1500      0.0000 
      9 C8         13.8430   23.2090   33.2220 C.2       1 KH1500      0.0000 
     10 C9         14.1200   23.6120   31.8090 C.3       1 KH1500      0.0000 
     11 C10        13.5730   19.0090   34.3470 C.2       1 KH1500      0.0000 
     12 C11        12.7470   24.0440   31.1600 C.3       1 KH1500      0.0000 
     13 C12        12.0030   25.1160   31.9100 C.3       1 KH1500      0.0000 
     14 C13        11.7450   24.6650   33.3610 C.3       1 KH1500      0.0000 
     15 C14        13.1510   24.2690   33.9860 C.3       1 KH1500      0.0000 
     16 C15        12.8300   24.0930   35.4880 C.3       1 KH1500      0.0000 
     17 C16        11.6650   25.1090   35.7770 C.3       1 KH1500      0.0000 
     18 C17        11.3240   25.7250   34.3590 C.3       1 KH1500      0.0000 
     19 C18        10.7680   23.4340   33.3720 C.3       1 KH1500      0.0000 
     20 C19        12.3080   19.4900   34.4490 C.2       1 KH1500      0.0000 
     21 O1         13.0820   17.2600   35.9510 O.3       1 KH1500      0.0000 
     22 C20         9.8690   26.2350   34.2630 C.3       1 KH1500      0.0000 
     23 O4          9.5990   26.3540   32.8840 O.3       1 KH1500      0.0000 
     24 C22         8.2370   26.0800   32.4580 C.3       1 KH1500      0.0000 
     25 C23         7.2510   26.3070   33.5960 C.3       1 KH1500      0.0000 
     26 C25         4.7180   25.7310   33.6390 C.3       1 KH1500      0.0000 
     27 O3          4.6450   26.7630   34.5930 O.3       1 KH1500      0.0000 
     28 C26         3.9370   26.2880   32.4790 C.3       1 KH1500      0.0000 
     29 C27         4.0380   24.5230   34.2420 C.3       1 KH1500      0.0000 
     30 C21         9.7770   27.6330   34.9430 C.3       1 KH1500      0.0000 
     31 C24         6.1490   25.3120   33.3200 C.3       1 KH1500      0.0000 
     32 C28         4.2340   23.2360   33.3830 C.3       1 KH1500      0.0000 
     33 C29         4.5120   27.5550   31.8300 C.3       1 KH1500      0.0000 
     34 H          14.9001   18.2558   35.8196 H         1 KH1500      0.0000 
     35 H          14.0402   16.2971   33.6589 H         1 KH1500      0.0000 
     36 H          15.2296   16.0273   34.9444 H         1 KH1500      0.0000 
     37 H          16.2658   16.6256   32.7494 H         1 KH1500      0.0000 
     38 H          14.5763   18.0380   31.8205 H         1 KH1500      0.0000 
     39 H          16.0699   18.9788   31.9756 H         1 KH1500      0.0000 
     40 H          15.3419   21.1460   32.2557 H         1 KH1500      0.0000 
     41 H          13.8501   21.8208   34.7825 H         1 KH1500      0.0000 
     42 H          14.5068   22.7881   31.2397 H         1 KH1500      0.0000 
     43 H          14.7814   24.4566   31.7695 H         1 KH1500      0.0000 
     44 H          12.1245   23.1366   31.0761 H         1 KH1500      0.0000 
     45 H          12.9623   24.3794   30.1309 H         1 KH1500      0.0000 
     46 H          11.0469   25.3114   31.4317 H         1 KH1500      0.0000 
     47 H          12.5873   26.0321   31.9296 H         1 KH1500      0.0000 
     48 H          13.7259   25.2369   33.9158 H         1 KH1500      0.0000 
     49 H          13.6710   24.3614   36.0711 H         1 KH1500      0.0000 
     50 H          12.4811   23.1110   35.6703 H         1 KH1500      0.0000 
     51 H          12.0146   25.8732   36.4081 H         1 KH1500      0.0000 
     52 H          10.8259   24.5876   36.1355 H         1 KH1500      0.0000 
     53 H          12.0131   26.5792   34.2512 H         1 KH1500      0.0000 
     54 H           9.2398   25.5602   34.7596 H         1 KH1500      0.0000 
     55 H           8.1336   25.0401   32.1178 H         1 KH1500      0.0000 
     56 H           7.9489   26.7308   31.6205 H         1 KH1500      0.0000 
     57 H           6.8708   27.2982   33.5476 H         1 KH1500      0.0000 
     58 H           7.7193   26.0874   34.5243 H         1 KH1500      0.0000 
     59 H           2.8970   26.5086   32.8076 H         1 KH1500      0.0000 
     60 H           3.8417   25.5080   31.6911 H         1 KH1500      0.0000 
     61 H           2.9633   24.7074   34.3369 H         1 KH1500      0.0000 
     62 H           4.4390   24.3283   35.2416 H         1 KH1500      0.0000 
     63 H           6.3696   24.3648   33.8790 H         1 KH1500      0.0000 
     64 H           6.1942   25.0139   32.2395 H         1 KH1500      0.0000 
     65 H          11.1451   22.6560   32.8695 H         1 KH1500      0.0000 
     66 H          10.5787   23.1184   34.3018 H         1 KH1500      0.0000 
     67 H           9.8875   23.6549   32.9525 H         1 KH1500      0.0000 
     68 H          10.0378   27.5947   35.9076 H         1 KH1500      0.0000 
     69 H          10.3781   28.3002   34.5031 H         1 KH1500      0.0000 
     70 H           8.8493   28.0043   34.9047 H         1 KH1500      0.0000 
     71 H           5.2007   23.0011   33.2811 H         1 KH1500      0.0000 
     72 H           3.7814   22.4438   33.7923 H         1 KH1500      0.0000 
     73 H           3.8599   23.3437   32.4619 H         1 KH1500      0.0000 
     74 H           5.4303   27.4014   31.4651 H         1 KH1500      0.0000 
     75 H           3.9445   27.8737   31.0708 H         1 KH1500      0.0000 
     76 H           4.5785   28.3094   32.4831 H         1 KH1500      0.0000 
     77 H          17.4189   18.5884   33.6855 H         1 KH1500      0.0000 
     78 H          12.2990   17.1591   35.3372 H         1 KH1500      0.0000 
     79 H           4.0850   27.5477   34.8591 H         1 KH1500      0.0000 
@<TRIPOS>BOND
     1    4    1 1    
     2   77    1 1    
     3    3    2 1    
     4   11    2 1    
     5   21    2 1    
     6   34    2 1    
     7    4    3 1    
     8   35    3 1    
     9   36    3 1    
    10    5    4 1    
    11   37    4 1    
    12    6    5 1    
    13   38    5 1    
    14   39    5 1    
    15    7    6 2    
    16   11    6 1    
    17    8    7 1    
    18   40    7 1    
    19    9    8 2    
    20   41    8 1    
    21   10    9 1    
    22   15    9 1    
    23   12   10 1    
    24   42   10 1    
    25   43   10 1    
    26   20   11 2    
    27   13   12 1    
    28   44   12 1    
    29   45   12 1    
    30   14   13 1    
    31   46   13 1    
    32   47   13 1    
    33   15   14 1    
    34   18   14 1    
    35   19   14 1    
    36   16   15 1    
    37   48   15 1    
    38   17   16 1    
    39   49   16 1    
    40   50   16 1    
    41   18   17 1    
    42   51   17 1    
    43   52   17 1    
    44   22   18 1    
    45   53   18 1    
    46   65   19 1    
    47   66   19 1    
    48   67   19 1    
    49   78   21 1    
    50   23   22 1    
    51   30   22 1    
    52   54   22 1    
    53   24   23 1    
    54   25   24 1    
    55   55   24 1    
    56   56   24 1    
    57   31   25 1    
    58   57   25 1    
    59   58   25 1    
    60   27   26 1    
    61   28   26 1    
    62   29   26 1    
    63   31   26 1    
    64   79   27 1    
    65   33   28 1    
    66   59   28 1    
    67   60   28 1    
    68   32   29 1    
    69   61   29 1    
    70   62   29 1    
    71   68   30 1    
    72   69   30 1    
    73   70   30 1    
    74   63   31 1    
    75   64   31 1    
    76   71   32 1    
    77   72   32 1    
    78   73   32 1    
    79   74   33 1    
    80   75   33 1    
    81   76   33 1    
@<TRIPOS>SUBSTRUCTURE
     1 KH1500      1 GROUP   
@<TRIPOS>SET

