#    Name: 2qf6_A56_1_INTS_M
#    Modification time : Mon Mar 24 21:53:29 2014

@<TRIPOS>MOLECULE
2qf6_A56_1_INTS_M
   46     0     6     0     0
SMALL
NO_CHARGES


@<TRIPOS>ATOM
      1 CA         16.7020   38.9285    8.8745 C.3       2 GLC5        0.0000 
      2 CA         18.3500   38.1660    8.6320 C.3       6 GLL5        0.0000 
      3 CA         15.0540   39.6910    9.1170 C.3       4 GLP5        0.0000 
      4 CA         16.3520   38.5835    7.6170 C.3       2 GLC5        0.0000 
      5 CA         18.2110   38.3420    7.2170 C.3       6 GLL5        0.0000 
      6 CA         14.4930   38.8250    8.0170 C.3       4 GLP5        0.0000 
      7 CA         17.9310   34.0635    8.9785 C.3       2 GLC5        0.0000 
      8 CA         18.7510   35.7610    8.2650 C.3       6 GLL5        0.0000 
      9 CA         17.1110   32.3660    9.6920 C.3       4 GLP5        0.0000 
     10 CA         16.4980   39.6580    7.8900 C.3       2 GLC5        0.0000 
     11 CA         17.9420   39.6250    6.6630 C.3       6 GLL5        0.0000 
     12 CA         16.1495   39.3030    6.6390 C.3       2 GLC5        0.0000 
     13 CA         17.8060   39.7810    5.2610 C.3       6 GLL5        0.0000 
     14 CA         18.7290   41.9515    5.9725 C.3       2 GLC5        0.0000 
     15 CA         17.4550   41.5280    4.6950 C.3       6 GLL5        0.0000 
     16 CA         20.0030   42.3750    7.2500 C.3       4 GLP5        0.0000 
     17 CA         16.0160   42.9085    4.5235 C.3       2 GLC5        0.0000 
     18 CA         14.5770   44.2890    4.3520 C.3       4 GLP5        0.0000 
     19 CA         16.5680   42.2470    2.7825 C.3       2 GLC5        0.0000 
     20 CA         15.6810   42.9660    0.8700 C.3       4 GLP5        0.0000 
     21 CA         18.3495   43.1920    3.8720 C.3       2 GLC5        0.0000 
     22 CA         19.2440   44.8560    3.0490 C.3       4 GLP5        0.0000 
     23 CA         19.9850   38.7970    2.4565 C.3       2 GLC5        0.0000 
     24 CA         17.7950   38.7780    2.8950 C.3       6 GLL5        0.0000 
     25 CA         22.1750   38.8160    2.0180 C.3       4 GLP5        0.0000 
     26 CA         20.2235   39.2575    1.4160 C.3       2 GLC5        0.0000 
     27 CA         18.2720   39.6990    0.8140 C.3       6 GLL5        0.0000 
     28 CA         18.3815   38.6585   -0.8845 C.3       2 GLC5        0.0000 
     29 CA         18.4910   37.6180   -2.5830 C.3       4 GLP5        0.0000 
     30 CA         17.0590   41.1125    0.1225 C.3       2 GLC5        0.0000 
     31 CA         15.8460   42.5260   -0.5690 C.3       4 GLP5        0.0000 
     32 CA         17.6615   37.8200   -0.8310 C.3       2 GLC5        0.0000 
     33 CA         16.8320   38.0220    0.9210 C.3       6 GLL5        0.0000 
     34 CA         14.8745   38.0250    1.5165 C.3       2 GLC5        0.0000 
     35 CA         12.9170   38.0280    2.1120 C.3       4 GLP5        0.0000 
     36 O          19.0940   41.2765   -1.0800 O.2       1 ALC1        0.0000 
     37 O          18.9590   40.6160    0.1300 O.2       5 ALL1        0.0000 
     38 O          19.2290   41.9370   -2.2900 O.2       3 ALP1        0.0000 
     39 CA         19.8535   38.8978    8.4258 C.3       2 GLC5        0.0000 
     40 CA         21.2220   40.2740    7.9600 C.3       4 GLP5        0.0000 
     41 CA         15.6777   40.4513    4.2280 C.3       2 GLC5        0.0000 
     42 CA         13.7250   40.2480    3.4780 C.3       4 GLP5        0.0000 
     43 CA         19.5816   39.8281    7.0303 C.3       2 GLC5        0.0000 
     44 CA         15.7287   38.5990    3.6720 C.3       2 GLC5        0.0000 
     45 CA         17.9300   38.6800    4.3750 C.3       6 GLL5        0.0000 
     46 CA         13.5950   38.4690    3.7090 C.3       4 GLP5        0.0000 
@<TRIPOS>BOND
@<TRIPOS>SUBSTRUCTURE
     1 ALC1       36 GROUP        1 X    ALC  0     ROOT ALC X 1
     2 GLC5        1 GROUP        1 X    GLC  0     **** GLC X 6
     3 ALP1       38 GROUP        1 Y    ALP  0     ROOT ALP Y 8
     4 GLP5        3 GROUP        1 Y    GLP  0     **** GLP Y 13
     5 ALL1       37 GROUP        1 Z    ALL  0     ROOT ALL Z 15
     6 GLL5        2 GROUP        1 Z    GLL  0     **** GLL Z 20
@<TRIPOS>SET

