#    Name: 2qf6_A56_1_ligand
#    Modification time : Mon Mar 24 21:53:29 2014

@<TRIPOS>MOLECULE
2qf6_A56_1_ligand
   29    31     1     0     0
SMALL
NO_CHARGES


@<TRIPOS>ATOM
      1 C1         18.6200   36.8770    9.1510 C.ar      1 A56256      0.0000 
      2 C2         18.3500   38.1660    8.6320 C.ar      1 A56256      0.0000 
      3 C3         18.2110   38.3420    7.2170 C.ar      1 A56256      0.0000 
      4 C4         18.3410   37.2110    6.3240 C.ar      1 A56256      0.0000 
      5 C5         18.6130   35.9200    6.8580 C.ar      1 A56256      0.0000 
      6 C6         18.7510   35.7610    8.2650 C.ar      1 A56256      0.0000 
      7 C7         17.9420   39.6250    6.6630 C.ar      1 A56256      0.0000 
      8 C8         17.8060   39.7810    5.2610 C.ar      1 A56256      0.0000 
      9 C9         17.9300   38.6800    4.3750 C.ar      1 A56256      0.0000 
     10 C10        18.1980   37.3930    4.9100 C.ar      1 A56256      0.0000 
     11 BR1        17.4550   41.5280    4.6950 Br        1 A56256      0.0000 
     12 C12        17.7950   38.7780    2.8950 C.ar      1 A56256      0.0000 
     13 N13        18.4670   39.6890    2.1290 N.ar      1 A56256      0.0000 
     14 C14        18.2720   39.6990    0.8140 C.ar      1 A56256      0.0000 
     15 N15        17.4610   38.8880    0.1250 N.ar      1 A56256      0.0000 
     16 C16        16.8320   38.0220    0.9210 C.ar      1 A56256      0.0000 
     17 N17        16.9480   37.9250    2.2400 N.ar      1 A56256      0.0000 
     18 N18        15.9900   37.1520    0.3550 N.pl3     1 A56256      0.0000 
     19 N19        18.9590   40.6160    0.1300 N.pl3     1 A56256      0.0000 
     20 H          18.7222   36.7368   10.1538 H         1 A56256      0.0000 
     21 H          18.2544   38.9633    9.2504 H         1 A56256      0.0000 
     22 H          18.7074   35.1216    6.2414 H         1 A56256      0.0000 
     23 H          18.9473   34.8341    8.6536 H         1 A56256      0.0000 
     24 H          17.8473   40.4323    7.2785 H         1 A56256      0.0000 
     25 H          18.2903   36.5896    4.2895 H         1 A56256      0.0000 
     26 H          15.8853   37.2227   -0.6370 H         1 A56256      0.0000 
     27 H          15.5403   36.5084    0.9743 H         1 A56256      0.0000 
     28 H          19.5546   41.2119    0.6687 H         1 A56256      0.0000 
     29 H          18.8164   40.6249   -0.8597 H         1 A56256      0.0000 
@<TRIPOS>BOND
     1    2    1 ar   
     2    6    1 ar   
     3   20    1 1    
     4    3    2 ar   
     5   21    2 1    
     6    4    3 ar   
     7    7    3 ar   
     8    5    4 ar   
     9   10    4 ar   
    10    6    5 ar   
    11   22    5 1    
    12   23    6 1    
    13    8    7 ar   
    14   24    7 1    
    15    9    8 ar   
    16   11    8 1    
    17   10    9 ar   
    18   12    9 1    
    19   25   10 1    
    20   13   12 ar   
    21   17   12 ar   
    22   14   13 ar   
    23   15   14 ar   
    24   19   14 1    
    25   16   15 ar   
    26   17   16 ar   
    27   18   16 1    
    28   26   18 1    
    29   27   18 1    
    30   28   19 1    
    31   29   19 1    
@<TRIPOS>SUBSTRUCTURE
     1 A56256      1 GROUP   
@<TRIPOS>SET

