#    Name: 3fej_CTM_1_INTS_M
#    Modification time : Tue Mar 25 03:51:46 2014

@<TRIPOS>MOLECULE
3fej_CTM_1_INTS_M
   91     0     6     0     0
SMALL
NO_CHARGES


@<TRIPOS>ATOM
      1 N           7.3055   23.1435   18.1330 N.am      1 SEC2        0.0000 
      2 N           6.7330   24.1690   17.1050 N.am      5 SEL2        0.0000 
      3 N           7.8780   22.1180   19.1610 N.am      3 SEP2        0.0000 
      4 CA          7.0165   26.7670   13.6410 C.3       2 GLC5        0.0000 
      5 CA          7.6150   26.0030   15.5000 C.3       6 GLL5        0.0000 
      6 CA          6.4180   27.5310   11.7820 C.3       4 GLP5        0.0000 
      7 CA          9.2090   25.7360   14.0625 C.3       2 GLC5        0.0000 
      8 CA         10.8030   25.4690   12.6250 C.3       4 GLP5        0.0000 
      9 CA          8.6820   27.3850   14.5580 C.3       2 GLC5        0.0000 
     10 CA          9.7490   28.7670   13.6160 C.3       4 GLP5        0.0000 
     11 CA          7.5770   28.0850   18.0625 C.3       2 GLC5        0.0000 
     12 CA          7.4530   26.3440   17.1970 C.3       6 GLL5        0.0000 
     13 CA          7.7010   29.8260   18.9280 C.3       4 GLP5        0.0000 
     14 CA         -0.3590   28.5480   22.3285 C.3       2 GLC5        0.0000 
     15 CA          1.0520   28.1220   20.7880 C.3       6 GLL5        0.0000 
     16 CA         -1.7700   28.9740   23.8690 C.3       4 GLP5        0.0000 
     17 CA          2.0340   29.0615   22.1920 C.3       2 GLC5        0.0000 
     18 CA          3.0160   30.0010   23.5960 C.3       4 GLP5        0.0000 
     19 CA          5.6440   25.0740   15.3175 C.3       2 GLC5        0.0000 
     20 CA          6.8290   23.4120   14.7980 C.3       6 GLL5        0.0000 
     21 CA          4.4590   26.7360   15.8370 C.3       4 GLP5        0.0000 
     22 N          -0.7880   30.8165   19.6980 N.am      1 SEC2        0.0000 
     23 N          -1.5900   29.7030   19.9690 N.am      5 SEL2        0.0000 
     24 N           0.0140   31.9300   19.4270 N.am      3 SEP2        0.0000 
     25 N          -2.2610   30.3420   20.8035 N.am      1 SEC2        0.0000 
     26 N          -2.9320   30.9810   21.6380 N.am      3 SEP2        0.0000 
     27 CA          0.9165   25.4285   20.5610 C.3       2 GLC5        0.0000 
     28 CA          2.8340   26.3560   20.6780 C.3       6 GLL5        0.0000 
     29 CA         -1.0010   24.5010   20.4440 C.3       4 GLP5        0.0000 
     30 CA          2.6485   26.1900   22.6690 C.3       2 GLC5        0.0000 
     31 CA          2.4630   26.0240   24.6600 C.3       4 GLP5        0.0000 
     32 CA          6.7820   25.6210   12.6245 C.3       2 GLC5        0.0000 
     33 CA          7.1460   23.7110   13.4670 C.3       6 GLL5        0.0000 
     34 CA          7.1945   25.1580   21.0695 C.3       2 GLC5        0.0000 
     35 CA          6.7030   25.2430   19.3420 C.3       6 GLL5        0.0000 
     36 CA          7.6860   25.0730   22.7970 C.3       4 GLP5        0.0000 
     37 N          -1.7955   26.3945   20.9885 N.am      1 SEC2        0.0000 
     38 N          -2.0470   27.5760   20.4340 N.am      5 SEL2        0.0000 
     39 N          -1.5440   25.2130   21.5430 N.am      3 SEP2        0.0000 
     40 N          -2.4550   28.0720   21.7885 N.am      1 SEC2        0.0000 
     41 N          -2.8630   28.5680   23.1430 N.am      3 SEP2        0.0000 
     42 CA          4.6225   23.9845   20.0630 C.3       2 GLC5        0.0000 
     43 CA          4.1440   25.9470   20.4400 C.3       6 GLL5        0.0000 
     44 CA          5.1010   22.0220   19.6860 C.3       4 GLP5        0.0000 
     45 CA          5.9480   24.3615   11.4420 C.3       2 GLC5        0.0000 
     46 CA          6.9340   22.7730   12.4650 C.3       6 GLL5        0.0000 
     47 CA          4.9620   25.9500   10.4190 C.3       4 GLP5        0.0000 
     48 CA          4.3105   21.4570   12.2475 C.3       2 GLC5        0.0000 
     49 CA          6.1080   20.3430   11.5180 C.3       6 GLL5        0.0000 
     50 CA          2.5130   22.5710   12.9770 C.3       4 GLP5        0.0000 
     51 N           0.3040   30.4340   18.9820 N.am      1 SEC2        0.0000 
     52 N           0.5940   28.9380   18.5370 N.am      5 SEL2        0.0000 
     53 CA          3.0155   30.0195   21.6560 C.3       2 GLC5        0.0000 
     54 CA          3.0150   30.0380   19.7160 C.3       6 GLL5        0.0000 
     55 CA          3.7905   30.6985   17.9255 C.3       2 GLC5        0.0000 
     56 CA          4.5660   31.3590   16.1350 C.3       4 GLP5        0.0000 
     57 CA          3.8335   31.3000   20.7165 C.3       2 GLC5        0.0000 
     58 CA          4.6520   32.5620   21.7170 C.3       4 GLP5        0.0000 
     59 CA          1.2900   31.4040   20.0660 C.3       2 GLC5        0.0000 
     60 CA         -0.4350   32.7700   20.4160 C.3       4 GLP5        0.0000 
     61 CA         -1.1350   27.3850   16.1220 C.3       2 GLC5        0.0000 
     62 CA          0.1630   28.5100   17.2480 C.3       6 GLL5        0.0000 
     63 CA         -2.4330   26.2600   14.9960 C.3       4 GLP5        0.0000 
     64 CA          0.1360   30.3475   14.9045 C.3       2 GLC5        0.0000 
     65 CA          0.7000   29.4520   16.1700 C.3       6 GLL5        0.0000 
     66 CA         -0.4280   31.2430   13.6390 C.3       4 GLP5        0.0000 
     67 CA          2.6330   30.4055   16.1525 C.3       2 GLC5        0.0000 
     68 CA          5.9965   26.4548   16.0927 C.3       2 GLC5        0.0000 
     69 CA          5.6482   25.9952   17.2210 C.3       2 GLC5        0.0000 
     70 CA          6.9720   25.2660   17.8680 C.3       6 GLL5        0.0000 
     71 CA          5.9693   23.6382   19.1455 C.3       2 GLC5        0.0000 
     72 CA          2.8495   27.1917   18.2160 C.3       2 GLC5        0.0000 
     73 CA          2.4520   27.6830   20.4590 C.3       6 GLL5        0.0000 
     74 CA          2.7800   26.2400   16.2170 C.3       4 GLP5        0.0000 
     75 CA         -0.2080   26.3005   20.3122 C.3       2 GLC5        0.0000 
     76 CA          0.1180   28.0780   19.5730 C.3       6 GLL5        0.0000 
     77 CA          8.3190   22.3532   15.7125 C.3       2 GLC5        0.0000 
     78 CA          6.3110   22.1470   15.1080 C.3       6 GLL5        0.0000 
     79 CA         10.0680   21.9270   16.4720 C.3       4 GLP5        0.0000 
     80 CA          4.6717   27.1400   17.8505 C.3       2 GLC5        0.0000 
     81 CA          5.0730   26.8850   19.9860 C.3       6 GLL5        0.0000 
     82 CA          6.2927   28.6850   19.3960 C.3       2 GLC5        0.0000 
     83 CA          3.1345   26.1958   18.3880 C.3       2 GLC5        0.0000 
     84 CA          4.3588   22.1240   13.7930 C.3       2 GLC5        0.0000 
     85 CA          4.5907   22.3593   12.8010 C.3       2 GLC5        0.0000 
     86 CA          6.4030   21.5220   12.7850 C.3       6 GLL5        0.0000 
     87 CA          5.7911   27.1388   21.4300 C.3       2 GLC5        0.0000 
     88 CA          7.0680   27.5320   22.7080 C.3       4 GLP5        0.0000 
     89 CA          8.7344   23.4361   12.9404 C.3       2 GLC5        0.0000 
     90 CA         10.5080   23.7050   12.5820 C.3       4 GLP5        0.0000 
     91 CA          1.6057   27.6105   16.4630 C.3       2 GLC5        0.0000 
@<TRIPOS>BOND
@<TRIPOS>SUBSTRUCTURE
     1 SEC2        1 GROUP        1 X    SEC  0     ROOT SEC X 2
     2 GLC5        4 GROUP        1 X    GLC  0     **** GLC X 6
     3 SEP2        3 GROUP        1 Y    SEP  0     ROOT SEP Y 9
     4 GLP5        6 GROUP        1 Y    GLP  0     **** GLP Y 13
     5 SEL2        2 GROUP        1 Z    SEL  0     ROOT SEL Z 16
     6 GLL5        5 GROUP        1 Z    GLL  0     **** GLL Z 20
@<TRIPOS>SET

