#    Name: 3fej_CTM_1_ligand
#    Modification time : Tue Mar 25 03:51:46 2014

@<TRIPOS>MOLECULE
3fej_CTM_1_ligand
   50    52     1     0     0
SMALL
NO_CHARGES


@<TRIPOS>ATOM
      1 N1          6.7330   24.1690   17.1050 N.2       1 CTM1        0.0000 
      2 C2          7.0120   24.4000   15.8520 C.2       1 CTM1        0.0000 
      3 S3          7.6150   26.0030   15.5000 S.3       1 CTM1        0.0000 
      4 C4          6.9720   25.2660   17.8680 C.2       1 CTM1        0.0000 
      5 C5          7.4530   26.3440   17.1970 C.2       1 CTM1        0.0000 
      6 C6         -1.2690   28.4770   20.0010 C.2       1 CTM1        0.0000 
      7 C7          2.4520   27.6830   20.4590 C.ar      1 CTM1        0.0000 
      8 C8          1.0520   28.1220   20.7880 C.3       1 CTM1        0.0000 
      9 C9          6.8290   23.4120   14.7980 C.ar      1 CTM1        0.0000 
     10 C10         3.3860   28.6040   19.9710 C.ar      1 CTM1        0.0000 
     11 C11         0.1180   28.0780   19.5730 C.3       1 CTM1        0.0000 
     12 C12         4.6960   28.2030   19.7420 C.ar      1 CTM1        0.0000 
     13 O13        -1.5900   29.7030   19.9690 O.co2     1 CTM1        0.0000 
     14 C14         2.8340   26.3560   20.6780 C.ar      1 CTM1        0.0000 
     15 C15         7.1460   23.7110   13.4670 C.ar      1 CTM1        0.0000 
     16 C16         6.3110   22.1470   15.1080 C.ar      1 CTM1        0.0000 
     17 C17         6.7030   25.2430   19.3420 C.3       1 CTM1        0.0000 
     18 C18         5.0730   26.8850   19.9860 C.ar      1 CTM1        0.0000 
     19 O19         6.3890   26.5540   19.7850 O.3       1 CTM1        0.0000 
     20 O20        -2.0470   27.5760   20.4340 O.co2     1 CTM1        0.0000 
     21 C21         6.4030   21.5220   12.7850 C.ar      1 CTM1        0.0000 
     22 C22         4.1440   25.9470   20.4400 C.ar      1 CTM1        0.0000 
     23 C23         6.9340   22.7730   12.4650 C.ar      1 CTM1        0.0000 
     24 C24         6.0980   21.2070   14.1100 C.ar      1 CTM1        0.0000 
     25 CL25        6.1080   20.3430   11.5180 Cl        1 CTM1        0.0000 
     26 O26         0.5940   28.9380   18.5370 O.3       1 CTM1        0.0000 
     27 C27         3.0150   30.0380   19.7160 C.3       1 CTM1        0.0000 
     28 C28         0.1630   28.5100   17.2480 C.3       1 CTM1        0.0000 
     29 C29         0.7000   29.4520   16.1700 C.3       1 CTM1        0.0000 
     30 H           7.7120   27.2032   17.4182 H         1 CTM1        0.0000 
     31 H           1.0677   29.1484   21.1799 H         1 CTM1        0.0000 
     32 H           0.6354   27.4755   21.5728 H         1 CTM1        0.0000 
     33 H           0.0809   27.0441   19.2334 H         1 CTM1        0.0000 
     34 H           5.3882   28.8780   19.3924 H         1 CTM1        0.0000 
     35 H           2.1382   25.6760   21.0187 H         1 CTM1        0.0000 
     36 H           7.5389   24.6346   13.2349 H         1 CTM1        0.0000 
     37 H           6.0882   21.9189   16.0887 H         1 CTM1        0.0000 
     38 H           7.5935   24.8474   19.8500 H         1 CTM1        0.0000 
     39 H           5.8769   24.5437   19.5320 H         1 CTM1        0.0000 
     40 H           4.4216   24.9781   20.5945 H         1 CTM1        0.0000 
     41 H           7.1661   22.9958   11.4901 H         1 CTM1        0.0000 
     42 H           5.7177   20.2823   14.3415 H         1 CTM1        0.0000 
     43 H          -0.9325   28.5009   17.1661 H         1 CTM1        0.0000 
     44 H           0.5203   27.4980   17.0134 H         1 CTM1        0.0000 
     45 H           3.7907   30.5666   19.3712 H         1 CTM1        0.0000 
     46 H           2.2824   30.1175   19.0400 H         1 CTM1        0.0000 
     47 H           2.6969   30.4929   20.5478 H         1 CTM1        0.0000 
     48 H           1.6996   29.4808   16.1664 H         1 CTM1        0.0000 
     49 H           0.4115   29.1716   15.2545 H         1 CTM1        0.0000 
     50 H           0.3802   30.3900   16.3036 H         1 CTM1        0.0000 
@<TRIPOS>BOND
     1    2    1 2    
     2    4    1 1    
     3    3    2 1    
     4    9    2 1    
     5    5    3 1    
     6    5    4 2    
     7   17    4 1    
     8   30    5 1    
     9   11    6 1    
    10   13    6 ar   
    11   20    6 ar   
    12    8    7 1    
    13   10    7 ar   
    14   14    7 ar   
    15   11    8 1    
    16   31    8 1    
    17   32    8 1    
    18   15    9 ar   
    19   16    9 ar   
    20   12   10 ar   
    21   27   10 1    
    22   26   11 1    
    23   33   11 1    
    24   18   12 ar   
    25   34   12 1    
    26   22   14 ar   
    27   35   14 1    
    28   23   15 ar   
    29   36   15 1    
    30   24   16 ar   
    31   37   16 1    
    32   19   17 1    
    33   38   17 1    
    34   39   17 1    
    35   19   18 1    
    36   22   18 ar   
    37   23   21 ar   
    38   24   21 ar   
    39   25   21 1    
    40   40   22 1    
    41   41   23 1    
    42   42   24 1    
    43   28   26 1    
    44   45   27 1    
    45   46   27 1    
    46   47   27 1    
    47   29   28 1    
    48   43   28 1    
    49   44   28 1    
    50   48   29 1    
    51   49   29 1    
    52   50   29 1    
@<TRIPOS>SUBSTRUCTURE
     1 CTM1        1 GROUP   
@<TRIPOS>SET

