#    Name: 1jwt_BLI_1_INTS_M
#    Modification time : Tue Mar 25 09:31:21 2014

@<TRIPOS>MOLECULE
1jwt_BLI_1_INTS_M
   61     0    12     0     0
SMALL
NO_CHARGES


@<TRIPOS>ATOM
      1 N          15.5180  -13.2735   24.8510 N.am      2 SEC2        0.0000 
      2 N          16.3340  -13.9400   24.0230 N.am     10 SEL2        0.0000 
      3 N          14.7020  -12.6070   25.6790 N.am      6 SEP2        0.0000 
      4 CA         17.2730  -12.1660   23.2905 C.3       4 GLC5        0.0000 
      5 CA         17.1860  -12.8340   21.5380 C.3      12 GLL5        0.0000 
      6 CA         17.3600  -11.4980   25.0430 C.3       8 GLP5        0.0000 
      7 O          15.5920  -10.6625   21.7970 O.2       1 ALC1        0.0000 
      8 O          14.9840  -11.8570   20.8010 O.2       9 ALL1        0.0000 
      9 O          16.2000   -9.4680   22.7930 O.2       5 ALP1        0.0000 
     10 CA         21.4370  -14.0895   20.3155 C.3       4 GLC5        0.0000 
     11 CA         19.3810  -13.5080   20.6810 C.3      12 GLL5        0.0000 
     12 CA         23.4930  -14.6710   19.9500 C.3       8 GLP5        0.0000 
     13 CA         20.2805  -12.1435   21.9645 C.3       4 GLC5        0.0000 
     14 CA         21.1800  -10.7790   23.2480 C.3       8 GLP5        0.0000 
     15 CA         12.1810  -12.4335   18.7825 C.3       4 GLC5        0.0000 
     16 CA         13.5690  -11.9310   20.4640 C.3      12 GLL5        0.0000 
     17 CA         10.7930  -12.9360   17.1010 C.3       8 GLP5        0.0000 
     18 CA         12.6790  -13.2600   25.0145 C.3       4 GLC5        0.0000 
     19 CA         11.4820  -13.2180   23.3890 C.3      12 GLL5        0.0000 
     20 CA         13.8760  -13.3020   26.6400 C.3       8 GLP5        0.0000 
     21 OD1         9.1360  -11.2945   25.7480 O.co2     3 ASC3        0.0000 
     22 OD1        10.4520  -11.8810   25.1140 O.co2    11 ASL3        0.0000 
     23 OD1         7.8200  -10.7080   26.3820 O.co2     7 ASP3        0.0000 
     24 OD1         9.0045  -12.3605   25.8545 O.co2     3 ASC3        0.0000 
     25 OD1         7.5570  -12.8400   26.5950 O.co2     7 ASP3        0.0000 
     26 O           9.8150  -14.1695   25.2465 O.2       1 ALC1        0.0000 
     27 O           9.8710  -12.8690   25.6700 O.2       9 ALL1        0.0000 
     28 O           9.7590  -15.4700   24.8230 O.2       5 ALP1        0.0000 
     29 O           9.0665  -10.0725   26.0400 O.2       1 ALC1        0.0000 
     30 O          10.3130   -9.4370   25.6980 O.2       9 ALL1        0.0000 
     31 O           7.8200  -10.7080   26.3820 O.2       5 ALP1        0.0000 
     32 CA         23.3395  -13.4485   27.2725 C.3       4 GLC5        0.0000 
     33 CA         21.9100  -14.2860   26.2620 C.3      12 GLL5        0.0000 
     34 CA         24.7690  -12.6110   28.2830 C.3       8 GLP5        0.0000 
     35 CA         22.2385  -12.5640   25.0695 C.3       4 GLC5        0.0000 
     36 CA         22.5670  -10.8420   23.8770 C.3       8 GLP5        0.0000 
     37 CA         20.0050  -15.6405   28.7915 C.3       4 GLC5        0.0000 
     38 CA         19.8590  -15.2210   27.1250 C.3      12 GLL5        0.0000 
     39 CA         20.1510  -16.0600   30.4580 C.3       8 GLP5        0.0000 
     40 CA         18.7120  -15.3765   19.4240 C.3       4 GLC5        0.0000 
     41 CA         18.8210  -14.6480   21.5290 C.3      12 GLL5        0.0000 
     42 CA         18.3230  -16.6750   17.7430 C.3       8 GLP5        0.0000 
     43 CA         19.0448  -11.4432   19.4312 C.3       4 GLC5        0.0000 
     44 CA         19.3530   -9.7450   18.3810 C.3       8 GLP5        0.0000 
     45 CA         10.0377   -9.4185   22.6560 C.3       4 GLC5        0.0000 
     46 CA         11.9430  -10.7470   21.9030 C.3      12 GLL5        0.0000 
     47 CA          8.4150   -8.1080   22.7040 C.3       8 GLP5        0.0000 
     48 CA         11.9862   -8.7815   22.3125 C.3       4 GLC5        0.0000 
     49 CA         11.3780  -10.7110   23.3130 C.3      12 GLL5        0.0000 
     50 CA         12.3120   -6.8340   22.0170 C.3       8 GLP5        0.0000 
     51 CA         10.3624  -11.4189   21.4781 C.3       4 GLC5        0.0000 
     52 CA          8.8390  -11.8070   20.3790 C.3       8 GLP5        0.0000 
     53 CA         10.3035  -12.5183   21.5295 C.3       4 GLC5        0.0000 
     54 CA         12.0540  -13.2410   21.9710 C.3      12 GLL5        0.0000 
     55 CA         10.1065  -14.2592   22.1125 C.3       4 GLC5        0.0000 
     56 CA          8.4450  -15.2890   21.5450 C.3       8 GLP5        0.0000 
     57 CA         21.0145  -16.6080   27.9647 C.3       4 GLC5        0.0000 
     58 CA         20.1350  -16.4010   26.4960 C.3      12 GLL5        0.0000 
     59 CA         21.3530  -16.7820   29.8660 C.3       8 GLP5        0.0000 
     60 CA         21.3345  -15.4995   28.2370 C.3       4 GLC5        0.0000 
     61 CA         20.7220  -14.1480   26.9540 C.3      12 GLL5        0.0000 
@<TRIPOS>BOND
@<TRIPOS>SUBSTRUCTURE
     1 ALC1        7 GROUP        1 X    ALC  0     ROOT ALC X 1
     2 SEC2        1 GROUP        1 X    SEC  0     **** SEC X 2
     3 ASC3       21 GROUP        1 X    ASC  0     **** ASC X 3
     4 GLC5        4 GROUP        1 X    GLC  0     **** GLC X 6
     5 ALP1        9 GROUP        1 Y    ALP  0     ROOT ALP Y 8
     6 SEP2        3 GROUP        1 Y    SEP  0     **** SEP Y 9
     7 ASP3       23 GROUP        1 Y    ASP  0     **** ASP Y 10
     8 GLP5        6 GROUP        1 Y    GLP  0     **** GLP Y 13
     9 ALL1        8 GROUP        1 Z    ALL  0     ROOT ALL Z 15
    10 SEL2        2 GROUP        1 Z    SEL  0     **** SEL Z 16
    11 ASL3       22 GROUP        1 Z    ASL  0     **** ASL Z 17
    12 GLL5        5 GROUP        1 Z    GLL  0     **** GLL Z 20
@<TRIPOS>SET

