#    Name: 1jwt_BLI_1_ligand
#    Modification time : Tue Mar 25 09:31:21 2014

@<TRIPOS>MOLECULE
1jwt_BLI_1_ligand
   67    70     1     0     0
SMALL
NO_CHARGES


@<TRIPOS>ATOM
      1 N1         17.7350  -13.9960   22.2350 N.am      1 BLI300      0.0000 
      2 C1         18.8210  -14.6480   21.5290 C.3       1 BLI300      0.0000 
      3 C2         19.7850  -15.3630   22.4630 C.3       1 BLI300      0.0000 
      4 N3         19.0680  -16.2000   23.4190 N.pl3     1 BLI300      0.0000 
      5 C4         17.6270  -15.9660   23.5790 C.3       1 BLI300      0.0000 
      6 C5         17.1710  -14.5240   23.3250 C.2       1 BLI300      0.0000 
      7 O11        16.3340  -13.9400   24.0230 O.2       1 BLI300      0.0000 
      8 C01        17.1860  -12.8340   21.5380 C.3       1 BLI300      0.0000 
      9 C09        15.6420  -12.9580   21.2390 C.2       1 BLI300      0.0000 
     10 O09        15.0830  -14.0220   21.4130 O.2       1 BLI300      0.0000 
     11 N10        14.9840  -11.8570   20.8010 N.am      1 BLI300      0.0000 
     12 C03        18.0920  -12.7750   20.2820 C.3       1 BLI300      0.0000 
     13 C06        19.3810  -13.5080   20.6810 C.3       1 BLI300      0.0000 
     14 S1         19.6420  -17.7900   23.8030 S.o2      1 BLI300      0.0000 
     15 O2         19.9080  -18.4020   22.5110 O.2       1 BLI300      0.0000 
     16 C02        21.2350  -17.5760   24.6220 C.3       1 BLI300      0.0000 
     17 O1         18.6420  -18.3240   24.6480 O.2       1 BLI300      0.0000 
     18 C1'        13.5690  -11.9310   20.4640 C.3       1 BLI300      0.0000 
     19 C2'        12.8440  -11.9540   21.7800 C.3       1 BLI300      0.0000 
     20 C3'        11.9430  -10.7470   21.9030 C.3       1 BLI300      0.0000 
     21 C7'        11.3780  -10.7110   23.3130 C.3       1 BLI300      0.0000 
     22 C4'        12.0540  -13.2410   21.9710 C.3       1 BLI300      0.0000 
     23 C5'        11.4820  -13.2180   23.3890 C.3       1 BLI300      0.0000 
     24 N1'        10.7820  -11.9750   23.7580 N.pl3     1 BLI300      0.0000 
     25 C6'        10.4520  -11.8810   25.1140 C.cat     1 BLI300      0.0000 
     26 N2'         9.8710  -12.8690   25.6700 N.pl3     1 BLI300      0.0000 
     27 N3'        10.6950  -10.8010   25.8880 N.pl3     1 BLI300      0.0000 
     28 O3'        10.3130   -9.4370   25.6980 O.3       1 BLI300      0.0000 
     29 C6B        21.2170  -16.4670   25.6310 C.ar      1 BLI300      0.0000 
     30 C1B        22.1830  -15.4710   25.6220 C.ar      1 BLI300      0.0000 
     31 C2B        21.9100  -14.2860   26.2620 C.ar      1 BLI300      0.0000 
     32 C3B        20.7220  -14.1480   26.9540 C.ar      1 BLI300      0.0000 
     33 C4B        19.8590  -15.2210   27.1250 C.ar      1 BLI300      0.0000 
     34 C5B        20.1350  -16.4010   26.4960 C.ar      1 BLI300      0.0000 
     35 H          18.3782  -15.3706   20.8307 H         1 BLI300      0.0000 
     36 H          20.3867  -14.6051   22.9834 H         1 BLI300      0.0000 
     37 H          20.4708  -15.9676   21.8536 H         1 BLI300      0.0000 
     38 H          17.3029  -16.2472   24.6063 H         1 BLI300      0.0000 
     39 H          17.0509  -16.6284   22.8943 H         1 BLI300      0.0000 
     40 H          17.3754  -11.9470   22.1123 H         1 BLI300      0.0000 
     41 H          15.4450  -10.9464   20.6912 H         1 BLI300      0.0000 
     42 H          18.3094  -11.7606   20.0534 H         1 BLI300      0.0000 
     43 H          17.6173  -13.2886   19.4823 H         1 BLI300      0.0000 
     44 H          19.8494  -13.8927   19.8244 H         1 BLI300      0.0000 
     45 H          19.9778  -12.8789   21.2720 H         1 BLI300      0.0000 
     46 H          21.8955  -17.4013   23.7898 H         1 BLI300      0.0000 
     47 H          21.4046  -18.5515   25.0452 H         1 BLI300      0.0000 
     48 H          13.3461  -12.8347   19.9203 H         1 BLI300      0.0000 
     49 H          13.2578  -11.0650   19.9025 H         1 BLI300      0.0000 
     50 H          13.5900  -11.8962   22.5839 H         1 BLI300      0.0000 
     51 H          11.1315  -10.8226   21.1921 H         1 BLI300      0.0000 
     52 H          12.5122   -9.8457   21.7205 H         1 BLI300      0.0000 
     53 H          10.6251   -9.8943   23.3620 H         1 BLI300      0.0000 
     54 H          12.1947  -10.4084   24.0041 H         1 BLI300      0.0000 
     55 H          12.7073  -14.0874   21.8623 H         1 BLI300      0.0000 
     56 H          11.2485  -13.2812   21.2608 H         1 BLI300      0.0000 
     57 H          12.3183  -13.4100   24.0978 H         1 BLI300      0.0000 
     58 H          10.7962  -14.0882   23.4948 H         1 BLI300      0.0000 
     59 H           9.6703  -13.6507   25.0795 H         1 BLI300      0.0000 
     60 H           9.6703  -12.7699   26.6446 H         1 BLI300      0.0000 
     61 H          11.2711  -10.9677   26.8084 H         1 BLI300      0.0000 
     62 H          23.0754  -15.6213   25.1484 H         1 BLI300      0.0000 
     63 H          22.5808  -13.5078   26.2283 H         1 BLI300      0.0000 
     64 H          20.4676  -13.2237   27.3551 H         1 BLI300      0.0000 
     65 H          19.0274  -15.1188   27.7182 H         1 BLI300      0.0000 
     66 H          19.5554  -17.2336   26.6547 H         1 BLI300      0.0000 
     67 H           9.3294   -9.4165   25.8770 H         1 BLI300      0.0000 
@<TRIPOS>BOND
     1    2    1 1    
     2    6    1 am   
     3    8    1 1    
     4    3    2 1    
     5   13    2 1    
     6   35    2 1    
     7    4    3 1    
     8   36    3 1    
     9   37    3 1    
    10    5    4 1    
    11   14    4 1    
    12    6    5 1    
    13   38    5 1    
    14   39    5 1    
    15    7    6 2    
    16    9    8 1    
    17   12    8 1    
    18   40    8 1    
    19   10    9 2    
    20   11    9 am   
    21   18   11 1    
    22   41   11 1    
    23   13   12 1    
    24   42   12 1    
    25   43   12 1    
    26   44   13 1    
    27   45   13 1    
    28   15   14 2    
    29   16   14 1    
    30   17   14 2    
    31   29   16 1    
    32   46   16 1    
    33   47   16 1    
    34   19   18 1    
    35   48   18 1    
    36   49   18 1    
    37   20   19 1    
    38   22   19 1    
    39   50   19 1    
    40   21   20 1    
    41   51   20 1    
    42   52   20 1    
    43   24   21 1    
    44   53   21 1    
    45   54   21 1    
    46   23   22 1    
    47   55   22 1    
    48   56   22 1    
    49   24   23 1    
    50   57   23 1    
    51   58   23 1    
    52   25   24 ar   
    53   26   25 ar   
    54   27   25 ar   
    55   59   26 1    
    56   60   26 1    
    57   28   27 1    
    58   61   27 1    
    59   67   28 1    
    60   30   29 ar   
    61   34   29 ar   
    62   31   30 ar   
    63   62   30 1    
    64   32   31 ar   
    65   63   31 1    
    66   33   32 ar   
    67   64   32 1    
    68   34   33 ar   
    69   65   33 1    
    70   66   34 1    
@<TRIPOS>SUBSTRUCTURE
     1 BLI300      1 GROUP   
@<TRIPOS>SET

