#    Name: 3qrm_NK7_1_INTS_M
#    Modification time : Mon Apr  7 19:49:07 2014

@<TRIPOS>MOLECULE
3qrm_NK7_1_INTS_M
   91     0    12     0     0
SMALL
NO_CHARGES


@<TRIPOS>ATOM
      1 CA         13.7115   20.4350    3.0475 C.3       4 GLC5        0.0000 
      2 CA         15.0860   19.8470    4.6710 C.3      12 GLL5        0.0000 
      3 CA         12.3370   21.0230    1.4240 C.3       8 GLP5        0.0000 
      4 CA         16.0780   16.3100    3.5855 C.3       4 GLC5        0.0000 
      5 CA         16.2060   17.7170    4.8710 C.3      12 GLL5        0.0000 
      6 CA         15.9500   14.9030    2.3000 C.3       8 GLP5        0.0000 
      7 CA         16.8880   15.8835    5.2590 C.3       4 GLC5        0.0000 
      8 CA         17.5700   14.0500    5.6470 C.3       8 GLP5        0.0000 
      9 OD1        15.3025   17.6265    6.8940 O.co2     3 ASC3        0.0000 
     10 OD1        16.7650   18.4830    7.0750 O.co2    11 ASL3        0.0000 
     11 OD1        13.8400   16.7700    6.7130 O.co2     7 ASP3        0.0000 
     12 CA         16.4050   18.4815    9.4180 C.3       4 GLC5        0.0000 
     13 CA         17.6890   19.0420    8.0460 C.3      12 GLL5        0.0000 
     14 CA         15.1210   17.9210   10.7900 C.3       8 GLP5        0.0000 
     15 CA         16.8520   17.3730    9.7660 C.3       4 GLC5        0.0000 
     16 CA         18.5830   16.8250    8.7420 C.3      12 GLL5        0.0000 
     17 CA         22.5500   17.5195    9.3100 C.3       4 GLC5        0.0000 
     18 CA         21.0890   17.3900    7.7260 C.3      12 GLL5        0.0000 
     19 CA         24.0110   17.6490   10.8940 C.3       8 GLP5        0.0000 
     20 CA         20.3310   20.3700    8.3680 C.3       4 GLC5        0.0000 
     21 CA         20.0800   18.3370    7.6380 C.3      12 GLL5        0.0000 
     22 CA         20.5820   22.4030    9.0980 C.3       8 GLP5        0.0000 
     23 CA         22.9435   17.8450   -0.4850 C.3       4 GLC5        0.0000 
     24 CA         22.9390   17.2560    1.3880 C.3      12 GLL5        0.0000 
     25 CA         22.9480   18.4340   -2.3580 C.3       8 GLP5        0.0000 
     26 N          19.7015   23.6995    4.3590 N.am      2 SEC2        0.0000 
     27 N          18.6000   22.7950    3.9470 N.am     10 SEL2        0.0000 
     28 N          20.8030   24.6040    4.7710 N.am      6 SEP2        0.0000 
     29 N          17.8430   23.2530    7.5555 N.am      2 SEC2        0.0000 
     30 N          17.6370   22.6100    6.0570 N.am     10 SEL2        0.0000 
     31 N          18.0490   23.8960    9.0540 N.am      6 SEP2        0.0000 
     32 CA         17.6475   24.6300    4.0285 C.3       4 GLC5        0.0000 
     33 CA         16.1480   23.0810    4.1630 C.3      12 GLL5        0.0000 
     34 CA         19.1470   26.1790    3.8940 C.3       8 GLP5        0.0000 
     35 CA         14.7990   24.9245    0.5610 C.3       4 GLC5        0.0000 
     36 CA         14.8130   23.8700    2.3270 C.3      12 GLL5        0.0000 
     37 CA         14.7850   25.9790   -1.2050 C.3       8 GLP5        0.0000 
     38 O          10.6815   26.4070    2.5415 O.2       1 ALC1        0.0000 
     39 O          11.8120   25.6920    3.3960 O.2       9 ALL1        0.0000 
     40 O           9.5510   27.1220    1.6870 O.2       5 ALP1        0.0000 
     41 N          10.8570   24.3665    0.9785 N.am      2 SEC2        0.0000 
     42 N          12.2750   24.6920    1.4920 N.am     10 SEL2        0.0000 
     43 N           9.4390   24.0410    0.4650 N.am      6 SEP2        0.0000 
     44 CA         19.5500   14.0740    6.6905 C.3       4 GLC5        0.0000 
     45 CA         21.5300   14.0980    7.7340 C.3      12 GLL5        0.0000 
     46 CA         21.6645   12.8230    6.6040 C.3       4 GLC5        0.0000 
     47 CA         21.7990   11.5480    5.4740 C.3       8 GLP5        0.0000 
     48 CA         20.4665   15.0085   11.0525 C.3       4 GLC5        0.0000 
     49 CA         22.0570   14.7740    9.7010 C.3      12 GLL5        0.0000 
     50 CA         18.8760   15.2430   12.4040 C.3       8 GLP5        0.0000 
     51 CA         22.3825   14.0285   11.3280 C.3       4 GLC5        0.0000 
     52 CA         22.7080   13.2830   12.9550 C.3       8 GLP5        0.0000 
     53 CA         18.8175   20.2812    9.0173 C.3       4 GLC5        0.0000 
     54 CA         19.3790   22.0170    9.9360 C.3       8 GLP5        0.0000 
     55 CA         17.9378   15.2668    7.8720 C.3       4 GLC5        0.0000 
     56 CA         16.7860   14.1760    6.9560 C.3       8 GLP5        0.0000 
     57 CA         18.9828   15.8003   10.5960 C.3       4 GLC5        0.0000 
     58 CA         21.0740   16.7060   10.4590 C.3       4 GLC5        0.0000 
     59 CA         19.5960   15.8900    8.8340 C.3      12 GLL5        0.0000 
     60 CA         21.9280   17.3820   12.3370 C.3       8 GLP5        0.0000 
     61 CA         21.3697   21.1070    4.7453 C.3       4 GLC5        0.0000 
     62 CA         21.3010   19.1750    3.8600 C.3      12 GLL5        0.0000 
     63 CA         22.0550   22.7290    5.5480 C.3       8 GLP5        0.0000 
     64 CA         21.3753   20.6950    2.7397 C.3       4 GLC5        0.0000 
     65 CA         20.0680   19.7950    4.0250 C.3      12 GLL5        0.0000 
     66 CA         22.0660   21.9050    1.5370 C.3       8 GLP5        0.0000 
     67 CA         21.5340   20.0317    1.9583 C.3       4 GLC5        0.0000 
     68 CA         21.5210   18.2850    2.8190 C.3      12 GLL5        0.0000 
     69 CA         23.2774   19.6085    1.5750 C.3       4 GLC5        0.0000 
     70 CA         22.8250   17.6370    2.6300 C.3      12 GLL5        0.0000 
     71 CA         23.4430   21.5680    1.0740 C.3       8 GLP5        0.0000 
     72 CA         20.6032   20.4973    2.0833 C.3       4 GLC5        0.0000 
     73 CA         19.0290   19.5310    3.1480 C.3      12 GLL5        0.0000 
     74 CA         19.0128   17.2535    0.7798 C.3       4 GLC5        0.0000 
     75 CA         19.2520   18.6480    2.1110 C.3      12 GLL5        0.0000 
     76 CA         18.1580   16.1670   -0.4660 C.3       8 GLP5        0.0000 
     77 CA         20.2048   18.6285    0.0863 C.3       4 GLC5        0.0000 
     78 CA         20.5420   18.9170   -1.8530 C.3       8 GLP5        0.0000 
     79 CA         18.0719   20.4570    1.3014 C.3       4 GLC5        0.0000 
     80 CA         17.3470   21.6660   -0.0520 C.3       8 GLP5        0.0000 
     81 CA         16.2575   24.3930    6.1627 C.3       4 GLC5        0.0000 
     82 CA         16.8690   25.5080    7.7260 C.3       8 GLP5        0.0000 
     83 CA         16.7390   24.7670    2.0722 C.3       4 GLC5        0.0000 
     84 CA         15.9690   23.2720    2.8080 C.3      12 GLL5        0.0000 
     85 CA         18.0870   25.9630    1.5770 C.3       8 GLP5        0.0000 
     86 CA         16.3690   22.6185    1.2577 C.3       4 GLC5        0.0000 
     87 CA         21.5583   13.1470    9.5289 C.3       4 GLC5        0.0000 
     88 CA         21.2270   11.6000   10.1630 C.3       8 GLP5        0.0000 
     89 CA         23.5026   15.7613    9.8842 C.3       4 GLC5        0.0000 
     90 CA         24.4880   16.2410   11.2390 C.3       8 GLP5        0.0000 
     91 CA         13.4703   22.4727    2.1526 C.3       4 GLC5        0.0000 
@<TRIPOS>BOND
@<TRIPOS>SUBSTRUCTURE
     1 ALC1       38 GROUP        1 X    ALC  0     ROOT ALC X 1
     2 SEC2       26 GROUP        1 X    SEC  0     **** SEC X 2
     3 ASC3        9 GROUP        1 X    ASC  0     **** ASC X 3
     4 GLC5        1 GROUP        1 X    GLC  0     **** GLC X 6
     5 ALP1       40 GROUP        1 Y    ALP  0     ROOT ALP Y 8
     6 SEP2       28 GROUP        1 Y    SEP  0     **** SEP Y 9
     7 ASP3       11 GROUP        1 Y    ASP  0     **** ASP Y 10
     8 GLP5        3 GROUP        1 Y    GLP  0     **** GLP Y 13
     9 ALL1       39 GROUP        1 Z    ALL  0     ROOT ALL Z 15
    10 SEL2       27 GROUP        1 Z    SEL  0     **** SEL Z 16
    11 ASL3       10 GROUP        1 Z    ASL  0     **** ASL Z 17
    12 GLL5        2 GROUP        1 Z    GLL  0     **** GLL Z 20
@<TRIPOS>SET

