#    Name: 3qrm_NK7_1_ligand
#    Modification time : Mon Apr  7 19:49:07 2014

@<TRIPOS>MOLECULE
3qrm_NK7_1_ligand
   65    68     1     0     0
SMALL
NO_CHARGES


@<TRIPOS>ATOM
      1 C1         17.0020   18.7330    5.6710 C.3       1 NK7100      0.0000 
      2 C2         16.4150   20.1010    5.3810 C.3       1 NK7100      0.0000 
      3 C3         15.0860   19.8470    4.6710 C.3       1 NK7100      0.0000 
      4 N4         14.9900   18.4110    4.5260 N.3       1 NK7100      0.0000 
      5 C5         16.2060   17.7170    4.8710 C.3       1 NK7100      0.0000 
      6 N6         16.7650   18.4830    7.0750 N.4       1 NK7100      0.0000 
      7 C7         17.6890   19.0420    8.0460 C.3       1 NK7100      0.0000 
      8 C8         18.8230   18.0490    8.1510 C.ar      1 NK7100      0.0000 
      9 C9         18.5830   16.8250    8.7420 C.ar      1 NK7100      0.0000 
     10 C10        19.5960   15.8900    8.8340 C.ar      1 NK7100      0.0000 
     11 C11        20.8440   16.1700    8.3280 C.ar      1 NK7100      0.0000 
     12 C12        21.0890   17.3900    7.7260 C.ar      1 NK7100      0.0000 
     13 C13        20.0800   18.3370    7.6380 C.ar      1 NK7100      0.0000 
     14 C14        20.0680   19.7950    4.0250 C.ar      1 NK7100      0.0000 
     15 C15        21.3010   19.1750    3.8600 C.ar      1 NK7100      0.0000 
     16 C16        21.5210   18.2850    2.8190 C.ar      1 NK7100      0.0000 
     17 C17        22.8250   17.6370    2.6300 C.3       1 NK7100      0.0000 
     18 F18        23.7440   18.4470    2.8980 F         1 NK7100      0.0000 
     19 F19        22.9130   16.6340    3.3790 F         1 NK7100      0.0000 
     20 F20        22.9390   17.2560    1.3880 F         1 NK7100      0.0000 
     21 N21        17.2370   20.8750    4.4500 N.pl3     1 NK7100      0.0000 
     22 C22        17.6540   20.1650    3.2490 C.3       1 NK7100      0.0000 
     23 C23        19.0290   19.5310    3.1480 C.ar      1 NK7100      0.0000 
     24 C24        20.4830   18.0320    1.9400 C.ar      1 NK7100      0.0000 
     25 C25        19.2520   18.6480    2.1110 C.ar      1 NK7100      0.0000 
     26 C26        12.5690   24.9160    2.6390 C.2       1 NK7100      0.0000 
     27 S27        17.4830   22.3650    4.6890 S.o2      1 NK7100      0.0000 
     28 O28        18.6000   22.7950    3.9470 O.2       1 NK7100      0.0000 
     29 O29        17.6370   22.6100    6.0570 O.2       1 NK7100      0.0000 
     30 C30        16.1480   23.0810    4.1630 C.ar      1 NK7100      0.0000 
     31 C31        15.9690   23.2720    2.8080 C.ar      1 NK7100      0.0000 
     32 C32        14.8130   23.8700    2.3270 C.ar      1 NK7100      0.0000 
     33 C34        13.9790   24.0730    4.5560 C.ar      1 NK7100      0.0000 
     34 C35        15.1440   23.4750    5.0360 C.ar      1 NK7100      0.0000 
     35 N36        11.8120   25.6920    3.3960 N.am      1 NK7100      0.0000 
     36 O37        12.2750   24.6920    1.4920 O.2       1 NK7100      0.0000 
     37 C38        21.9140   15.1300    8.4430 C.3       1 NK7100      0.0000 
     38 F39        21.5300   14.0980    7.7340 F         1 NK7100      0.0000 
     39 F40        22.0570   14.7740    9.7010 F         1 NK7100      0.0000 
     40 F41        23.0490   15.6110    7.9870 F         1 NK7100      0.0000 
     41 C42        13.8160   24.2740    3.1950 C.ar      1 NK7100      0.0000 
     42 H          18.0031   18.7055    5.4145 H         1 NK7100      0.0000 
     43 H          16.2230   20.6177    6.2746 H         1 NK7100      0.0000 
     44 H          15.1103   20.3438    3.7155 H         1 NK7100      0.0000 
     45 H          14.2922   20.2401    5.2840 H         1 NK7100      0.0000 
     46 H          16.0154   16.8630    5.4927 H         1 NK7100      0.0000 
     47 H          16.7716   17.4459    3.9999 H         1 NK7100      0.0000 
     48 H          17.2249   19.1466    9.0140 H         1 NK7100      0.0000 
     49 H          18.0831   19.9890    7.7125 H         1 NK7100      0.0000 
     50 H          17.6460   16.6074    9.1158 H         1 NK7100      0.0000 
     51 H          19.4127   14.9781    9.2849 H         1 NK7100      0.0000 
     52 H          22.0226   17.5979    7.3413 H         1 NK7100      0.0000 
     53 H          20.2611   19.2458    7.1962 H         1 NK7100      0.0000 
     54 H          19.9281   20.4550    4.8056 H         1 NK7100      0.0000 
     55 H          22.0676   19.3818    4.5261 H         1 NK7100      0.0000 
     56 H          17.5375   20.8547    2.3429 H         1 NK7100      0.0000 
     57 H          16.8908   19.3459    3.0103 H         1 NK7100      0.0000 
     58 H          20.6240   17.3805    1.1509 H         1 NK7100      0.0000 
     59 H          18.4834   18.4382    1.4426 H         1 NK7100      0.0000 
     60 H          16.7005   22.9681    2.1429 H         1 NK7100      0.0000 
     61 H          14.6984   24.0138    1.3090 H         1 NK7100      0.0000 
     62 H          13.2449   24.3627    5.2144 H         1 NK7100      0.0000 
     63 H          15.2575   23.3254    6.0514 H         1 NK7100      0.0000 
     64 H          11.0029   26.0816    2.9561 H         1 NK7100      0.0000 
     65 H          12.1173   25.8189    4.3398 H         1 NK7100      0.0000 
@<TRIPOS>BOND
     1    2    1 1    
     2    5    1 1    
     3    6    1 1    
     4   42    1 1    
     5    3    2 1    
     6   21    2 1    
     7   43    2 1    
     8    4    3 1    
     9   44    3 1    
    10   45    3 1    
    11    5    4 1    
    12   46    5 1    
    13   47    5 1    
    14    7    6 1    
    15    8    7 1    
    16   48    7 1    
    17   49    7 1    
    18    9    8 ar   
    19   13    8 ar   
    20   10    9 ar   
    21   50    9 1    
    22   11   10 ar   
    23   51   10 1    
    24   12   11 ar   
    25   37   11 1    
    26   13   12 ar   
    27   52   12 1    
    28   53   13 1    
    29   15   14 ar   
    30   23   14 ar   
    31   54   14 1    
    32   16   15 ar   
    33   55   15 1    
    34   17   16 1    
    35   24   16 ar   
    36   18   17 1    
    37   19   17 1    
    38   20   17 1    
    39   22   21 1    
    40   27   21 1    
    41   23   22 1    
    42   56   22 1    
    43   57   22 1    
    44   25   23 ar   
    45   25   24 ar   
    46   58   24 1    
    47   59   25 1    
    48   35   26 am   
    49   36   26 2    
    50   41   26 1    
    51   28   27 2    
    52   29   27 2    
    53   30   27 1    
    54   31   30 ar   
    55   34   30 ar   
    56   32   31 ar   
    57   60   31 1    
    58   41   32 ar   
    59   61   32 1    
    60   34   33 ar   
    61   41   33 ar   
    62   62   33 1    
    63   63   34 1    
    64   64   35 1    
    65   65   35 1    
    66   38   37 1    
    67   39   37 1    
    68   40   37 1    
@<TRIPOS>SUBSTRUCTURE
     1 NK7100      1 GROUP   
@<TRIPOS>SET

