#    Name: 2xto_GDP_2_INTS_M
#    Modification time : Tue Mar 25 06:36:23 2014

@<TRIPOS>MOLECULE
2xto_GDP_2_INTS_M
   41     0    12     0     0
SMALL
NO_CHARGES


@<TRIPOS>ATOM
      1 N          13.1955   12.3265    2.0825 N.am      2 SEC2        0.0000 
      2 N          13.9970   11.5950    1.2200 N.am     10 SEL2        0.0000 
      3 N          12.3940   13.0580    2.9450 N.am      6 SEP2        0.0000 
      4 N          12.6600   11.4060    1.2235 N.am      2 SEC2        0.0000 
      5 N          11.3230   11.2170    1.2270 N.am      6 SEP2        0.0000 
      6 N          16.6610   12.5995    0.6550 N.am      2 SEC2        0.0000 
      7 N          16.2270   11.4480    0.2500 N.am     10 SEL2        0.0000 
      8 N          17.0950   13.7510    1.0600 N.am      6 SEP2        0.0000 
      9 Zn         15.4135    8.6780   -0.1515 Zn        3 ZIC7        0.0000 
     10 Zn         14.6530    9.5940   -0.1040 Zn       11 ZIL7        0.0000 
     11 Zn         16.1740    7.7620   -0.1990 Zn        7 ZIP7        0.0000 
     12 N          13.2130    8.9365    0.1720 N.am      2 SEC2        0.0000 
     13 N          14.6530    9.5940   -0.1040 N.am     10 SEL2        0.0000 
     14 N          11.7730    8.2790    0.4480 N.am      6 SEP2        0.0000 
     15 N          12.8155    7.6275    3.1275 N.am      2 SEC2        0.0000 
     16 N          14.3530    8.0410    3.2600 N.am     10 SEL2        0.0000 
     17 N          11.2780    7.2140    2.9950 N.am      6 SEP2        0.0000 
     18 N          14.0060    6.8365    4.2165 N.am      2 SEC2        0.0000 
     19 N          13.6590    5.6320    5.1730 N.am      6 SEP2        0.0000 
     20 CA         16.7735   12.2990    3.8340 C.3       4 GLC5        0.0000 
     21 CA         16.4290   10.7450    5.1520 C.3      12 GLL5        0.0000 
     22 CA         17.1180   13.8530    2.5160 C.3       8 GLP5        0.0000 
     23 N           9.9705   10.8755    6.7225 N.am      2 SEC2        0.0000 
     24 N          11.1070   11.2960    7.3660 N.am     10 SEL2        0.0000 
     25 N           8.8340   10.4550    6.0790 N.am      6 SEP2        0.0000 
     26 CA          9.8365   10.3820    8.3500 C.3       4 GLC5        0.0000 
     27 CA         11.1240   11.6930    8.6510 C.3      12 GLL5        0.0000 
     28 CA          8.5490    9.0710    8.0490 C.3       8 GLP5        0.0000 
     29 N           8.5870   13.8455    9.0800 N.am      2 SEC2        0.0000 
     30 N           8.9430   12.3790    9.2890 N.am     10 SEL2        0.0000 
     31 N           8.2310   15.3120    8.8710 N.am      6 SEP2        0.0000 
     32 N           7.9670   11.2580    9.4555 N.am      2 SEC2        0.0000 
     33 N           6.9910   10.1370    9.6220 N.am      6 SEP2        0.0000 
     34 O          10.0395   13.0205   12.0030 O.2       1 ALC1        0.0000 
     35 O          10.5680   12.5120   10.8660 O.2       9 ALL1        0.0000 
     36 O           9.5110   13.5290   13.1400 O.2       5 ALP1        0.0000 
     37 O          10.8665   13.0935   12.8300 O.2       1 ALC1        0.0000 
     38 O          12.2220   12.6580   12.5200 O.2       9 ALL1        0.0000 
     39 CA         15.3630    7.4648    6.5225 C.3       4 GLC5        0.0000 
     40 CA         14.9710    9.2970    7.8220 C.3      12 GLL5        0.0000 
     41 CA         15.0410    5.5820    5.4700 C.3       8 GLP5        0.0000 
@<TRIPOS>BOND
@<TRIPOS>SUBSTRUCTURE
     1 ALC1       34 GROUP        1 X    ALC  0     ROOT ALC X 1
     2 SEC2        1 GROUP        1 X    SEC  0     **** SEC X 2
     3 ZIC7        9 GROUP        1 X    ZIC  0     **** ZIC X 5
     4 GLC5       20 GROUP        1 X    GLC  0     **** GLC X 6
     5 ALP1       36 GROUP        1 Y    ALP  0     ROOT ALP Y 8
     6 SEP2        3 GROUP        1 Y    SEP  0     **** SEP Y 9
     7 ZIP7       11 GROUP        1 Y    ZIP  0     **** ZIP Y 12
     8 GLP5       22 GROUP        1 Y    GLP  0     **** GLP Y 13
     9 ALL1       35 GROUP        1 Z    ALL  0     ROOT ALL Z 15
    10 SEL2        2 GROUP        1 Z    SEL  0     **** SEL Z 16
    11 ZIL7       10 GROUP        1 Z    ZIL  0     **** ZIL Z 19
    12 GLL5       21 GROUP        1 Z    GLL  0     **** GLL Z 20
@<TRIPOS>SET

