#    Name: 2xto_GDP_2_ligand
#    Modification time : Tue Mar 25 06:36:23 2014

@<TRIPOS>MOLECULE
2xto_GDP_2_ligand
   40    42     1     0     0
SMALL
NO_CHARGES


@<TRIPOS>ATOM
      1 PB         15.1200   10.6460    0.8790 P.3       1 GDP1254     0.0000 
      2 O1B        13.9970   11.5950    1.2200 O.co2     1 GDP1254     0.0000 
      3 O2B        16.2270   11.4480    0.2500 O.co2     1 GDP1254     0.0000 
      4 O3B        14.6530    9.5940   -0.1040 O.co2     1 GDP1254     0.0000 
      5 O3A        15.7450    9.9210    2.1840 O.3       1 GDP1254     0.0000 
      6 PA         14.8860    9.4360    3.4560 P.3       1 GDP1254     0.0000 
      7 O1A        14.3530    8.0410    3.2600 O.co2     1 GDP1254     0.0000 
      8 O2A        13.7570   10.3780    3.7460 O.co2     1 GDP1254     0.0000 
      9 O5'        15.9450    9.4930    4.6600 O.3       1 GDP1254     0.0000 
     10 C5'        16.4290   10.7450    5.1520 C.3       1 GDP1254     0.0000 
     11 C4'        16.4710   10.7760    6.6820 C.3       1 GDP1254     0.0000 
     12 O4'        15.3520   11.5180    7.1740 O.3       1 GDP1254     0.0000 
     13 C3'        16.3990    9.3980    7.3280 C.3       1 GDP1254     0.0000 
     14 O3'        17.3080    9.3540    8.4360 O.3       1 GDP1254     0.0000 
     15 C2'        14.9710    9.2970    7.8220 C.3       1 GDP1254     0.0000 
     16 O2'        14.8710    8.4410    8.9660 O.3       1 GDP1254     0.0000 
     17 C1'        14.6510   10.7470    8.1450 C.3       1 GDP1254     0.0000 
     18 N9         13.2020   11.0510    8.0960 N.pl3     1 GDP1254     0.0000 
     19 C8         12.3700   10.9140    7.0430 C.2       1 GDP1254     0.0000 
     20 N7         11.1070   11.2960    7.3660 N.2       1 GDP1254     0.0000 
     21 C5         11.1240   11.6930    8.6510 C.2       1 GDP1254     0.0000 
     22 C6         10.1380   12.2190    9.6250 C.2       1 GDP1254     0.0000 
     23 O6          8.9430   12.3790    9.2890 O.2       1 GDP1254     0.0000 
     24 N1         10.5680   12.5120   10.8660 N.am      1 GDP1254     0.0000 
     25 C2         11.8560   12.3430   11.2510 C.2       1 GDP1254     0.0000 
     26 N2         12.2220   12.6580   12.5200 N.pl3     1 GDP1254     0.0000 
     27 N3         12.8110   11.8670   10.4070 N.2       1 GDP1254     0.0000 
     28 C4         12.5080   11.5320    9.1270 C.2       1 GDP1254     0.0000 
     29 H          15.7927   11.5842    4.8204 H         1 GDP1254     0.0000 
     30 H          17.4496   10.9566    4.7876 H         1 GDP1254     0.0000 
     31 H          17.3935   11.2484    6.9948 H         1 GDP1254     0.0000 
     32 H          16.5747    8.6683    6.6016 H         1 GDP1254     0.0000 
     33 H          14.3613    8.9981    7.0041 H         1 GDP1254     0.0000 
     34 H          15.0424   10.9568    9.1327 H         1 GDP1254     0.0000 
     35 H          12.6366   10.5828    6.1589 H         1 GDP1254     0.0000 
     36 H           9.8751   12.8900   11.5727 H         1 GDP1254     0.0000 
     37 H          11.4953   13.0008   13.1153 H         1 GDP1254     0.0000 
     38 H          13.1859   12.5194   12.7472 H         1 GDP1254     0.0000 
     39 H          16.7487    9.0811    9.2187 H         1 GDP1254     0.0000 
     40 H          14.1778    8.8665    9.5476 H         1 GDP1254     0.0000 
@<TRIPOS>BOND
     1    2    1 ar   
     2    3    1 ar   
     3    4    1 ar   
     4    5    1 1    
     5    6    5 1    
     6    7    6 ar   
     7    8    6 ar   
     8    9    6 1    
     9   10    9 1    
    10   11   10 1    
    11   29   10 1    
    12   30   10 1    
    13   12   11 1    
    14   13   11 1    
    15   31   11 1    
    16   17   12 1    
    17   14   13 1    
    18   15   13 1    
    19   32   13 1    
    20   39   14 1    
    21   16   15 1    
    22   17   15 1    
    23   33   15 1    
    24   40   16 1    
    25   18   17 1    
    26   34   17 1    
    27   19   18 1    
    28   28   18 1    
    29   20   19 2    
    30   35   19 1    
    31   21   20 1    
    32   22   21 1    
    33   28   21 2    
    34   23   22 2    
    35   24   22 am   
    36   25   24 1    
    37   36   24 1    
    38   26   25 1    
    39   27   25 2    
    40   37   26 1    
    41   38   26 1    
    42   28   27 1    
@<TRIPOS>SUBSTRUCTURE
     1 GDP1254     1 GROUP   
@<TRIPOS>SET

