#    Name: 4iwn_GEK_2_INTS_M
#    Modification time : Tue Mar 25 04:47:53 2014

@<TRIPOS>MOLECULE
4iwn_GEK_2_INTS_M
   82     0    12     0     0
SMALL
NO_CHARGES


@<TRIPOS>ATOM
      1 O          23.4115   -4.8505    0.3055 O.2       1 ALC1        0.0000 
      2 O          23.8520   -4.6220    1.6900 O.2       9 ALL1        0.0000 
      3 O          22.9710   -5.0790   -1.0790 O.2       5 ALP1        0.0000 
      4 O          22.7615   -4.0070    2.4570 O.2       1 ALC1        0.0000 
      5 O          21.6710   -3.3920    3.2240 O.2       5 ALP1        0.0000 
      6 O          24.9950   -5.7155    1.6385 O.2       1 ALC1        0.0000 
      7 O          26.1380   -6.8090    1.5870 O.2       5 ALP1        0.0000 
      8 N          27.5400   -3.0295    3.9245 N.am      2 SEC2        0.0000 
      9 N          26.8880   -3.2760    2.9000 N.am     10 SEL2        0.0000 
     10 N          28.1920   -2.7830    4.9490 N.am      6 SEP2        0.0000 
     11 N          17.4745   -6.2225   -7.7540 N.am      2 SEC2        0.0000 
     12 N          18.1330   -4.7820   -7.4830 N.am     10 SEL2        0.0000 
     13 N          16.8160   -7.6630   -8.0250 N.am      6 SEP2        0.0000 
     14 CA         21.2710   -5.4680   -7.0870 C.3       4 GLC5        0.0000 
     15 CA         19.4080   -5.0350   -7.0830 C.3      12 GLL5        0.0000 
     16 CA         23.1340   -5.9010   -7.0910 C.3       8 GLP5        0.0000 
     17 CA         19.9330   -4.3775   -8.7535 C.3       4 GLC5        0.0000 
     18 CA         20.4580   -3.7200  -10.4240 C.3       8 GLP5        0.0000 
     19 CA         18.4285   -6.0630   -8.6995 C.3       4 GLC5        0.0000 
     20 CA         17.4490   -7.0910  -10.3160 C.3       8 GLP5        0.0000 
     21 CA         18.7200   -6.4570   -6.2580 C.3       4 GLC5        0.0000 
     22 CA         18.0320   -7.8790   -5.4330 C.3       8 GLP5        0.0000 
     23 N          21.1625   -4.3015   -7.5815 N.am      2 SEC2        0.0000 
     24 N          20.1270   -4.1570   -6.3540 N.am     10 SEL2        0.0000 
     25 N          22.1980   -4.4460   -8.8090 N.am      6 SEP2        0.0000 
     26 CA         20.5355   -4.2730   -4.4450 C.3       4 GLC5        0.0000 
     27 CA         19.5930   -2.9600   -5.9990 C.3      12 GLL5        0.0000 
     28 CA         21.4780   -5.5860   -2.8910 C.3       8 GLP5        0.0000 
     29 CA         18.9835   -3.6690   -8.8150 C.3       4 GLC5        0.0000 
     30 CA         17.5090   -3.6180   -7.2060 C.3      12 GLL5        0.0000 
     31 CA         16.6775   -5.1390   -6.2755 C.3       4 GLC5        0.0000 
     32 CA         15.8460   -6.6600   -5.3450 C.3       8 GLP5        0.0000 
     33 O          15.6770   -4.3540   -8.6680 O.2       1 ALC1        0.0000 
     34 O          16.2510   -3.3580   -7.6150 O.2       9 ALL1        0.0000 
     35 O          15.1030   -5.3500   -9.7210 O.2       5 ALP1        0.0000 
     36 CA         24.1570    1.6840    2.4205 C.3       4 GLC5        0.0000 
     37 CA         22.7840    0.5910    1.1040 C.3      12 GLL5        0.0000 
     38 CA         25.5300    2.7770    3.7370 C.3       8 GLP5        0.0000 
     39 CA         21.7645   -0.0370    2.6265 C.3       4 GLC5        0.0000 
     40 CA         20.7450   -0.6650    4.1490 C.3       8 GLP5        0.0000 
     41 CA         21.0965    1.3010    0.1565 C.3       4 GLC5        0.0000 
     42 CA         19.4090    2.0110   -0.7910 C.3       8 GLP5        0.0000 
     43 CA         21.4230   -3.7395   -3.7870 C.3       4 GLC5        0.0000 
     44 CA         21.3680   -1.8930   -4.6830 C.3      12 GLL5        0.0000 
     45 O          23.5245   -1.8990   -6.4035 O.2       1 ALC1        0.0000 
     46 O          23.0320   -0.8640   -6.1420 O.2       9 ALL1        0.0000 
     47 O          24.0170   -2.9340   -6.6650 O.2       5 ALP1        0.0000 
     48 N          25.0050   -1.5730   -2.6350 N.am      2 SEC2        0.0000 
     49 N          24.3650   -1.1560   -3.8870 N.am     10 SEL2        0.0000 
     50 N          25.6450   -1.9900   -1.3830 N.am      6 SEP2        0.0000 
     51 O          24.1910   -2.0450   -5.2760 O.2       1 ALC1        0.0000 
     52 O          24.3650   -1.1560   -3.8870 O.2       9 ALL1        0.0000 
     53 O          24.3040   -2.4490   -4.2695 O.2       1 ALC1        0.0000 
     54 O          24.2430   -3.7420   -4.6520 O.2       5 ALP1        0.0000 
     55 CA         21.9190   -3.4840   -2.7655 C.3       4 GLC5        0.0000 
     56 CA         22.3600   -1.3820   -2.6400 C.3      12 GLL5        0.0000 
     57 CA         20.7105    0.7300   -1.0960 C.3       4 GLC5        0.0000 
     58 CA         22.0120   -0.5510   -1.4010 C.3      12 GLL5        0.0000 
     59 N          24.6275   -4.5910    5.0690 N.am      2 SEC2        0.0000 
     60 N          25.3510   -4.6010    3.7910 N.am     10 SEL2        0.0000 
     61 N          23.9040   -4.5810    6.3470 N.am      6 SEP2        0.0000 
     62 N          25.7445   -5.7050    2.6890 N.am      2 SEC2        0.0000 
     63 N          26.1380   -6.8090    1.5870 N.am      6 SEP2        0.0000 
     64 NZ         22.4510    4.0085    1.8745 N.4       3 LYC4        0.0000 
     65 NZ         22.0740    2.7500    1.5880 N.4      11 LYL4        0.0000 
     66 NZ         23.1810    6.1540    1.2390 N.4       7 LYP4        0.0000 
     67 N          22.4510    4.0085    1.8745 N.am      2 SEC2        0.0000 
     68 N          22.0740    2.7500    1.5880 N.am     10 SEL2        0.0000 
     69 N          22.8280    5.2670    2.1610 N.am      6 SEP2        0.0000 
     70 NZ         23.4110    4.0980   -0.1065 N.4       3 LYC4        0.0000 
     71 NZ         23.3970    2.4660   -0.2030 N.4      11 LYL4        0.0000 
     72 N          23.4110    4.0980   -0.1065 N.am      2 SEC2        0.0000 
     73 N          23.3970    2.4660   -0.2030 N.am     10 SEL2        0.0000 
     74 N          23.4250    5.7300   -0.0100 N.am      6 SEP2        0.0000 
     75 CA         25.7380   -2.8395    0.1098 C.3       4 GLC5        0.0000 
     76 CA         24.3150   -2.2500    1.5740 C.3      12 GLL5        0.0000 
     77 CA         26.8660   -2.7250   -1.3830 C.3       8 GLP5        0.0000 
     78 CA         25.2835   -0.8673    0.9258 C.3       4 GLC5        0.0000 
     79 CA         26.7760    0.4200    0.8440 C.3       8 GLP5        0.0000 
     80 CA         24.8955    0.2217    0.6358 C.3       4 GLC5        0.0000 
     81 CA         23.2460   -0.5440   -0.2490 C.3      12 GLL5        0.0000 
     82 CA         25.0612   -2.0133   -0.6435 C.3       4 GLC5        0.0000 
@<TRIPOS>BOND
@<TRIPOS>SUBSTRUCTURE
     1 ALC1        1 GROUP        1 X    ALC  0     ROOT ALC X 1
     2 SEC2        8 GROUP        1 X    SEC  0     **** SEC X 2
     3 LYC4       64 GROUP        1 X    LYC  0     **** LYC X 4
     4 GLC5       14 GROUP        1 X    GLC  0     **** GLC X 6
     5 ALP1        3 GROUP        1 Y    ALP  0     ROOT ALP Y 8
     6 SEP2       10 GROUP        1 Y    SEP  0     **** SEP Y 9
     7 LYP4       66 GROUP        1 Y    LYP  0     **** LYP Y 11
     8 GLP5       16 GROUP        1 Y    GLP  0     **** GLP Y 13
     9 ALL1        2 GROUP        1 Z    ALL  0     ROOT ALL Z 15
    10 SEL2        9 GROUP        1 Z    SEL  0     **** SEL Z 16
    11 LYL4       65 GROUP        1 Z    LYL  0     **** LYL Z 18
    12 GLL5       15 GROUP        1 Z    GLL  0     **** GLL Z 20
@<TRIPOS>SET

