#    Name: 4iwn_GEK_2_ligand
#    Modification time : Tue Mar 25 04:47:53 2014

@<TRIPOS>MOLECULE
4iwn_GEK_2_ligand
   52    54     1     0     0
SMALL
NO_CHARGES


@<TRIPOS>ATOM
      1 C          25.7890   -3.8620    2.8720 C.2       1 GEK301      0.0000 
      2 N          23.8520   -4.6220    1.6900 N.4       1 GEK301      0.0000 
      3 O          26.8880   -3.2760    2.9000 O.co2     1 GEK301      0.0000 
      4 N1         18.1330   -4.7820   -7.4830 N.ar      1 GEK301      0.0000 
      5 C2         19.4080   -5.0350   -7.0830 C.ar      1 GEK301      0.0000 
      6 N3         20.1270   -4.1570   -6.3540 N.ar      1 GEK301      0.0000 
      7 C4         19.5930   -2.9600   -5.9990 C.ar      1 GEK301      0.0000 
      8 C5         18.2350   -2.6090   -6.4170 C.ar      1 GEK301      0.0000 
      9 C6         17.5090   -3.6180   -7.2060 C.ar      1 GEK301      0.0000 
     10 N6         16.2510   -3.3580   -7.6150 N.pl3     1 GEK301      0.0000 
     11 N7         17.9760   -1.3820   -5.9320 N.2       1 GEK301      0.0000 
     12 C8         19.0780   -0.9620   -5.2510 C.2       1 GEK301      0.0000 
     13 N9         20.0350   -1.9090   -5.3130 N.pl3     1 GEK301      0.0000 
     14 CA         24.9050   -3.6580    1.6310 C.3       1 GEK301      0.0000 
     15 CB         24.3150   -2.2500    1.5740 C.3       1 GEK301      0.0000 
     16 SD         23.2460   -0.5440   -0.2490 S.3       1 GEK301      0.0000 
     17 CE         22.7840    0.5910    1.1040 C.3       1 GEK301      0.0000 
     18 CG         23.2670   -2.0590    0.4410 C.3       1 GEK301      0.0000 
     19 CZ         22.7200    2.0620    0.7620 C.2       1 GEK301      0.0000 
     20 C1'        21.3680   -1.8930   -4.6830 C.3       1 GEK301      0.0000 
     21 C2'        22.2290   -0.6820   -4.9740 C.3       1 GEK301      0.0000 
     22 O2'        23.0320   -0.8640   -6.1420 O.3       1 GEK301      0.0000 
     23 C3'        23.0870   -0.5780   -3.6990 C.3       1 GEK301      0.0000 
     24 O3'        24.3650   -1.1560   -3.8870 O.3       1 GEK301      0.0000 
     25 C4'        22.3600   -1.3820   -2.6400 C.3       1 GEK301      0.0000 
     26 O4'        21.1760   -1.9360   -3.2410 O.3       1 GEK301      0.0000 
     27 C5'        22.0120   -0.5510   -1.4010 C.3       1 GEK301      0.0000 
     28 OXT        25.3510   -4.6010    3.7910 O.co2     1 GEK301      0.0000 
     29 OZ1        22.0740    2.7500    1.5880 O.co2     1 GEK301      0.0000 
     30 OZ2        23.3970    2.4660   -0.2030 O.co2     1 GEK301      0.0000 
     31 H          19.8484   -5.9569   -7.3564 H         1 GEK301      0.0000 
     32 H          15.8754   -2.4711   -7.3461 H         1 GEK301      0.0000 
     33 H          15.8054   -4.0752   -8.1509 H         1 GEK301      0.0000 
     34 H          19.1547   -0.1091   -4.7933 H         1 GEK301      0.0000 
     35 H          25.5176   -3.8142    0.7579 H         1 GEK301      0.0000 
     36 H          25.1228   -1.5218    1.4232 H         1 GEK301      0.0000 
     37 H          23.8330   -2.0174    2.5327 H         1 GEK301      0.0000 
     38 H          23.5350    0.3489    1.8594 H         1 GEK301      0.0000 
     39 H          21.8265    0.1732    1.4234 H         1 GEK301      0.0000 
     40 H          22.2601   -2.2311    0.8225 H         1 GEK301      0.0000 
     41 H          23.4566   -2.7591   -0.3732 H         1 GEK301      0.0000 
     42 H          21.9241   -2.7856   -4.9733 H         1 GEK301      0.0000 
     43 H          21.6012    0.1744   -5.0072 H         1 GEK301      0.0000 
     44 H          23.1194    0.4340   -3.3926 H         1 GEK301      0.0000 
     45 H          23.0239   -2.1925   -2.3263 H         1 GEK301      0.0000 
     46 H          21.8502    0.4883   -1.6535 H         1 GEK301      0.0000 
     47 H          21.1449   -0.9465   -0.8893 H         1 GEK301      0.0000 
     48 H          24.1398   -5.4583    2.1565 H         1 GEK301      0.0000 
     49 H          23.0549   -4.2717    2.1817 H         1 GEK301      0.0000 
     50 H          23.5402   -4.8877    0.7778 H         1 GEK301      0.0000 
     51 H          22.8795   -1.8137   -6.4153 H         1 GEK301      0.0000 
     52 H          24.1838   -2.0948   -4.1798 H         1 GEK301      0.0000 
@<TRIPOS>BOND
     1    3    1 ar   
     2   14    1 1    
     3   28    1 ar   
     4   14    2 1    
     5   48    2 1    
     6   49    2 1    
     7   50    2 1    
     8    5    4 ar   
     9    9    4 ar   
    10    6    5 ar   
    11   31    5 1    
    12    7    6 ar   
    13    8    7 ar   
    14   13    7 1    
    15    9    8 ar   
    16   11    8 1    
    17   10    9 1    
    18   32   10 1    
    19   33   10 1    
    20   12   11 2    
    21   13   12 1    
    22   34   12 1    
    23   20   13 1    
    24   15   14 1    
    25   35   14 1    
    26   18   15 1    
    27   36   15 1    
    28   37   15 1    
    29   17   16 1    
    30   18   16 1    
    31   27   16 1    
    32   19   17 1    
    33   38   17 1    
    34   39   17 1    
    35   40   18 1    
    36   41   18 1    
    37   29   19 ar   
    38   30   19 ar   
    39   21   20 1    
    40   26   20 1    
    41   42   20 1    
    42   22   21 1    
    43   23   21 1    
    44   43   21 1    
    45   51   22 1    
    46   24   23 1    
    47   25   23 1    
    48   44   23 1    
    49   52   24 1    
    50   26   25 1    
    51   27   25 1    
    52   45   25 1    
    53   46   27 1    
    54   47   27 1    
@<TRIPOS>SUBSTRUCTURE
     1 GEK301      1 GROUP   
@<TRIPOS>SET

