#    Name: 3ocx_2AM_1_INTS_M
#    Modification time : Tue Mar 25 04:10:20 2014

@<TRIPOS>MOLECULE
3ocx_2AM_1_INTS_M
   37     0     9     0     0
SMALL
NO_CHARGES


@<TRIPOS>ATOM
      1 N          42.8715  -15.5635   -7.9215 N.am      1 SEC2        0.0000 
      2 N          42.2410  -14.8580   -9.3680 N.am      7 SEL2        0.0000 
      3 N          43.5020  -16.2690   -6.4750 N.am      4 SEP2        0.0000 
      4 N          41.4010  -15.8995  -10.1990 N.am      1 SEC2        0.0000 
      5 N          40.5610  -16.9410  -11.0300 N.am      4 SEP2        0.0000 
      6 N          41.8610  -12.4805  -10.6385 N.am      1 SEC2        0.0000 
      7 N          43.1030  -12.6420  -10.1010 N.am      7 SEL2        0.0000 
      8 N          40.6190  -12.3190  -11.1760 N.am      4 SEP2        0.0000 
      9 Zn         41.3760  -12.1495   -7.4880 Zn        2 ZIC7        0.0000 
     10 Zn         41.9610  -12.9610   -7.8930 Zn        8 ZIL7        0.0000 
     11 Zn         40.7910  -11.3380   -7.0830 Zn        5 ZIP7        0.0000 
     12 CA         47.5820  -17.4670   -8.7370 C.3       3 GLC5        0.0000 
     13 CA         46.6960  -15.7800   -9.9190 C.3       9 GLL5        0.0000 
     14 CA         48.4680  -19.1540   -7.5550 C.3       6 GLP5        0.0000 
     15 CA         43.8550  -15.6040  -11.1830 C.3       3 GLC5        0.0000 
     16 CA         45.3290  -15.1250   -9.9010 C.3       9 GLL5        0.0000 
     17 CA         42.3810  -16.0830  -12.4650 C.3       6 GLP5        0.0000 
     18 N          43.9810  -16.2075   -7.9730 N.am      1 SEC2        0.0000 
     19 N          44.4600  -16.1460   -9.4710 N.am      7 SEL2        0.0000 
     20 N          43.8640  -15.0880   -7.3105 N.am      1 SEC2        0.0000 
     21 N          44.2260  -13.9070   -8.1460 N.am      7 SEL2        0.0000 
     22 CA         46.3655  -16.0865   -6.5465 C.3       3 GLC5        0.0000 
     23 CA         46.4420  -14.6490   -7.8870 C.3       9 GLL5        0.0000 
     24 CA         46.2890  -17.5240   -5.2060 C.3       6 GLP5        0.0000 
     25 CA         51.7980  -11.7965   -7.6465 C.3       3 GLC5        0.0000 
     26 CA         49.8600  -11.2780   -7.0400 C.3       9 GLL5        0.0000 
     27 CA         53.7360  -12.3150   -8.2530 C.3       6 GLP5        0.0000 
     28 CA         51.5910  -11.9845   -8.8060 C.3       3 GLC5        0.0000 
     29 CA         49.4460  -11.6540   -9.3590 C.3       9 GLL5        0.0000 
     30 CA         48.9585  -15.4475   -9.6830 C.3       3 GLC5        0.0000 
     31 CA         47.5580  -15.2920  -11.0790 C.3       9 GLL5        0.0000 
     32 CA         50.7900  -15.3590   -8.8670 C.3       6 GLP5        0.0000 
     33 CA         45.8655  -12.3577   -7.6147 C.3       3 GLC5        0.0000 
     34 CA         45.7930  -10.3670   -6.8650 C.3       6 GLP5        0.0000 
     35 CA         49.0620   -9.8580   -6.7062 C.3       3 GLC5        0.0000 
     36 CA         48.8900  -12.2260   -6.7230 C.3       9 GLL5        0.0000 
     37 CA         48.7490   -7.9640   -6.5310 C.3       6 GLP5        0.0000 
@<TRIPOS>BOND
@<TRIPOS>SUBSTRUCTURE
     1 SEC2        1 GROUP        1 X    SEC  0     ROOT SEC X 2
     2 ZIC7        9 GROUP        1 X    ZIC  0     **** ZIC X 5
     3 GLC5       12 GROUP        1 X    GLC  0     **** GLC X 6
     4 SEP2        3 GROUP        1 Y    SEP  0     ROOT SEP Y 9
     5 ZIP7       11 GROUP        1 Y    ZIP  0     **** ZIP Y 12
     6 GLP5       14 GROUP        1 Y    GLP  0     **** GLP Y 13
     7 SEL2        2 GROUP        1 Z    SEL  0     ROOT SEL Z 16
     8 ZIL7       10 GROUP        1 Z    ZIL  0     **** ZIL Z 19
     9 GLL5       13 GROUP        1 Z    GLL  0     **** GLL Z 20
@<TRIPOS>SET

