#    Name: 3ocx_2AM_1_ligand
#    Modification time : Tue Mar 25 04:10:20 2014

@<TRIPOS>MOLECULE
3ocx_2AM_1_ligand
   35    37     1     0     0
SMALL
NO_CHARGES


@<TRIPOS>ATOM
      1 P          42.8650  -13.5620   -8.9270 P.3       1 2AM263      0.0000 
      2 O1P        42.2410  -14.8580   -9.3680 O.co2     1 2AM263      0.0000 
      3 O2P        43.1030  -12.6420  -10.1010 O.co2     1 2AM263      0.0000 
      4 O3P        41.9610  -12.9610   -7.8930 O.co2     1 2AM263      0.0000 
      5 C5'        47.5580  -15.2920  -11.0790 C.3       1 2AM263      0.0000 
      6 O5'        47.4100  -13.8980  -11.2500 O.3       1 2AM263      0.0000 
      7 C4'        46.6960  -15.7800   -9.9190 C.3       1 2AM263      0.0000 
      8 O4'        47.2900  -15.4690   -8.6750 O.3       1 2AM263      0.0000 
      9 C3'        45.3290  -15.1250   -9.9010 C.3       1 2AM263      0.0000 
     10 O3'        44.4600  -16.1460   -9.4710 O.3       1 2AM263      0.0000 
     11 C2'        45.4340  -14.0480   -8.8420 C.3       1 2AM263      0.0000 
     12 O2'        44.2260  -13.9070   -8.1460 O.3       1 2AM263      0.0000 
     13 C1'        46.4420  -14.6490   -7.8870 C.3       1 2AM263      0.0000 
     14 N9         47.3180  -13.7130   -7.1590 N.pl3     1 2AM263      0.0000 
     15 C8         47.4650  -13.6130   -5.8000 C.2       1 2AM263      0.0000 
     16 N7         48.4270  -12.6920   -5.5440 N.2       1 2AM263      0.0000 
     17 C5         48.8900  -12.2260   -6.7230 C.ar      1 2AM263      0.0000 
     18 C6         49.8600  -11.2780   -7.0400 C.ar      1 2AM263      0.0000 
     19 N6         50.5190  -10.6570   -6.0720 N.pl3     1 2AM263      0.0000 
     20 N1         50.1300  -11.0000   -8.3540 N.ar      1 2AM263      0.0000 
     21 C2         49.4460  -11.6540   -9.3590 C.ar      1 2AM263      0.0000 
     22 N3         48.4770  -12.5920   -9.0440 N.ar      1 2AM263      0.0000 
     23 C4         48.2180  -12.8710   -7.7440 C.ar      1 2AM263      0.0000 
     24 H          48.5996  -15.5730  -10.8583 H         1 2AM263      0.0000 
     25 H          47.2536  -15.8530  -11.9763 H         1 2AM263      0.0000 
     26 H          46.5496  -16.8477  -10.0167 H         1 2AM263      0.0000 
     27 H          45.1205  -14.7278  -10.8231 H         1 2AM263      0.0000 
     28 H          45.8266  -13.1828   -9.2518 H         1 2AM263      0.0000 
     29 H          45.9087  -15.2813   -7.1784 H         1 2AM263      0.0000 
     30 H          46.9687  -14.1123   -5.1488 H         1 2AM263      0.0000 
     31 H          51.2041   -9.9896   -6.3640 H         1 2AM263      0.0000 
     32 H          50.2715  -10.9121   -5.1373 H         1 2AM263      0.0000 
     33 H          49.6556  -11.4450  -10.3475 H         1 2AM263      0.0000 
     34 H          47.8434  -13.4913  -10.4458 H         1 2AM263      0.0000 
     35 H          43.5574  -15.7175   -9.4305 H         1 2AM263      0.0000 
@<TRIPOS>BOND
     1    2    1 ar   
     2    3    1 ar   
     3    4    1 ar   
     4   12    1 1    
     5    6    5 1    
     6    7    5 1    
     7   24    5 1    
     8   25    5 1    
     9   34    6 1    
    10    8    7 1    
    11    9    7 1    
    12   26    7 1    
    13   13    8 1    
    14   10    9 1    
    15   11    9 1    
    16   27    9 1    
    17   35   10 1    
    18   12   11 1    
    19   13   11 1    
    20   28   11 1    
    21   14   13 1    
    22   29   13 1    
    23   15   14 1    
    24   23   14 1    
    25   16   15 2    
    26   30   15 1    
    27   17   16 1    
    28   18   17 ar   
    29   23   17 ar   
    30   19   18 1    
    31   20   18 ar   
    32   31   19 1    
    33   32   19 1    
    34   21   20 ar   
    35   22   21 ar   
    36   33   21 1    
    37   23   22 ar   
@<TRIPOS>SUBSTRUCTURE
     1 2AM263      1 GROUP   
@<TRIPOS>SET

