#    Name: 3u1y_03I_2_INTS_M
#    Modification time : Mon Mar 24 21:19:17 2014

@<TRIPOS>MOLECULE
3u1y_03I_2_INTS_M
   82     0    12     0     0
SMALL
NO_CHARGES


@<TRIPOS>ATOM
      1 CA         20.8700   31.1560   -8.8990 C.3       4 GLC5        0.0000 
      2 CA         21.2410   30.4760   -6.8340 C.3      12 GLL5        0.0000 
      3 CA         20.4990   31.8360  -10.9640 C.3       8 GLP5        0.0000 
      4 CA         18.5960   31.1425   -7.4340 C.3       4 GLC5        0.0000 
      5 CA         20.0000   29.9140   -6.6170 C.3      12 GLL5        0.0000 
      6 CA         17.1920   32.3710   -8.2510 C.3       8 GLP5        0.0000 
      7 CA         17.9355   30.8435   -5.6180 C.3       4 GLC5        0.0000 
      8 CA         19.5090   29.7400   -5.3290 C.3      12 GLL5        0.0000 
      9 CA         16.3620   31.9470   -5.9070 C.3       8 GLP5        0.0000 
     10 CA         19.0595   31.1450   -2.9850 C.3       4 GLC5        0.0000 
     11 CA         20.3000   30.1200   -4.2580 C.3      12 GLL5        0.0000 
     12 CA         17.8190   32.1700   -1.7120 C.3       8 GLP5        0.0000 
     13 CA         24.5770   30.1930   -4.8720 C.3       4 GLC5        0.0000 
     14 CA         23.7430   30.9130   -3.2750 C.3      12 GLL5        0.0000 
     15 CA         25.4110   29.4730   -6.4690 C.3       8 GLP5        0.0000 
     16 CA         21.3020   29.9940   -1.0720 C.3       4 GLC5        0.0000 
     17 CA         21.7810   31.7300   -2.2410 C.3      12 GLL5        0.0000 
     18 CA         20.8230   28.2580    0.0970 C.3       8 GLP5        0.0000 
     19 CA         19.8000   31.9500   -1.9765 C.3       4 GLC5        0.0000 
     20 CA         23.7365   38.3795   -0.0890 C.3       4 GLC5        0.0000 
     21 CA         24.5910   36.9290    0.4230 C.3      12 GLL5        0.0000 
     22 CA         22.8820   39.8300   -0.6010 C.3       8 GLP5        0.0000 
     23 CA         23.5025   37.3020    2.0020 C.3       4 GLC5        0.0000 
     24 CA         22.4140   37.6750    3.5810 C.3       8 GLP5        0.0000 
     25 CA         25.6160   38.6970    1.0655 C.3       4 GLC5        0.0000 
     26 CA         26.6410   40.4650    1.7080 C.3       8 GLP5        0.0000 
     27 N          27.9155   38.1055    1.6015 N.am      2 SEC2        0.0000 
     28 N          26.9220   36.8310    1.6480 N.am     10 SEL2        0.0000 
     29 N          28.9090   39.3800    1.5550 N.am      6 SEP2        0.0000 
     30 CA         28.1380   32.6050   -0.2035 C.3       4 GLC5        0.0000 
     31 CA         27.3490   33.8780    0.9380 C.3      12 GLL5        0.0000 
     32 CA         28.9270   31.3320   -1.3450 C.3       8 GLP5        0.0000 
     33 CA         28.5810   33.8900    2.5480 C.3       4 GLC5        0.0000 
     34 CA         29.8130   33.9020    4.1580 C.3       8 GLP5        0.0000 
     35 Zn         23.9780   34.9905    3.6860 Zn        3 ZIC7        0.0000 
     36 Zn         24.1650   34.7450    2.6220 Zn       11 ZIL7        0.0000 
     37 Zn         23.7910   35.2360    4.7500 Zn        7 ZIP7        0.0000 
     38 N          23.0680   34.4825    1.9730 N.am      2 SEC2        0.0000 
     39 N          24.1650   34.7450    2.6220 N.am     10 SEL2        0.0000 
     40 N          21.9710   34.2200    1.3240 N.am      6 SEP2        0.0000 
     41 CA         20.1070   27.6810   -7.5455 C.3       4 GLC5        0.0000 
     42 CA         18.3710   28.5380   -7.5200 C.3      12 GLL5        0.0000 
     43 CA         21.8430   26.8240   -7.5710 C.3       8 GLP5        0.0000 
     44 CA         18.1570   29.5555  -10.4935 C.3       4 GLC5        0.0000 
     45 CA         17.9150   28.1060   -8.8810 C.3      12 GLL5        0.0000 
     46 CA         18.3990   31.0050  -12.1060 C.3       8 GLP5        0.0000 
     47 CA         19.7095   27.3115   -8.9635 C.3       4 GLC5        0.0000 
     48 CA         21.5040   26.5170   -9.0460 C.3       8 GLP5        0.0000 
     49 Zn         24.6045   34.5260    4.6680 Zn        3 ZIC7        0.0000 
     50 Zn         25.4180   33.8160    4.5860 Zn       11 ZIL7        0.0000 
     51 O          25.8690   32.8845    5.2375 O.2       1 ALC1        0.0000 
     52 O          25.4180   33.8160    4.5860 O.2       9 ALL1        0.0000 
     53 O          26.3200   31.9530    5.8890 O.2       5 ALP1        0.0000 
     54 CA         16.8560   29.8700  -11.4385 C.3       4 GLC5        0.0000 
     55 CA         15.3130   28.7350  -10.7710 C.3      12 GLL5        0.0000 
     56 CA         16.0020   29.9855  -12.6915 C.3       4 GLC5        0.0000 
     57 CA         14.9190   28.3940  -12.1930 C.3      12 GLL5        0.0000 
     58 CA         17.0850   31.5770  -13.1900 C.3       8 GLP5        0.0000 
     59 CA         21.7345   28.7435   -6.9317 C.3       4 GLC5        0.0000 
     60 CA         22.0110   30.8500   -5.7510 C.3      12 GLL5        0.0000 
     61 CA         23.5185   30.0680   -6.3808 C.3       4 GLC5        0.0000 
     62 CA         21.8235   32.4862   -5.5424 C.3       4 GLC5        0.0000 
     63 CA         22.1350   34.3520   -5.1170 C.3       8 GLP5        0.0000 
     64 CA         20.7988   28.3255   -6.7720 C.3       4 GLC5        0.0000 
     65 CA         19.2993   28.3685   -3.7273 C.3       4 GLC5        0.0000 
     66 CA         18.6940   26.8070   -2.6610 C.3       8 GLP5        0.0000 
     67 CA         22.1803   28.7808   -4.3204 C.3       4 GLC5        0.0000 
     68 CA         23.3190   27.1190   -3.9610 C.3       8 GLP5        0.0000 
     69 CA         23.1883   29.0628   -3.6292 C.3       4 GLC5        0.0000 
     70 CA         22.3720   31.1000   -3.3200 C.3      12 GLL5        0.0000 
     71 CA         25.9887   31.6920   -3.1910 C.3       4 GLC5        0.0000 
     72 CA         27.8490   32.2680   -3.6460 C.3       8 GLP5        0.0000 
     73 CA         20.9962   32.5315   -0.0710 C.3       4 GLC5        0.0000 
     74 CA         22.5380   32.1360   -1.1630 C.3      12 GLL5        0.0000 
     75 CA         19.8330   33.1300    1.5600 C.3       8 GLP5        0.0000 
     76 CA         22.2771   32.8601   -3.9431 C.3       4 GLC5        0.0000 
     77 CA         23.2400   30.7982    0.4865 C.3       4 GLC5        0.0000 
     78 CA         23.9020   31.9340   -1.1230 C.3      12 GLL5        0.0000 
     79 CA         22.5290   29.3850    1.5050 C.3       8 GLP5        0.0000 
     80 CA         17.6675   30.3465   -8.2257 C.3       4 GLC5        0.0000 
     81 CA         14.8100   30.4817  -11.2445 C.3       4 GLC5        0.0000 
     82 CA         14.5040   32.3990  -11.0070 C.3       8 GLP5        0.0000 
@<TRIPOS>BOND
@<TRIPOS>SUBSTRUCTURE
     1 ALC1       51 GROUP        1 X    ALC  0     ROOT ALC X 1
     2 SEC2       27 GROUP        1 X    SEC  0     **** SEC X 2
     3 ZIC7       35 GROUP        1 X    ZIC  0     **** ZIC X 5
     4 GLC5        1 GROUP        1 X    GLC  0     **** GLC X 6
     5 ALP1       53 GROUP        1 Y    ALP  0     ROOT ALP Y 8
     6 SEP2       29 GROUP        1 Y    SEP  0     **** SEP Y 9
     7 ZIP7       37 GROUP        1 Y    ZIP  0     **** ZIP Y 12
     8 GLP5        3 GROUP        1 Y    GLP  0     **** GLP Y 13
     9 ALL1       52 GROUP        1 Z    ALL  0     ROOT ALL Z 15
    10 SEL2       28 GROUP        1 Z    SEL  0     **** SEL Z 16
    11 ZIL7       36 GROUP        1 Z    ZIL  0     **** ZIL Z 19
    12 GLL5        2 GROUP        1 Z    GLL  0     **** GLL Z 20
@<TRIPOS>SET

