#    Name: 3u1y_03I_2_ligand
#    Modification time : Mon Mar 24 21:19:17 2014

@<TRIPOS>MOLECULE
3u1y_03I_2_ligand
   69    71     1     0     0
SMALL
NO_CHARGES


@<TRIPOS>ATOM
      1 C1         21.5550   30.6800   -4.4520 C.ar      1 03I405      0.0000 
      2 C2         22.0110   30.8500   -5.7510 C.ar      1 03I405      0.0000 
      3 C3         21.2410   30.4760   -6.8340 C.ar      1 03I405      0.0000 
      4 C4         20.0000   29.9140   -6.6170 C.ar      1 03I405      0.0000 
      5 C5         19.5090   29.7400   -5.3290 C.ar      1 03I405      0.0000 
      6 C6         20.3000   30.1200   -4.2580 C.ar      1 03I405      0.0000 
      7 O7         19.2980   29.5850   -7.7710 O.3       1 03I405      0.0000 
      8 C8         22.3720   31.1000   -3.3200 C.ar      1 03I405      0.0000 
      9 C9         23.7430   30.9130   -3.2750 C.ar      1 03I405      0.0000 
     10 C10        24.5140   31.3190   -2.1970 C.ar      1 03I405      0.0000 
     11 C11        23.9020   31.9340   -1.1230 C.ar      1 03I405      0.0000 
     12 C12        22.5380   32.1360   -1.1630 C.ar      1 03I405      0.0000 
     13 C13        21.7810   31.7300   -2.2410 C.ar      1 03I405      0.0000 
     14 C14        24.6820   32.3880    0.0790 C.3       1 03I405      0.0000 
     15 C15        25.0770   33.8430   -0.0890 C.3       1 03I405      0.0000 
     16 C16        25.9590   34.4910    0.9790 C.3       1 03I405      0.0000 
     17 C17        25.3060   34.3720    2.3640 C.2       1 03I405      0.0000 
     18 S18        26.2130   36.2120    0.5410 S.o2      1 03I405      0.0000 
     19 C19        24.5910   36.9290    0.4230 C.3       1 03I405      0.0000 
     20 O20        26.9220   36.8310    1.6480 O.2       1 03I405      0.0000 
     21 O21        26.7880   36.3260   -0.7920 O.2       1 03I405      0.0000 
     22 C22        27.3490   33.8780    0.9380 C.3       1 03I405      0.0000 
     23 N23        26.0840   33.7880    3.3360 N.am      1 03I405      0.0000 
     24 O24        24.1650   34.7450    2.6220 O.2       1 03I405      0.0000 
     25 C25        18.3710   28.5380   -7.5200 C.3       1 03I405      0.0000 
     26 C26        17.9150   28.1060   -8.8810 C.3       1 03I405      0.0000 
     27 C27        16.4500   27.7540   -8.8040 C.3       1 03I405      0.0000 
     28 O28        25.4180   33.8160    4.5860 O.3       1 03I405      0.0000 
     29 N29        15.9740   27.5200  -10.1940 N.4       1 03I405      0.0000 
     30 C30        15.3130   28.7350  -10.7710 C.3       1 03I405      0.0000 
     31 C31        14.9190   28.3940  -12.1930 C.3       1 03I405      0.0000 
     32 O32        14.0600   27.2600  -12.1410 O.3       1 03I405      0.0000 
     33 C33        14.7860   26.0950  -11.7370 C.3       1 03I405      0.0000 
     34 C34        15.1720   26.2620  -10.2820 C.3       1 03I405      0.0000 
     35 H          22.9496   31.2667   -5.9087 H         1 03I405      0.0000 
     36 H          21.5884   30.6147   -7.7901 H         1 03I405      0.0000 
     37 H          18.5825   29.3395   -5.1774 H         1 03I405      0.0000 
     38 H          19.9486   29.9839   -3.2901 H         1 03I405      0.0000 
     39 H          24.2159   30.4475   -4.0852 H         1 03I405      0.0000 
     40 H          25.5277   31.1632   -2.1995 H         1 03I405      0.0000 
     41 H          22.0693   32.6066   -0.3592 H         1 03I405      0.0000 
     42 H          20.7584   31.8980   -2.2441 H         1 03I405      0.0000 
     43 H          25.5796   31.7829    0.1859 H         1 03I405      0.0000 
     44 H          24.0735   32.2828    0.9744 H         1 03I405      0.0000 
     45 H          24.1411   34.4586   -0.1895 H         1 03I405      0.0000 
     46 H          25.5883   33.9625   -1.0836 H         1 03I405      0.0000 
     47 H          26.9578   33.4084    3.2086 H         1 03I405      0.0000 
     48 H          17.5154   28.8806   -6.9587 H         1 03I405      0.0000 
     49 H          18.8333   27.6979   -7.0249 H         1 03I405      0.0000 
     50 H          18.4795   27.2373   -9.2006 H         1 03I405      0.0000 
     51 H          18.0563   28.9132   -9.5907 H         1 03I405      0.0000 
     52 H          15.9065   28.5742   -8.3553 H         1 03I405      0.0000 
     53 H          16.3263   26.8587   -8.2103 H         1 03I405      0.0000 
     54 H          16.9112   27.3425  -10.8125 H         1 03I405      0.0000 
     55 H          16.0024   29.5637  -10.7782 H         1 03I405      0.0000 
     56 H          14.4306   28.9817  -10.2031 H         1 03I405      0.0000 
     57 H          15.8274   28.1903  -12.7585 H         1 03I405      0.0000 
     58 H          14.4218   29.2611  -12.6258 H         1 03I405      0.0000 
     59 H          15.6982   25.9664  -12.3203 H         1 03I405      0.0000 
     60 H          14.1820   25.1919  -11.8292 H         1 03I405      0.0000 
     61 H          14.2816   26.3450   -9.6824 H         1 03I405      0.0000 
     62 H          15.7650   25.4194   -9.9697 H         1 03I405      0.0000 
     63 H          24.6302   37.8982    0.1797 H         1 03I405      0.0000 
     64 H          24.0337   36.4746   -0.2720 H         1 03I405      0.0000 
     65 H          24.0923   36.8637    1.2873 H         1 03I405      0.0000 
     66 H          27.7888   34.0139    0.0503 H         1 03I405      0.0000 
     67 H          27.9519   34.2782    1.6281 H         1 03I405      0.0000 
     68 H          27.3253   32.8924    1.1055 H         1 03I405      0.0000 
     69 H          25.3615   32.8590    4.8705 H         1 03I405      0.0000 
@<TRIPOS>BOND
     1    2    1 ar   
     2    6    1 ar   
     3    8    1 1    
     4    3    2 ar   
     5   35    2 1    
     6    4    3 ar   
     7   36    3 1    
     8    5    4 ar   
     9    7    4 1    
    10    6    5 ar   
    11   37    5 1    
    12   38    6 1    
    13   25    7 1    
    14    9    8 ar   
    15   13    8 ar   
    16   10    9 ar   
    17   39    9 1    
    18   11   10 ar   
    19   40   10 1    
    20   12   11 ar   
    21   14   11 1    
    22   13   12 ar   
    23   41   12 1    
    24   42   13 1    
    25   15   14 1    
    26   43   14 1    
    27   44   14 1    
    28   16   15 1    
    29   45   15 1    
    30   46   15 1    
    31   17   16 1    
    32   18   16 1    
    33   22   16 1    
    34   23   17 am   
    35   24   17 2    
    36   19   18 1    
    37   20   18 2    
    38   21   18 2    
    39   63   19 1    
    40   64   19 1    
    41   65   19 1    
    42   66   22 1    
    43   67   22 1    
    44   68   22 1    
    45   28   23 1    
    46   47   23 1    
    47   26   25 1    
    48   48   25 1    
    49   49   25 1    
    50   27   26 1    
    51   50   26 1    
    52   51   26 1    
    53   29   27 1    
    54   52   27 1    
    55   53   27 1    
    56   69   28 1    
    57   30   29 1    
    58   34   29 1    
    59   54   29 1    
    60   31   30 1    
    61   55   30 1    
    62   56   30 1    
    63   32   31 1    
    64   57   31 1    
    65   58   31 1    
    66   33   32 1    
    67   34   33 1    
    68   59   33 1    
    69   60   33 1    
    70   61   34 1    
    71   62   34 1    
@<TRIPOS>SUBSTRUCTURE
     1 03I405      1 GROUP   
@<TRIPOS>SET

