#    Name: 2o63_MYC_4_INTS_M
#    Modification time : Tue Mar 25 22:00:35 2014

@<TRIPOS>MOLECULE
2o63_MYC_4_INTS_M
   54     0     6     0     0
SMALL
NO_CHARGES


@<TRIPOS>ATOM
      1 CA         74.2480   32.5750   -1.6175 C.3       2 GLC5        0.0000 
      2 CA         76.1760   33.0730   -1.5020 C.3       6 GLL5        0.0000 
      3 CA         72.3200   32.0770   -1.7330 C.3       4 GLP5        0.0000 
      4 CA         76.8930   34.1870   -3.8290 C.3       2 GLC5        0.0000 
      5 CA         75.6950   34.1640   -2.2140 C.3       6 GLL5        0.0000 
      6 CA         78.0910   34.2100   -5.4440 C.3       4 GLP5        0.0000 
      7 CA         76.7560   36.9880   -2.2570 C.3       2 GLC5        0.0000 
      8 CA         75.5110   35.4250   -1.4930 C.3       6 GLL5        0.0000 
      9 CA         78.0010   38.5510   -3.0210 C.3       4 GLP5        0.0000 
     10 CA         77.7710   35.9925   -0.1260 C.3       2 GLC5        0.0000 
     11 CA         75.8190   35.4800   -0.0670 C.3       6 GLL5        0.0000 
     12 CA         79.7230   36.5050   -0.1850 C.3       4 GLP5        0.0000 
     13 CA         72.6665   40.0750    1.4510 C.3       2 GLC5        0.0000 
     14 CA         74.5230   40.2730    0.4350 C.3       6 GLL5        0.0000 
     15 CA         70.8100   39.8770    2.4670 C.3       4 GLP5        0.0000 
     16 CA         72.4720   41.3215    1.7055 C.3       2 GLC5        0.0000 
     17 CA         74.4470   41.3480    1.3250 C.3       6 GLL5        0.0000 
     18 CA         70.4970   41.2950    2.0860 C.3       4 GLP5        0.0000 
     19 CA         72.8475   40.5260    2.5930 C.3       2 GLC5        0.0000 
     20 CA         74.8850   41.1750    2.7190 C.3       6 GLL5        0.0000 
     21 O          73.0540   42.8220   -0.0240 O.2       1 ALC1        0.0000 
     22 O          73.9940   42.5470    0.9600 O.2       5 ALL1        0.0000 
     23 O          72.1140   43.0970   -1.0080 O.2       3 ALP1        0.0000 
     24 O          74.4465   39.0210   -3.5125 O.2       1 ALC1        0.0000 
     25 O          74.4100   38.9180   -2.0100 O.2       5 ALL1        0.0000 
     26 O          74.4830   39.1240   -5.0150 O.2       3 ALP1        0.0000 
     27 O          76.5865   31.0645   -0.0765 O.2       1 ALC1        0.0000 
     28 O          76.8960   32.1090    0.5290 O.2       5 ALL1        0.0000 
     29 O          76.2770   30.0200   -0.6820 O.2       3 ALP1        0.0000 
     30 O          76.2220   30.8320    0.9030 O.2       1 ALC1        0.0000 
     31 O          75.5480   29.5550    1.2770 O.2       3 ALP1        0.0000 
     32 CA         77.7575   31.9195   -1.6043 C.3       2 GLC5        0.0000 
     33 CA         76.4420   33.1690   -0.1350 C.3       6 GLL5        0.0000 
     34 CA         79.2060   30.7180   -2.3900 C.3       4 GLP5        0.0000 
     35 CA         73.7620   34.1272   -2.0343 C.3       2 GLC5        0.0000 
     36 CA         71.9210   33.4600   -2.2150 C.3       4 GLP5        0.0000 
     37 CA         73.6520   36.1552   -0.5860 C.3       2 GLC5        0.0000 
     38 CA         71.6390   36.8580   -0.3920 C.3       4 GLP5        0.0000 
     39 CA         78.2800   33.9357    0.3120 C.3       2 GLC5        0.0000 
     40 CA         76.2800   34.3540    0.5730 C.3       6 GLL5        0.0000 
     41 CA         80.1990   34.1100    0.4050 C.3       4 GLP5        0.0000 
     42 CA         74.5124   33.3720    0.3800 C.3       2 GLC5        0.0000 
     43 CA         72.7790   32.7010    0.7010 C.3       4 GLP5        0.0000 
     44 CA         76.4995   38.1960   -1.8680 C.3       2 GLC5        0.0000 
     45 CA         75.1360   37.8380   -0.0590 C.3       6 GLL5        0.0000 
     46 CA         76.6917   40.0572    0.9745 C.3       2 GLC5        0.0000 
     47 CA         75.0120   39.0280    0.8590 C.3       6 GLL5        0.0000 
     48 CA         78.6160   40.4640    1.3020 C.3       4 GLP5        0.0000 
     49 CA         73.3220   37.6462   -0.1600 C.3       2 GLC5        0.0000 
     50 CA         75.0830   41.8342   -0.6045 C.3       2 GLC5        0.0000 
     51 CA         75.6810   42.8580   -2.0890 C.3       4 GLP5        0.0000 
     52 CA         76.6410   40.8627    1.6620 C.3       2 GLC5        0.0000 
     53 CA         77.0083   39.8963    1.9823 C.3       2 GLC5        0.0000 
     54 CA         75.3830   39.8400    3.1330 C.3       6 GLL5        0.0000 
@<TRIPOS>BOND
@<TRIPOS>SUBSTRUCTURE
     1 ALC1       21 GROUP        1 X    ALC  0     ROOT ALC X 1
     2 GLC5        1 GROUP        1 X    GLC  0     **** GLC X 6
     3 ALP1       23 GROUP        1 Y    ALP  0     ROOT ALP Y 8
     4 GLP5        3 GROUP        1 Y    GLP  0     **** GLP Y 13
     5 ALL1       22 GROUP        1 Z    ALL  0     ROOT ALL Z 15
     6 GLL5        2 GROUP        1 Z    GLL  0     **** GLL Z 20
@<TRIPOS>SET

