#    Name: 2o63_MYC_4_ligand
#    Modification time : Tue Mar 25 22:00:35 2014

@<TRIPOS>MOLECULE
2o63_MYC_4_ligand
   33    35     1     0     0
SMALL
NO_CHARGES


@<TRIPOS>ATOM
      1 C1         76.1760   33.0730   -1.5020 C.ar      1 MYC501      0.0000 
      2 C2         75.6950   34.1640   -2.2140 C.ar      1 MYC501      0.0000 
      3 C3         75.5110   35.4250   -1.4930 C.ar      1 MYC501      0.0000 
      4 C4         75.8190   35.4800   -0.0670 C.ar      1 MYC501      0.0000 
      5 C5         76.2800   34.3540    0.5730 C.ar      1 MYC501      0.0000 
      6 C6         76.4420   33.1690   -0.1350 C.ar      1 MYC501      0.0000 
      7 C9         75.0160   36.6390   -2.1640 C.2       1 MYC501      0.0000 
      8 C10        74.8600   37.8440   -1.3710 C.2       1 MYC501      0.0000 
      9 C11        75.1360   37.8380   -0.0590 C.2       1 MYC501      0.0000 
     10 C14        75.0120   39.0280    0.8590 C.ar      1 MYC501      0.0000 
     11 C15        74.5230   40.2730    0.4350 C.ar      1 MYC501      0.0000 
     12 C16        74.4470   41.3480    1.3250 C.ar      1 MYC501      0.0000 
     13 C17        74.8850   41.1750    2.7190 C.ar      1 MYC501      0.0000 
     14 C18        75.3830   39.8400    3.1330 C.ar      1 MYC501      0.0000 
     15 C19        75.4180   38.8170    2.1920 C.ar      1 MYC501      0.0000 
     16 O12        75.6310   36.6410    0.6020 O.3       1 MYC501      0.0000 
     17 O13        74.7690   36.6220   -3.3600 O.2       1 MYC501      0.0000 
     18 O23        75.7850   39.6490    4.3880 O.3       1 MYC501      0.0000 
     19 O24        74.8130   42.1920    3.5760 O.3       1 MYC501      0.0000 
     20 O25        73.9940   42.5470    0.9600 O.3       1 MYC501      0.0000 
     21 O27        74.4100   38.9180   -2.0100 O.3       1 MYC501      0.0000 
     22 O29        76.8960   32.1090    0.5290 O.3       1 MYC501      0.0000 
     23 O30        75.4130   34.1070   -3.5160 O.3       1 MYC501      0.0000 
     24 H          76.3405   32.1753   -1.9885 H         1 MYC501      0.0000 
     25 H          76.5075   34.3817    1.5784 H         1 MYC501      0.0000 
     26 H          74.2181   40.3932   -0.5406 H         1 MYC501      0.0000 
     27 H          75.7488   37.8752    2.4691 H         1 MYC501      0.0000 
     28 H          75.8093   40.5627    4.7937 H         1 MYC501      0.0000 
     29 H          75.3436   41.8983    4.3711 H         1 MYC501      0.0000 
     30 H          73.2695   42.3590    0.2968 H         1 MYC501      0.0000 
     31 H          74.5398   38.7149   -2.9805 H         1 MYC501      0.0000 
     32 H          76.2692   31.3669    0.2914 H         1 MYC501      0.0000 
     33 H          75.0945   35.0250   -3.7521 H         1 MYC501      0.0000 
@<TRIPOS>BOND
     1    2    1 ar   
     2    6    1 ar   
     3   24    1 1    
     4    3    2 ar   
     5   23    2 1    
     6    4    3 ar   
     7    7    3 1    
     8    5    4 ar   
     9   16    4 1    
    10    6    5 ar   
    11   25    5 1    
    12   22    6 1    
    13    8    7 1    
    14   17    7 2    
    15    9    8 2    
    16   21    8 1    
    17   10    9 1    
    18   16    9 1    
    19   11   10 ar   
    20   15   10 ar   
    21   12   11 ar   
    22   26   11 1    
    23   13   12 ar   
    24   20   12 1    
    25   14   13 ar   
    26   19   13 1    
    27   15   14 ar   
    28   18   14 1    
    29   27   15 1    
    30   28   18 1    
    31   29   19 1    
    32   30   20 1    
    33   31   21 1    
    34   32   22 1    
    35   33   23 1    
@<TRIPOS>SUBSTRUCTURE
     1 MYC501      1 GROUP   
@<TRIPOS>SET

