#    Name: 3shr_CMP_1_INTS_M
#    Modification time : Tue Mar 25 12:38:13 2014

@<TRIPOS>MOLECULE
3shr_CMP_1_INTS_M
   55     0     9     0     0
SMALL
NO_CHARGES


@<TRIPOS>ATOM
      1 NZ        -48.8995   -4.3050  -34.3035 N.4       2 LYC4        0.0000 
      2 NZ        -50.1430   -4.6000  -35.0460 N.4       8 LYL4        0.0000 
      3 NZ        -46.4020   -4.2110  -33.9400 N.4       5 LYP4        0.0000 
      4 N         -51.1180   -5.1360  -34.1730 N.am      1 SEC2        0.0000 
      5 N         -50.1430   -4.6000  -35.0460 N.am      7 SEL2        0.0000 
      6 N         -52.0930   -5.6720  -33.3000 N.am      4 SEP2        0.0000 
      7 N         -48.8995   -4.3050  -34.3035 N.am      1 SEC2        0.0000 
      8 N         -47.6560   -4.0100  -33.5610 N.am      4 SEP2        0.0000 
      9 N         -50.8650   -7.5010  -37.1375 N.am      1 SEC2        0.0000 
     10 N         -51.3030   -6.2230  -36.6520 N.am      7 SEL2        0.0000 
     11 N         -50.4270   -8.7790  -37.6230 N.am      4 SEP2        0.0000 
     12 N         -52.0320   -6.7850  -37.5570 N.am      1 SEC2        0.0000 
     13 N         -52.7610   -7.3470  -38.4620 N.am      4 SEP2        0.0000 
     14 CA        -47.8120   -4.7190  -38.4845 C.3       3 GLC5        0.0000 
     15 CA        -49.7680   -4.3620  -38.8240 C.3       9 GLL5        0.0000 
     16 CA        -45.8560   -5.0760  -38.1450 C.3       6 GLP5        0.0000 
     17 CA        -50.1895   -5.5190  -40.4745 C.3       3 GLC5        0.0000 
     18 CA        -50.6110   -6.6760  -42.1250 C.3       6 GLP5        0.0000 
     19 CA        -53.1950   -4.1165  -36.7225 C.3       3 GLC5        0.0000 
     20 CA        -51.9950   -3.5400  -38.1390 C.3       9 GLL5        0.0000 
     21 CA        -54.3950   -4.6930  -35.3060 C.3       6 GLP5        0.0000 
     22 N         -50.9700   -2.1775  -36.5275 N.am      1 SEC2        0.0000 
     23 N         -51.6840   -3.7470  -36.7740 N.am      7 SEL2        0.0000 
     24 N         -50.2560   -0.6080  -36.2810 N.am      4 SEP2        0.0000 
     25 N         -52.4960   -3.4100  -35.3080 N.am      1 SEC2        0.0000 
     26 N         -53.3080   -3.0730  -33.8420 N.am      4 SEP2        0.0000 
     27 CA        -51.8785   -0.4425  -37.9325 C.3       3 GLC5        0.0000 
     28 CA        -52.8510   -2.3250  -38.4750 C.3       9 GLL5        0.0000 
     29 CA        -50.9060    1.4400  -37.3900 C.3       6 GLP5        0.0000 
     30 CA        -54.4320   -3.4085  -37.8410 C.3       3 GLC5        0.0000 
     31 CA        -56.0130   -4.4920  -37.2070 C.3       6 GLP5        0.0000 
     32 N         -51.4380   -0.9370  -36.9275 N.am      1 SEC2        0.0000 
     33 N         -52.6200   -1.2660  -37.5740 N.am      7 SEL2        0.0000 
     34 CA        -51.2755   -0.2550  -39.3170 C.3       3 GLC5        0.0000 
     35 CA        -52.2990   -1.9370  -39.8530 C.3       9 GLL5        0.0000 
     36 CA        -50.2520    1.4270  -38.7810 C.3       6 GLP5        0.0000 
     37 CA        -54.5495   -4.9085  -44.6660 C.3       3 GLC5        0.0000 
     38 CA        -55.2120   -3.8700  -43.2620 C.3       9 GLL5        0.0000 
     39 CA        -53.8870   -5.9470  -46.0700 C.3       6 GLP5        0.0000 
     40 N         -55.1200   -6.7735  -42.8150 N.am      1 SEC2        0.0000 
     41 N         -55.0670   -5.1400  -42.8150 N.am      7 SEL2        0.0000 
     42 N         -55.1730   -8.4070  -42.8150 N.am      4 SEP2        0.0000 
     43 CA        -54.0355   -7.0300  -42.5230 C.3       3 GLC5        0.0000 
     44 CA        -54.2840   -5.3600  -41.7430 C.3       9 GLL5        0.0000 
     45 CA        -53.7870   -8.7000  -43.3030 C.3       6 GLP5        0.0000 
     46 CA        -54.0855   -5.6535  -43.9065 C.3       3 GLC5        0.0000 
     47 CA        -52.4475   -6.0180  -41.9340 C.3       3 GLC5        0.0000 
     48 CA        -48.8627   -2.9085  -40.0393 C.3       3 GLC5        0.0000 
     49 CA        -50.6850   -3.1780  -38.7790 C.3       9 GLL5        0.0000 
     50 CA        -47.4990   -2.0470  -41.2770 C.3       6 GLP5        0.0000 
     51 CA        -50.4335   -2.3930  -36.8940 C.3       3 GLC5        0.0000 
     52 CA        -49.5270   -1.4270  -35.3290 C.3       6 GLP5        0.0000 
     53 CA        -52.6084   -3.3224  -43.1936 C.3       3 GLC5        0.0000 
     54 CA        -54.5270   -2.8550  -42.5710 C.3       9 GLL5        0.0000 
     55 CA        -50.9040   -3.3430  -44.1870 C.3       6 GLP5        0.0000 
@<TRIPOS>BOND
@<TRIPOS>SUBSTRUCTURE
     1 SEC2        4 GROUP        1 X    SEC  0     ROOT SEC X 2
     2 LYC4        1 GROUP        1 X    LYC  0     **** LYC X 4
     3 GLC5       14 GROUP        1 X    GLC  0     **** GLC X 6
     4 SEP2        6 GROUP        1 Y    SEP  0     ROOT SEP Y 9
     5 LYP4        3 GROUP        1 Y    LYP  0     **** LYP Y 11
     6 GLP5       16 GROUP        1 Y    GLP  0     **** GLP Y 13
     7 SEL2        5 GROUP        1 Z    SEL  0     ROOT SEL Z 16
     8 LYL4        2 GROUP        1 Z    LYL  0     **** LYL Z 18
     9 GLL5       15 GROUP        1 Z    GLL  0     **** GLL Z 20
@<TRIPOS>SET

