#    Name: 3shr_CMP_1_ligand
#    Modification time : Tue Mar 25 12:38:13 2014

@<TRIPOS>MOLECULE
3shr_CMP_1_ligand
   33    36     1     0     0
SMALL
NO_CHARGES


@<TRIPOS>ATOM
      1 P         -50.6500   -4.9150  -36.3940 P.3       1 CMP401      0.0000 
      2 O1P       -50.1430   -4.6000  -35.0460 O.co2     1 CMP401      0.0000 
      3 O2P       -51.3030   -6.2230  -36.6520 O.co2     1 CMP401      0.0000 
      4 O5'       -49.4800   -4.7650  -37.4770 O.3       1 CMP401      0.0000 
      5 C5'       -49.7680   -4.3620  -38.8240 C.3       1 CMP401      0.0000 
      6 C4'       -50.6850   -3.1780  -38.7790 C.3       1 CMP401      0.0000 
      7 O4'       -51.1190   -2.6870  -40.0650 O.3       1 CMP401      0.0000 
      8 C3'       -51.9950   -3.5400  -38.1390 C.3       1 CMP401      0.0000 
      9 O3'       -51.6840   -3.7470  -36.7740 O.3       1 CMP401      0.0000 
     10 C2'       -52.8510   -2.3250  -38.4750 C.3       1 CMP401      0.0000 
     11 O2'       -52.6200   -1.2660  -37.5740 O.3       1 CMP401      0.0000 
     12 C1'       -52.2990   -1.9370  -39.8530 C.3       1 CMP401      0.0000 
     13 N9        -53.1940   -2.0900  -40.9980 N.pl3     1 CMP401      0.0000 
     14 C8        -53.6540   -1.0770  -41.8130 C.2       1 CMP401      0.0000 
     15 N7        -54.4560   -1.4830  -42.7650 N.2       1 CMP401      0.0000 
     16 C5        -54.5270   -2.8550  -42.5710 C.ar      1 CMP401      0.0000 
     17 C6        -55.2120   -3.8700  -43.2620 C.ar      1 CMP401      0.0000 
     18 N6        -55.9910   -3.6450  -44.3250 N.pl3     1 CMP401      0.0000 
     19 N1        -55.0670   -5.1400  -42.8150 N.ar      1 CMP401      0.0000 
     20 C2        -54.2840   -5.3600  -41.7430 C.ar      1 CMP401      0.0000 
     21 N3        -53.5900   -4.4870  -41.0120 N.ar      1 CMP401      0.0000 
     22 C4        -53.7560   -3.2410  -41.4840 C.ar      1 CMP401      0.0000 
     23 H         -50.2579   -5.1640  -39.3818 H         1 CMP401      0.0000 
     24 H         -48.8566   -4.0797  -39.3570 H         1 CMP401      0.0000 
     25 H         -50.2576   -2.3801  -38.2015 H         1 CMP401      0.0000 
     26 H         -52.3664   -4.3883  -38.6395 H         1 CMP401      0.0000 
     27 H         -53.8418   -2.6197  -38.5880 H         1 CMP401      0.0000 
     28 H         -52.0035   -0.8615  -39.7720 H         1 CMP401      0.0000 
     29 H         -53.3772   -0.1241  -41.6600 H         1 CMP401      0.0000 
     30 H         -56.0668   -2.6929  -44.6213 H         1 CMP401      0.0000 
     31 H         -56.4279   -4.4490  -44.7284 H         1 CMP401      0.0000 
     32 H         -54.2078   -6.4199  -41.4256 H         1 CMP401      0.0000 
     33 H         -53.2338   -1.4425  -36.8045 H         1 CMP401      0.0000 
@<TRIPOS>BOND
     1    2    1 ar   
     2    3    1 ar   
     3    4    1 1    
     4    9    1 1    
     5    5    4 1    
     6    6    5 1    
     7   23    5 1    
     8   24    5 1    
     9    7    6 1    
    10    8    6 1    
    11   25    6 1    
    12   12    7 1    
    13    9    8 1    
    14   10    8 1    
    15   26    8 1    
    16   11   10 1    
    17   12   10 1    
    18   27   10 1    
    19   33   11 1    
    20   13   12 1    
    21   28   12 1    
    22   14   13 1    
    23   22   13 1    
    24   15   14 2    
    25   29   14 1    
    26   16   15 1    
    27   17   16 ar   
    28   22   16 ar   
    29   18   17 1    
    30   19   17 ar   
    31   30   18 1    
    32   31   18 1    
    33   20   19 ar   
    34   21   20 ar   
    35   32   20 1    
    36   22   21 ar   
@<TRIPOS>SUBSTRUCTURE
     1 CMP401      1 GROUP   
@<TRIPOS>SET

