#    Name: 3ih0_ANP_1_INTS_M
#    Modification time : Tue Mar 25 16:32:26 2014

@<TRIPOS>MOLECULE
3ih0_ANP_1_INTS_M
   49     0    12     0     0
SMALL
NO_CHARGES


@<TRIPOS>ATOM
      1 N           8.6985   11.0705   21.3525 N.am      2 SEC2        0.0000 
      2 N           8.3570    9.9940   20.9200 N.am     10 SEL2        0.0000 
      3 N           9.0400   12.1470   21.7850 N.am      6 SEP2        0.0000 
      4 NZ          8.5255    7.3910   22.5200 N.4       3 LYC4        0.0000 
      5 NZ          7.8270    7.4850   21.2080 N.4      11 LYL4        0.0000 
      6 NZ          9.2240    7.2970   23.8320 N.4       7 LYP4        0.0000 
      7 N           8.5255    7.3910   22.5200 N.am      2 SEC2        0.0000 
      8 N           7.8270    7.4850   21.2080 N.am     10 SEL2        0.0000 
      9 N           9.2240    7.2970   23.8320 N.am      6 SEP2        0.0000 
     10 N           9.2035    6.7555   16.6650 N.am      2 SEC2        0.0000 
     11 N           9.4270    8.1020   16.6040 N.am     10 SEL2        0.0000 
     12 N           8.9800    5.4090   16.7260 N.am      6 SEP2        0.0000 
     13 CA         11.4075    7.1620   19.2045 C.3       4 GLC5        0.0000 
     14 CA         11.9610    8.6930   18.3990 C.3      12 GLL5        0.0000 
     15 CA         10.8540    5.6310   20.0100 C.3       8 GLP5        0.0000 
     16 CA         15.1350    8.5420   18.1520 C.3       4 GLC5        0.0000 
     17 CA         13.2780    9.4620   18.2380 C.3      12 GLL5        0.0000 
     18 CA         16.9920    7.6220   18.0660 C.3       8 GLP5        0.0000 
     19 O          12.5745   12.6925   17.4950 O.2       1 ALC1        0.0000 
     20 O          13.1160   11.8440   18.9250 O.2       9 ALL1        0.0000 
     21 O          12.0330   13.5410   16.0650 O.2       5 ALP1        0.0000 
     22 O          13.1340   13.5600   18.9490 O.2       1 ALC1        0.0000 
     23 O          13.1520   15.2760   18.9730 O.2       5 ALP1        0.0000 
     24 CA         14.7225   13.3445   17.2715 C.3       4 GLC5        0.0000 
     25 CA         14.4010   11.1400   17.0080 C.3      12 GLL5        0.0000 
     26 CA         15.0440   15.5490   17.5350 C.3       8 GLP5        0.0000 
     27 CA         13.5370    7.8785   16.1150 C.3       4 GLC5        0.0000 
     28 CA         14.6010    9.8110   16.3240 C.3      12 GLL5        0.0000 
     29 CA         12.4730    5.9460   15.9060 C.3       8 GLP5        0.0000 
     30 CA         12.7125    8.6795   11.8010 C.3       4 GLC5        0.0000 
     31 CA         13.7720   10.3020   12.7230 C.3      12 GLL5        0.0000 
     32 CA         11.6530    7.0570   10.8790 C.3       8 GLP5        0.0000 
     33 CA         16.2465   10.0430   10.6160 C.3       4 GLC5        0.0000 
     34 CA         14.3690   10.7160   11.4080 C.3      12 GLL5        0.0000 
     35 CA         18.1240    9.3700    9.8240 C.3       8 GLP5        0.0000 
     36 CA         16.9035   12.6240   13.6260 C.3       4 GLC5        0.0000 
     37 CA         16.5290   11.0640   12.4980 C.3      12 GLL5        0.0000 
     38 CA         17.2780   14.1840   14.7540 C.3       8 GLP5        0.0000 
     39 CA         17.3265   10.2170   11.1610 C.3       4 GLC5        0.0000 
     40 CA         17.7530    9.3930   13.3310 C.3       4 GLC5        0.0000 
     41 CA         18.9770    7.7220   14.1640 C.3       8 GLP5        0.0000 
     42 CA         12.5463    7.5117   17.1122 C.3       4 GLC5        0.0000 
     43 CA         13.5872    8.0047   19.9543 C.3       4 GLC5        0.0000 
     44 CA         14.5550    6.9320   21.5900 C.3       8 GLP5        0.0000 
     45 CA         15.7465    9.0488   17.3660 C.3       4 GLC5        0.0000 
     46 CA         13.2639   12.0517   13.1344 C.3       4 GLC5        0.0000 
     47 CA         12.1340   13.6900   13.2910 C.3       8 GLP5        0.0000 
     48 CA         14.7459    8.4793   12.5699 C.3       4 GLC5        0.0000 
     49 CA         15.0980    6.5450   12.1620 C.3       8 GLP5        0.0000 
@<TRIPOS>BOND
@<TRIPOS>SUBSTRUCTURE
     1 ALC1       19 GROUP        1 X    ALC  0     ROOT ALC X 1
     2 SEC2        1 GROUP        1 X    SEC  0     **** SEC X 2
     3 LYC4        4 GROUP        1 X    LYC  0     **** LYC X 4
     4 GLC5       13 GROUP        1 X    GLC  0     **** GLC X 6
     5 ALP1       21 GROUP        1 Y    ALP  0     ROOT ALP Y 8
     6 SEP2        3 GROUP        1 Y    SEP  0     **** SEP Y 9
     7 LYP4        6 GROUP        1 Y    LYP  0     **** LYP Y 11
     8 GLP5       15 GROUP        1 Y    GLP  0     **** GLP Y 13
     9 ALL1       20 GROUP        1 Z    ALL  0     ROOT ALL Z 15
    10 SEL2        2 GROUP        1 Z    SEL  0     **** SEL Z 16
    11 LYL4        5 GROUP        1 Z    LYL  0     **** LYL Z 18
    12 GLL5       14 GROUP        1 Z    GLL  0     **** GLL Z 20
@<TRIPOS>SET

