#    Name: 3ih0_ANP_1_ligand
#    Modification time : Tue Mar 25 16:32:26 2014

@<TRIPOS>MOLECULE
3ih0_ANP_1_ligand
   43    45     1     0     0
SMALL
NO_CHARGES


@<TRIPOS>ATOM
      1 PG          5.1880    7.6360   19.4100 P.3       1 ANP900      0.0000 
      2 O1G         5.5670    6.5190   20.3620 O.co2     1 ANP900      0.0000 
      3 O2G         3.9600    8.4120   19.8110 O.co2     1 ANP900      0.0000 
      4 O3G         5.0580    7.1300   17.9940 O.co2     1 ANP900      0.0000 
      5 PB          7.9600    8.6670   20.3290 P.3       1 ANP900      0.0000 
      6 O1B         8.3570    9.9940   20.9200 O.co2     1 ANP900      0.0000 
      7 O2B         7.8270    7.4850   21.2080 O.co2     1 ANP900      0.0000 
      8 N3B         6.4850    8.7890   19.3890 N.4       1 ANP900      0.0000 
      9 PA          9.3790    9.0770   17.7580 P.3       1 ANP900      0.0000 
     10 O1A         9.4270    8.1020   16.6040 O.co2     1 ANP900      0.0000 
     11 O2A         8.5060   10.2790   17.6340 O.co2     1 ANP900      0.0000 
     12 O3A         9.0240    8.2970   19.1640 O.3       1 ANP900      0.0000 
     13 O5'        10.8560    9.5740   18.1520 O.3       1 ANP900      0.0000 
     14 C5'        11.9610    8.6930   18.3990 C.3       1 ANP900      0.0000 
     15 C4'        13.2780    9.4620   18.2380 C.3       1 ANP900      0.0000 
     16 O4'        13.9180    8.8530   17.1230 O.3       1 ANP900      0.0000 
     17 C3'        13.1940   10.9520   17.8440 C.3       1 ANP900      0.0000 
     18 O3'        13.1160   11.8440   18.9250 O.3       1 ANP900      0.0000 
     19 C2'        14.4010   11.1400   17.0080 C.3       1 ANP900      0.0000 
     20 O2'        15.5390   11.5270   17.7810 O.3       1 ANP900      0.0000 
     21 C1'        14.6010    9.8110   16.3240 C.3       1 ANP900      0.0000 
     22 N9         14.0010    9.9280   14.9430 N.pl3     1 ANP900      0.0000 
     23 C8         12.7210    9.6760   14.5150 C.2       1 ANP900      0.0000 
     24 N7         12.5770    9.9020   13.1840 N.2       1 ANP900      0.0000 
     25 C5         13.7720   10.3020   12.7230 C.ar      1 ANP900      0.0000 
     26 C6         14.3690   10.7160   11.4080 C.ar      1 ANP900      0.0000 
     27 N6         13.6150   10.7360   10.2930 N.pl3     1 ANP900      0.0000 
     28 N1         15.7140   11.0720   11.3760 N.ar      1 ANP900      0.0000 
     29 C2         16.5290   11.0640   12.4980 C.ar      1 ANP900      0.0000 
     30 N3         16.0490   10.7010   13.7250 N.ar      1 ANP900      0.0000 
     31 C4         14.7170   10.3180   13.8900 C.ar      1 ANP900      0.0000 
     32 H          11.9761    7.8551   17.6955 H         1 ANP900      0.0000 
     33 H          11.9350    8.2853   19.4140 H         1 ANP900      0.0000 
     34 H          13.8772    9.3537   19.1053 H         1 ANP900      0.0000 
     35 H          12.3274   11.0255   17.1715 H         1 ANP900      0.0000 
     36 H          14.1681   11.8669   16.2379 H         1 ANP900      0.0000 
     37 H          15.6395    9.6215   16.2540 H         1 ANP900      0.0000 
     38 H          12.0004    9.3688   15.1081 H         1 ANP900      0.0000 
     39 H          14.0745   11.0342    9.4564 H         1 ANP900      0.0000 
     40 H          12.6626   10.4509   10.4007 H         1 ANP900      0.0000 
     41 H          17.5287   11.3425   12.3941 H         1 ANP900      0.0000 
     42 H          12.6545   12.6527   18.5603 H         1 ANP900      0.0000 
     43 H          15.1610   11.9160   18.6211 H         1 ANP900      0.0000 
@<TRIPOS>BOND
     1    2    1 ar   
     2    3    1 ar   
     3    4    1 ar   
     4    8    1 1    
     5    6    5 ar   
     6    7    5 ar   
     7    8    5 1    
     8   12    5 1    
     9   10    9 ar   
    10   11    9 ar   
    11   12    9 1    
    12   13    9 1    
    13   14   13 1    
    14   15   14 1    
    15   32   14 1    
    16   33   14 1    
    17   16   15 1    
    18   17   15 1    
    19   34   15 1    
    20   21   16 1    
    21   18   17 1    
    22   19   17 1    
    23   35   17 1    
    24   42   18 1    
    25   20   19 1    
    26   21   19 1    
    27   36   19 1    
    28   43   20 1    
    29   22   21 1    
    30   37   21 1    
    31   23   22 1    
    32   31   22 1    
    33   24   23 2    
    34   38   23 1    
    35   25   24 1    
    36   26   25 ar   
    37   31   25 ar   
    38   27   26 1    
    39   28   26 ar   
    40   39   27 1    
    41   40   27 1    
    42   29   28 ar   
    43   30   29 ar   
    44   41   29 1    
    45   31   30 ar   
@<TRIPOS>SUBSTRUCTURE
     1 ANP900      1 GROUP   
@<TRIPOS>SET

