#    Name: 1oz1_FPH_1_INTS_M
#    Modification time : Mon Mar 24 20:47:29 2014

@<TRIPOS>MOLECULE
1oz1_FPH_1_INTS_M
   67     0     6     0     0
SMALL
NO_CHARGES


@<TRIPOS>ATOM
      1 CA         20.3570   18.2805   31.2530 C.3       2 GLC5        0.0000 
      2 CA         20.7940   17.6450   33.2060 C.3       6 GLL5        0.0000 
      3 CA         19.9200   18.9160   29.3000 C.3       4 GLP5        0.0000 
      4 CA         17.9395   16.6665   33.9805 C.3       2 GLC5        0.0000 
      5 CA         19.4490   17.3950   32.9130 C.3       6 GLL5        0.0000 
      6 CA         16.4300   15.9380   35.0480 C.3       4 GLP5        0.0000 
      7 CA         18.4975   18.1595   31.5040 C.3       2 GLC5        0.0000 
      8 CA         17.5460   18.9240   30.0950 C.3       4 GLP5        0.0000 
      9 N          17.5140   16.3390   32.6555 N.am      1 SEC2        0.0000 
     10 N          18.9110   16.1640   32.6780 N.am      5 SEL2        0.0000 
     11 N          16.1170   16.5140   32.6330 N.am      3 SEP2        0.0000 
     12 CA         18.1070   15.5170   33.9060 C.3       2 GLC5        0.0000 
     13 CA         19.7840   15.0960   32.7640 C.3       6 GLL5        0.0000 
     14 CA         18.7860   12.8660   34.9360 C.3       2 GLC5        0.0000 
     15 CA         17.7200   12.0650   33.1830 C.3       6 GLL5        0.0000 
     16 CA         19.8520   13.6670   36.6890 C.3       4 GLP5        0.0000 
     17 CA         13.7910   12.5725   30.2080 C.3       2 GLC5        0.0000 
     18 CA         14.5350   11.2560   31.6140 C.3       6 GLL5        0.0000 
     19 CA         13.0470   13.8890   28.8020 C.3       4 GLP5        0.0000 
     20 CA         12.8425   10.7280   30.7985 C.3       2 GLC5        0.0000 
     21 CA         11.1500   10.2000   29.9830 C.3       4 GLP5        0.0000 
     22 CA         13.8835    9.7485   32.6725 C.3       2 GLC5        0.0000 
     23 CA         13.2320    8.2410   33.7310 C.3       4 GLP5        0.0000 
     24 CA         15.3580    9.7405   30.8815 C.3       2 GLC5        0.0000 
     25 CA         16.1810    8.2250   30.1490 C.3       4 GLP5        0.0000 
     26 CA         14.6185   13.3660   29.8860 C.3       2 GLC5        0.0000 
     27 CA         16.1900   12.8430   30.9700 C.3       6 GLL5        0.0000 
     28 CA         22.6050    7.9920   34.3910 C.3       2 GLC5        0.0000 
     29 CA         22.6200    9.7380   33.4590 C.3       6 GLL5        0.0000 
     30 CA         22.5900    6.2460   35.3230 C.3       4 GLP5        0.0000 
     31 CA         23.6425    9.2805   31.8470 C.3       2 GLC5        0.0000 
     32 CA         24.6650    8.8230   30.2350 C.3       4 GLP5        0.0000 
     33 N          22.5570    7.5870   31.9810 N.am      1 SEC2        0.0000 
     34 N          22.0850    8.8740   32.5420 N.am      5 SEL2        0.0000 
     35 N          23.0290    6.3000   31.4200 N.am      3 SEP2        0.0000 
     36 CA         21.2285    7.2575   32.2090 C.3       2 GLC5        0.0000 
     37 CA         21.1230    9.3570   31.7230 C.3       6 GLL5        0.0000 
     38 CA         21.3340    5.1580   32.6950 C.3       4 GLP5        0.0000 
     39 CA         22.8940    9.0900   30.9790 C.3       2 GLC5        0.0000 
     40 CA         18.1967   10.1032   33.7632 C.3       2 GLC5        0.0000 
     41 CA         19.2940    8.4530   34.4610 C.3       4 GLP5        0.0000 
     42 CA         16.4653   12.6777   34.5588 C.3       2 GLC5        0.0000 
     43 CA         15.8310   13.6020   36.0520 C.3       4 GLP5        0.0000 
     44 CA         17.2898   10.2097   31.9112 C.3       2 GLC5        0.0000 
     45 CA         17.4800    8.6660   30.7570 C.3       4 GLP5        0.0000 
     46 CA         15.8120   13.9832   32.5845 C.3       2 GLC5        0.0000 
     47 CA         15.7220   11.8500   31.8500 C.3       6 GLL5        0.0000 
     48 CA         15.6680   15.6200   33.7590 C.3       4 GLP5        0.0000 
     49 CA         16.7180   10.5062   31.0835 C.3       2 GLC5        0.0000 
     50 CA         13.8074   12.0620   32.7617 C.3       2 GLC5        0.0000 
     51 CA         16.4790   11.4420   32.9480 C.3       6 GLL5        0.0000 
     52 CA         12.2970   12.6730   33.5170 C.3       4 GLP5        0.0000 
     53 CA         16.8795   12.1450   29.2860 C.3       2 GLC5        0.0000 
     54 CA         16.9480   11.1440   27.4860 C.3       4 GLP5        0.0000 
     55 CA         16.9101   14.5156   32.7935 C.3       2 GLC5        0.0000 
     56 CA         17.4320   13.4490   31.2020 C.3       6 GLL5        0.0000 
     57 CA         20.9450   11.2385   35.0700 C.3       2 GLC5        0.0000 
     58 CA         21.1970   11.5670   32.7220 C.3       6 GLL5        0.0000 
     59 CA         20.1870   11.1590   36.9880 C.3       4 GLP5        0.0000 
     60 CA         20.7278    9.4905   33.8833 C.3       2 GLC5        0.0000 
     61 CA         22.2090   11.0690   33.5820 C.3       6 GLL5        0.0000 
     62 CA         20.0928    9.2342   33.1040 C.3       2 GLC5        0.0000 
     63 CA         19.1857    9.3407   31.2520 C.3       2 GLC5        0.0000 
     64 CA         21.1747   10.4897   29.8230 C.3       2 GLC5        0.0000 
     65 CA         21.4580   10.9640   27.8990 C.3       4 GLP5        0.0000 
     66 CA         20.0795   13.9650   34.7458 C.3       2 GLC5        0.0000 
     67 CA         19.5260   13.6820   32.5980 C.3       6 GLL5        0.0000 
@<TRIPOS>BOND
@<TRIPOS>SUBSTRUCTURE
     1 SEC2        9 GROUP        1 X    SEC  0     ROOT SEC X 2
     2 GLC5        1 GROUP        1 X    GLC  0     **** GLC X 6
     3 SEP2       11 GROUP        1 Y    SEP  0     ROOT SEP Y 9
     4 GLP5        3 GROUP        1 Y    GLP  0     **** GLP Y 13
     5 SEL2       10 GROUP        1 Z    SEL  0     ROOT SEL Z 16
     6 GLL5        2 GROUP        1 Z    GLL  0     **** GLL Z 20
@<TRIPOS>SET

