#    Name: 1oz1_FPH_1_ligand
#    Modification time : Mon Mar 24 20:47:29 2014

@<TRIPOS>MOLECULE
1oz1_FPH_1_ligand
   35    38     1     0     0
SMALL
NO_CHARGES


@<TRIPOS>ATOM
      1 O12        22.9580   13.8160   33.2690 O.3       1 FPH500      0.0000 
      2 N07        21.6960   14.0160   33.0600 N.pl3     1 FPH500      0.0000 
      3 C01        21.1480   15.2740   33.0560 C.ar      1 FPH500      0.0000 
      4 C06        21.6920   16.5690   33.2740 C.ar      1 FPH500      0.0000 
      5 C05        20.7940   17.6450   33.2060 C.ar      1 FPH500      0.0000 
      6 C04        19.4490   17.3950   32.9130 C.ar      1 FPH500      0.0000 
      7 N03        18.9110   16.1640   32.6780 N.ar      1 FPH500      0.0000 
      8 C02        19.7840   15.0960   32.7640 C.ar      1 FPH500      0.0000 
      9 C08        19.5260   13.6820   32.5980 C.2       1 FPH500      0.0000 
     10 C24        18.2190   13.0650   32.3100 C.ar      1 FPH500      0.0000 
     11 C25        17.7200   12.0650   33.1830 C.ar      1 FPH500      0.0000 
     12 C26        16.4790   11.4420   32.9480 C.ar      1 FPH500      0.0000 
     13 C27        15.7220   11.8500   31.8500 C.ar      1 FPH500      0.0000 
     14 F32        14.5350   11.2560   31.6140 F         1 FPH500      0.0000 
     15 C28        16.1900   12.8430   30.9700 C.ar      1 FPH500      0.0000 
     16 C29        17.4320   13.4490   31.2020 C.ar      1 FPH500      0.0000 
     17 C13        20.7700   13.0000   32.7920 C.2       1 FPH500      0.0000 
     18 C14        21.1970   11.5670   32.7220 C.ar      1 FPH500      0.0000 
     19 C19        22.2090   11.0690   33.5820 C.ar      1 FPH500      0.0000 
     20 C18        22.6200    9.7380   33.4590 C.ar      1 FPH500      0.0000 
     21 N17        22.0850    8.8740   32.5420 N.ar      1 FPH500      0.0000 
     22 C16        21.1230    9.3570   31.7230 C.ar      1 FPH500      0.0000 
     23 C15        20.6600   10.6740   31.7710 C.ar      1 FPH500      0.0000 
     24 H          22.6616   16.6968   33.4645 H         1 FPH500      0.0000 
     25 H          21.1196   18.5972   33.3685 H         1 FPH500      0.0000 
     26 H          18.8033   18.2450   32.8734 H         1 FPH500      0.0000 
     27 H          18.2792   11.7920   34.0037 H         1 FPH500      0.0000 
     28 H          16.1473   10.7106   33.5695 H         1 FPH500      0.0000 
     29 H          15.6242   13.1197   30.1650 H         1 FPH500      0.0000 
     30 H          17.7759   14.1765   30.5659 H         1 FPH500      0.0000 
     31 H          22.6266   11.6818   34.2793 H         1 FPH500      0.0000 
     32 H          23.3756    9.3970   34.1064 H         1 FPH500      0.0000 
     33 H          20.6866    8.7178   31.0016 H         1 FPH500      0.0000 
     34 H          19.9376   10.9944   31.1245 H         1 FPH500      0.0000 
     35 H          23.3320   13.5676   32.3755 H         1 FPH500      0.0000 
@<TRIPOS>BOND
     1    2    1 1    
     2   35    1 1    
     3    3    2 1    
     4   17    2 1    
     5    4    3 ar   
     6    8    3 ar   
     7    5    4 ar   
     8   24    4 1    
     9    6    5 ar   
    10   25    5 1    
    11    7    6 ar   
    12   26    6 1    
    13    8    7 ar   
    14    9    8 1    
    15   10    9 1    
    16   17    9 2    
    17   11   10 ar   
    18   16   10 ar   
    19   12   11 ar   
    20   27   11 1    
    21   13   12 ar   
    22   28   12 1    
    23   14   13 1    
    24   15   13 ar   
    25   16   15 ar   
    26   29   15 1    
    27   30   16 1    
    28   18   17 1    
    29   19   18 ar   
    30   23   18 ar   
    31   20   19 ar   
    32   31   19 1    
    33   21   20 ar   
    34   32   20 1    
    35   22   21 ar   
    36   23   22 ar   
    37   33   22 1    
    38   34   23 1    
@<TRIPOS>SUBSTRUCTURE
     1 FPH500      1 GROUP   
@<TRIPOS>SET

