#    Name: 2ch6_ADP_2_INTS_M
#    Modification time : Mon Mar 24 23:47:25 2014

@<TRIPOS>MOLECULE
2ch6_ADP_2_INTS_M
   61     0    12     0     0
SMALL
NO_CHARGES


@<TRIPOS>ATOM
      1 N          13.1990   59.8900  102.9800 N.am      2 SEC2        0.0000 
      2 N          14.4190   60.4290  103.2130 N.am     10 SEL2        0.0000 
      3 N          11.9790   59.3510  102.7470 N.am      6 SEP2        0.0000 
      4 N          14.1705   58.9330  103.4335 N.am      2 SEC2        0.0000 
      5 N          13.9220   57.4370  103.6540 N.am      6 SEP2        0.0000 
      6 N          14.6065   63.4480  100.8650 N.am      2 SEC2        0.0000 
      7 N          14.9740   62.7060  102.2300 N.am     10 SEL2        0.0000 
      8 N          14.2390   64.1900   99.5000 N.am      6 SEP2        0.0000 
      9 N          19.1025   62.8085  100.1060 N.am      2 SEC2        0.0000 
     10 N          17.9810   62.2080  101.1760 N.am     10 SEL2        0.0000 
     11 N          20.2240   63.4090   99.0360 N.am      6 SEP2        0.0000 
     12 NZ         18.5605   58.0255  100.3925 N.4       3 LYC4        0.0000 
     13 NZ         17.9980   59.8660   99.9390 N.4      11 LYL4        0.0000 
     14 NZ         19.1230   56.1850  100.8460 N.4       7 LYP4        0.0000 
     15 N          18.8955   60.2630   99.2825 N.am      2 SEC2        0.0000 
     16 N          17.9980   59.8660   99.9390 N.am     10 SEL2        0.0000 
     17 N          19.7930   60.6600   98.6260 N.am      6 SEP2        0.0000 
     18 N          18.1570   61.1345   98.8765 N.am      2 SEC2        0.0000 
     19 N          16.5210   61.6090   99.1270 N.am     10 SEL2        0.0000 
     20 O          12.7530   61.4635   94.4780 O.2       1 ALC1        0.0000 
     21 O          13.4980   61.0230   95.7640 O.2       9 ALL1        0.0000 
     22 O          12.0080   61.9040   93.1920 O.2       5 ALP1        0.0000 
     23 CA         13.6890   59.8550   93.7070 C.3       4 GLC5        0.0000 
     24 CA         15.5990   60.5870   94.6210 C.3      12 GLL5        0.0000 
     25 CA         11.7790   59.1230   92.7930 C.3       8 GLP5        0.0000 
     26 CA         18.2955   61.5835   96.1860 C.3       4 GLC5        0.0000 
     27 CA         16.6760   61.6400   94.8590 C.3      12 GLL5        0.0000 
     28 CA         19.9150   61.5270   97.5130 C.3       8 GLP5        0.0000 
     29 CA         17.0090   63.7345   95.1970 C.3       4 GLC5        0.0000 
     30 CA         17.3420   65.8290   95.5350 C.3       8 GLP5        0.0000 
     31 CA         21.6725   60.9900   94.1055 C.3       4 GLC5        0.0000 
     32 CA         19.9090   61.2540   93.0980 C.3      12 GLL5        0.0000 
     33 CA         23.4360   60.7260   95.1130 C.3       8 GLP5        0.0000 
     34 CA         22.5765   62.2175   92.9565 C.3       4 GLC5        0.0000 
     35 CA         20.8590   61.8260   92.1240 C.3      12 GLL5        0.0000 
     36 CA         24.2940   62.6090   93.7890 C.3       8 GLP5        0.0000 
     37 N          21.3030   63.7635   90.6985 N.am      2 SEC2        0.0000 
     38 N          20.5270   63.0100   91.5380 N.am     10 SEL2        0.0000 
     39 N          22.0790   64.5170   89.8590 N.am      6 SEP2        0.0000 
     40 CA         17.3875   64.2090   91.6885 C.3       4 GLC5        0.0000 
     41 CA         19.3750   63.6530   91.8280 C.3      12 GLL5        0.0000 
     42 CA         15.4000   64.7650   91.5490 C.3       8 GLP5        0.0000 
     43 CA         19.2910   63.5265   89.7830 C.3       4 GLC5        0.0000 
     44 CA         19.2070   63.4000   87.7380 C.3       8 GLP5        0.0000 
     45 CA         19.5955   64.5350   93.5540 C.3       4 GLC5        0.0000 
     46 CA         19.8160   65.4170   95.2800 C.3       8 GLP5        0.0000 
     47 CA         20.8430   64.7525   91.0380 C.3       4 GLC5        0.0000 
     48 CA         22.3110   65.8520   90.2480 C.3       8 GLP5        0.0000 
     49 CA         19.2435   63.7120   94.3245 C.3       4 GLC5        0.0000 
     50 CA         18.6710   62.0070   93.3690 C.3      12 GLL5        0.0000 
     51 CA         14.4085   60.3762   98.8785 C.3       4 GLC5        0.0000 
     52 CA         15.5990   61.3940   96.9180 C.3      12 GLL5        0.0000 
     53 CA         13.0280   59.7230  100.2020 C.3       8 GLP5        0.0000 
     54 CA         17.8520   61.2782   97.5340 C.3       4 GLC5        0.0000 
     55 CA         15.9790   60.6650   98.1920 C.3      12 GLL5        0.0000 
     56 CA         16.5598   60.3242   93.0515 C.3       4 GLC5        0.0000 
     57 CA         16.9820   59.5350   91.3630 C.3       8 GLP5        0.0000 
     58 CA         18.1360   60.5827   92.2982 C.3       4 GLC5        0.0000 
     59 CA         19.6025   61.5787   95.3732 C.3       4 GLC5        0.0000 
     60 CA         14.7592   62.7878   95.3849 C.3       4 GLC5        0.0000 
     61 CA         13.8430   64.5400   95.1880 C.3       8 GLP5        0.0000 
@<TRIPOS>BOND
@<TRIPOS>SUBSTRUCTURE
     1 ALC1       20 GROUP        1 X    ALC  0     ROOT ALC X 1
     2 SEC2        1 GROUP        1 X    SEC  0     **** SEC X 2
     3 LYC4       12 GROUP        1 X    LYC  0     **** LYC X 4
     4 GLC5       23 GROUP        1 X    GLC  0     **** GLC X 6
     5 ALP1       22 GROUP        1 Y    ALP  0     ROOT ALP Y 8
     6 SEP2        3 GROUP        1 Y    SEP  0     **** SEP Y 9
     7 LYP4       14 GROUP        1 Y    LYP  0     **** LYP Y 11
     8 GLP5       25 GROUP        1 Y    GLP  0     **** GLP Y 13
     9 ALL1       21 GROUP        1 Z    ALL  0     ROOT ALL Z 15
    10 SEL2        2 GROUP        1 Z    SEL  0     **** SEL Z 16
    11 LYL4       13 GROUP        1 Z    LYL  0     **** LYL Z 18
    12 GLL5       24 GROUP        1 Z    GLL  0     **** GLL Z 20
@<TRIPOS>SET

