#    Name: 2ch6_ADP_2_ligand
#    Modification time : Mon Mar 24 23:47:25 2014

@<TRIPOS>MOLECULE
2ch6_ADP_2_ligand
   39    41     1     0     0
SMALL
NO_CHARGES


@<TRIPOS>ATOM
      1 PB         15.5010   61.3700  102.7150 P.3       1 ADP470      0.0000 
      2 O1B        14.4190   60.4290  103.2130 O.co2     1 ADP470      0.0000 
      3 O2B        16.6820   61.4930  103.6450 O.co2     1 ADP470      0.0000 
      4 O3B        14.9740   62.7060  102.2300 O.co2     1 ADP470      0.0000 
      5 PA         17.2730   61.0870  100.4570 P.3       1 ADP470      0.0000 
      6 O1A        17.9810   62.2080  101.1760 O.co2     1 ADP470      0.0000 
      7 O2A        17.9980   59.8660   99.9390 O.co2     1 ADP470      0.0000 
      8 O3A        16.0550   60.5980  101.4000 O.3       1 ADP470      0.0000 
      9 O5'        16.5210   61.6090   99.1270 O.3       1 ADP470      0.0000 
     10 C5'        15.9790   60.6650   98.1920 C.3       1 ADP470      0.0000 
     11 C4'        15.5990   61.3940   96.9180 C.3       1 ADP470      0.0000 
     12 O4'        16.8110   61.7760   96.2760 O.3       1 ADP470      0.0000 
     13 C3'        14.8280   60.5210   95.9290 C.3       1 ADP470      0.0000 
     14 O3'        13.4980   61.0230   95.7640 O.3       1 ADP470      0.0000 
     15 C2'        15.5990   60.5870   94.6210 C.3       1 ADP470      0.0000 
     16 O2'        14.7470   60.9630   93.5380 O.3       1 ADP470      0.0000 
     17 C1'        16.6760   61.6400   94.8590 C.3       1 ADP470      0.0000 
     18 N9         17.9910   61.2840   94.2690 N.pl3     1 ADP470      0.0000 
     19 C8         18.7130   60.1880   94.5570 C.2       1 ADP470      0.0000 
     20 N7         19.8730   60.1540   93.8570 N.2       1 ADP470      0.0000 
     21 C5         19.9090   61.2540   93.0980 C.ar      1 ADP470      0.0000 
     22 C6         20.8590   61.8260   92.1240 C.ar      1 ADP470      0.0000 
     23 N6         22.0100   61.1680   91.8390 N.pl3     1 ADP470      0.0000 
     24 N1         20.5270   63.0100   91.5380 N.ar      1 ADP470      0.0000 
     25 C2         19.3750   63.6530   91.8280 C.ar      1 ADP470      0.0000 
     26 N3         18.4630   63.1830   92.7080 N.ar      1 ADP470      0.0000 
     27 C4         18.6710   62.0070   93.3690 C.ar      1 ADP470      0.0000 
     28 H          15.0834   60.1781   98.5874 H         1 ADP470      0.0000 
     29 H          16.7066   59.8894   97.9380 H         1 ADP470      0.0000 
     30 H          15.0108   62.2524   97.1591 H         1 ADP470      0.0000 
     31 H          14.8489   59.5166   96.2863 H         1 ADP470      0.0000 
     32 H          16.0818   59.6483   94.4694 H         1 ADP470      0.0000 
     33 H          16.3245   62.5739   94.4350 H         1 ADP470      0.0000 
     34 H          18.4381   59.4902   95.1982 H         1 ADP470      0.0000 
     35 H          22.6111   61.6030   91.1686 H         1 ADP470      0.0000 
     36 H          22.1558   60.3060   92.3244 H         1 ADP470      0.0000 
     37 H          19.1749   64.5769   91.3388 H         1 ADP470      0.0000 
     38 H          13.4100   61.2055   94.7847 H         1 ADP470      0.0000 
     39 H          14.5474   60.1091   93.0574 H         1 ADP470      0.0000 
@<TRIPOS>BOND
     1    2    1 ar   
     2    3    1 ar   
     3    4    1 ar   
     4    8    1 1    
     5    6    5 ar   
     6    7    5 ar   
     7    8    5 1    
     8    9    5 1    
     9   10    9 1    
    10   11   10 1    
    11   28   10 1    
    12   29   10 1    
    13   12   11 1    
    14   13   11 1    
    15   30   11 1    
    16   17   12 1    
    17   14   13 1    
    18   15   13 1    
    19   31   13 1    
    20   38   14 1    
    21   16   15 1    
    22   17   15 1    
    23   32   15 1    
    24   39   16 1    
    25   18   17 1    
    26   33   17 1    
    27   19   18 1    
    28   27   18 1    
    29   20   19 2    
    30   34   19 1    
    31   21   20 1    
    32   22   21 ar   
    33   27   21 ar   
    34   23   22 1    
    35   24   22 ar   
    36   35   23 1    
    37   36   23 1    
    38   25   24 ar   
    39   26   25 ar   
    40   37   25 1    
    41   27   26 ar   
@<TRIPOS>SUBSTRUCTURE
     1 ADP470      1 GROUP   
@<TRIPOS>SET

