#    Name: 3uqf_BK5_2_INTS_M
#    Modification time : Mon Mar 24 23:19:38 2014

@<TRIPOS>MOLECULE
3uqf_BK5_2_INTS_M
   66     0     9     0     0
SMALL
NO_CHARGES


@<TRIPOS>ATOM
      1 N          -0.8030  -66.0325  -31.5045 N.am      2 SEC2        0.0000 
      2 N          -1.8290  -67.0300  -31.5670 N.am      8 SEL2        0.0000 
      3 N           0.2230  -65.0350  -31.4420 N.am      5 SEP2        0.0000 
      4 CA         -1.1775  -69.9820  -31.6335 C.3       3 GLC5        0.0000 
      5 CA         -1.2440  -67.9170  -30.7610 C.3       9 GLL5        0.0000 
      6 CA         -1.1110  -72.0470  -32.5060 C.3       6 GLP5        0.0000 
      7 CA         -0.3375  -66.2790  -30.4185 C.3       3 GLC5        0.0000 
      8 CA          0.5690  -64.6410  -30.0760 C.3       6 GLP5        0.0000 
      9 CA         -2.1950  -70.4790  -31.3995 C.3       3 GLC5        0.0000 
     10 CA         -3.2790  -68.9110  -30.2930 C.3       9 GLL5        0.0000 
     11 CA         -3.8425  -67.7240  -28.7975 C.3       3 GLC5        0.0000 
     12 CA         -4.4060  -66.5370  -27.3020 C.3       6 GLP5        0.0000 
     13 CA         -1.9280  -65.6940  -30.5270 C.3       3 GLC5        0.0000 
     14 CA         -3.1570  -67.0400  -31.7830 C.3       9 GLL5        0.0000 
     15 CA         -0.6990  -64.3480  -29.2710 C.3       6 GLP5        0.0000 
     16 CA        -13.8155  -63.2900  -36.0810 C.3       3 GLC5        0.0000 
     17 CA        -13.5470  -64.5470  -34.7710 C.3       9 GLL5        0.0000 
     18 CA        -14.0840  -62.0330  -37.3910 C.3       6 GLP5        0.0000 
     19 CA         -5.1545  -71.6840  -31.2215 C.3       3 GLC5        0.0000 
     20 CA         -4.8100  -72.0190  -29.2150 C.3       9 GLL5        0.0000 
     21 CA         -5.4990  -71.3490  -33.2280 C.3       6 GLP5        0.0000 
     22 CA         -2.5310  -69.5485  -26.7055 C.3       3 GLC5        0.0000 
     23 CA         -4.2220  -70.3400  -27.4220 C.3       9 GLL5        0.0000 
     24 CA         -0.8400  -68.7570  -25.9890 C.3       6 GLP5        0.0000 
     25 CA         -4.6355  -69.7280  -25.5235 C.3       3 GLC5        0.0000 
     26 CA         -5.0490  -69.1160  -23.6250 C.3       6 GLP5        0.0000 
     27 CA         -4.3140  -68.4385  -27.3620 C.3       3 GLC5        0.0000 
     28 O          -2.9245  -65.1240  -33.4785 O.2       1 ALC1        0.0000 
     29 O          -3.6810  -66.1180  -32.5900 O.2       7 ALL1        0.0000 
     30 O          -2.1680  -64.1300  -34.3670 O.2       4 ALP1        0.0000 
     31 CA         -8.4970  -65.2550  -30.0470 C.3       3 GLC5        0.0000 
     32 CA         -8.6840  -67.0750  -31.3060 C.3       9 GLL5        0.0000 
     33 CA         -8.3100  -63.4350  -28.7880 C.3       6 GLP5        0.0000 
     34 CA        -10.4520  -66.2925  -30.2330 C.3       3 GLC5        0.0000 
     35 CA        -12.2200  -65.5100  -29.1600 C.3       6 GLP5        0.0000 
     36 CA        -11.1355  -65.2985  -31.6200 C.3       3 GLC5        0.0000 
     37 CA        -10.0170  -66.2890  -33.1200 C.3       9 GLL5        0.0000 
     38 CA        -12.2540  -64.3080  -30.1200 C.3       6 GLP5        0.0000 
     39 CA         -4.7130  -67.6070  -34.1025 C.3       3 GLC5        0.0000 
     40 CA         -6.5380  -67.5880  -33.0280 C.3       9 GLL5        0.0000 
     41 CA         -2.8880  -67.6260  -35.1770 C.3       6 GLP5        0.0000 
     42 CA        -12.2680  -64.6350  -32.0655 C.3       3 GLC5        0.0000 
     43 CA        -12.2820  -64.9620  -34.0110 C.3       9 GLL5        0.0000 
     44 CA         -7.3905  -65.3690  -34.9015 C.3       3 GLC5        0.0000 
     45 CA         -7.7410  -67.0620  -33.5210 C.3       9 GLL5        0.0000 
     46 CA         -7.0400  -63.6760  -36.2820 C.3       6 GLP5        0.0000 
     47 CA         -4.5530  -69.9040  -31.9688 C.3       3 GLC5        0.0000 
     48 CA         -3.2170  -67.5747  -33.3158 C.3       3 GLC5        0.0000 
     49 CA         -3.9350  -68.0070  -31.1260 C.3       9 GLL5        0.0000 
     50 CA         -4.2155  -66.2578  -30.3358 C.3       3 GLC5        0.0000 
     51 CA         -4.8850  -64.9920  -29.2170 C.3       6 GLP5        0.0000 
     52 CA        -13.0488  -65.2908  -36.2885 C.3       3 GLC5        0.0000 
     53 CA        -13.1830  -65.8270  -38.1860 C.3       6 GLP5        0.0000 
     54 CA         -3.4257  -72.6852  -30.3122 C.3       3 GLC5        0.0000 
     55 CA         -2.4810  -73.9540  -31.5910 C.3       6 GLP5        0.0000 
     56 CA        -10.0888  -65.3480  -36.7952 C.3       3 GLC5        0.0000 
     57 CA         -9.1130  -66.2590  -35.3490 C.3       9 GLL5        0.0000 
     58 CA        -10.5320  -64.5650  -38.6770 C.3       6 GLP5        0.0000 
     59 CA         -5.9185  -66.3545  -30.2257 C.3       3 GLC5        0.0000 
     60 CA         -6.4130  -67.8420  -31.6550 C.3       9 GLL5        0.0000 
     61 CA         -5.9872  -69.5320  -32.7848 C.3       3 GLC5        0.0000 
     62 CA         -8.1915  -64.9685  -35.5385 C.3       3 GLC5        0.0000 
     63 CA        -10.4649  -67.9462  -33.7155 C.3       3 GLC5        0.0000 
     64 CA        -11.4770  -69.4160  -34.2030 C.3       6 GLP5        0.0000 
     65 CA         -8.9972  -68.1577  -35.2398 C.3       3 GLC5        0.0000 
     66 CA         -9.8700  -69.5250  -36.1630 C.3       6 GLP5        0.0000 
@<TRIPOS>BOND
@<TRIPOS>SUBSTRUCTURE
     1 ALC1       28 GROUP        1 X    ALC  0     ROOT ALC X 1
     2 SEC2        1 GROUP        1 X    SEC  0     **** SEC X 2
     3 GLC5        4 GROUP        1 X    GLC  0     **** GLC X 6
     4 ALP1       30 GROUP        1 Y    ALP  0     ROOT ALP Y 8
     5 SEP2        3 GROUP        1 Y    SEP  0     **** SEP Y 9
     6 GLP5        6 GROUP        1 Y    GLP  0     **** GLP Y 13
     7 ALL1       29 GROUP        1 Z    ALL  0     ROOT ALL Z 15
     8 SEL2        2 GROUP        1 Z    SEL  0     **** SEL Z 16
     9 GLL5        5 GROUP        1 Z    GLL  0     **** GLL Z 20
@<TRIPOS>SET

