#    Name: 3uqf_BK5_2_ligand
#    Modification time : Mon Mar 24 23:19:38 2014

@<TRIPOS>MOLECULE
3uqf_BK5_2_ligand
   47    50     1     0     0
SMALL
NO_CHARGES


@<TRIPOS>ATOM
      1 N1         -1.8290  -67.0300  -31.5670 N.ar      1 BK51        0.0000 
      2 C2         -1.2440  -67.9170  -30.7610 C.ar      1 BK51        0.0000 
      3 N3         -1.9500  -68.8420  -30.1210 N.ar      1 BK51        0.0000 
      4 C4         -3.2790  -68.9110  -30.2930 C.ar      1 BK51        0.0000 
      5 C5         -3.9350  -68.0070  -31.1260 C.ar      1 BK51        0.0000 
      6 C6         -3.1570  -67.0400  -31.7830 C.ar      1 BK51        0.0000 
      7 CAA       -13.5470  -64.5470  -34.7710 C.3       1 BK51        0.0000 
      8 CAB        -4.8100  -72.0190  -29.2150 C.3       1 BK51        0.0000 
      9 CAC        -4.2220  -70.3400  -27.4220 C.3       1 BK51        0.0000 
     10 NAD        -3.6810  -66.1180  -32.5900 N.pl3     1 BK51        0.0000 
     11 CAE        -9.1130  -66.2590  -35.3490 C.ar      1 BK51        0.0000 
     12 CAF        -7.4910  -67.5920  -30.8140 C.ar      1 BK51        0.0000 
     13 CAG        -7.9030  -66.7790  -34.8750 C.ar      1 BK51        0.0000 
     14 CAH        -8.6840  -67.0750  -31.3060 C.ar      1 BK51        0.0000 
     15 CAJ       -10.0170  -66.2890  -33.1200 C.ar      1 BK51        0.0000 
     16 CAK        -6.5380  -67.5880  -33.0280 C.ar      1 BK51        0.0000 
     17 CAL       -12.2820  -64.9620  -34.0110 C.3       1 BK51        0.0000 
     18 NAO        -5.3360  -69.4270  -30.2030 N.2       1 BK51        0.0000 
     19 OAP       -11.3570  -65.4970  -34.9760 O.3       1 BK51        0.0000 
     20 CAQ       -10.1780  -66.0030  -34.4780 C.ar      1 BK51        0.0000 
     21 CAR        -6.4130  -67.8420  -31.6550 C.ar      1 BK51        0.0000 
     22 CAT        -5.2810  -68.3880  -31.0360 C.2       1 BK51        0.0000 
     23 CAU        -8.8080  -66.8070  -32.6570 C.ar      1 BK51        0.0000 
     24 CAV        -7.7410  -67.0620  -33.5210 C.ar      1 BK51        0.0000 
     25 CAY        -3.9310  -70.8140  -28.8520 C.3       1 BK51        0.0000 
     26 NAZ        -4.2060  -69.7100  -29.7940 N.pl3     1 BK51        0.0000 
     27 H          -0.1950  -67.8809  -30.6303 H         1 BK51        0.0000 
     28 H          -4.6611  -66.1980  -32.7716 H         1 BK51        0.0000 
     29 H          -3.0469  -65.4292  -32.9414 H         1 BK51        0.0000 
     30 H          -9.2213  -66.0614  -36.3565 H         1 BK51        0.0000 
     31 H          -7.4038  -67.7949  -29.8008 H         1 BK51        0.0000 
     32 H          -7.1310  -66.9520  -35.5328 H         1 BK51        0.0000 
     33 H          -9.4674  -66.8941  -30.6667 H         1 BK51        0.0000 
     34 H         -10.7880  -66.1177  -32.4652 H         1 BK51        0.0000 
     35 H          -5.7635  -67.7833  -33.6610 H         1 BK51        0.0000 
     36 H         -12.5632  -65.7013  -33.2691 H         1 BK51        0.0000 
     37 H         -11.8844  -64.0831  -33.5155 H         1 BK51        0.0000 
     38 H          -2.9015  -71.1065  -28.9157 H         1 BK51        0.0000 
     39 H         -13.3526  -63.8543  -35.4655 H         1 BK51        0.0000 
     40 H         -13.9694  -65.3224  -35.2405 H         1 BK51        0.0000 
     41 H         -14.2385  -64.1627  -34.1593 H         1 BK51        0.0000 
     42 H          -4.6313  -72.3426  -30.1442 H         1 BK51        0.0000 
     43 H          -4.6529  -72.7919  -28.6002 H         1 BK51        0.0000 
     44 H          -5.7837  -71.7971  -29.1641 H         1 BK51        0.0000 
     45 H          -4.0405  -71.0570  -26.7489 H         1 BK51        0.0000 
     46 H          -3.6597  -69.5524  -27.1701 H         1 BK51        0.0000 
     47 H          -5.1771  -70.0665  -27.3085 H         1 BK51        0.0000 
@<TRIPOS>BOND
     1    2    1 ar   
     2    6    1 ar   
     3    3    2 ar   
     4   27    2 1    
     5    4    3 ar   
     6    5    4 ar   
     7   26    4 1    
     8    6    5 ar   
     9   22    5 1    
    10   10    6 1    
    11   17    7 1    
    12   39    7 1    
    13   40    7 1    
    14   41    7 1    
    15   25    8 1    
    16   42    8 1    
    17   43    8 1    
    18   44    8 1    
    19   25    9 1    
    20   45    9 1    
    21   46    9 1    
    22   47    9 1    
    23   28   10 1    
    24   29   10 1    
    25   13   11 ar   
    26   20   11 ar   
    27   30   11 1    
    28   14   12 ar   
    29   21   12 ar   
    30   31   12 1    
    31   24   13 ar   
    32   32   13 1    
    33   23   14 ar   
    34   33   14 1    
    35   20   15 ar   
    36   23   15 ar   
    37   34   15 1    
    38   21   16 ar   
    39   24   16 ar   
    40   35   16 1    
    41   19   17 1    
    42   36   17 1    
    43   37   17 1    
    44   22   18 2    
    45   26   18 1    
    46   20   19 1    
    47   22   21 1    
    48   24   23 ar   
    49   26   25 1    
    50   38   25 1    
@<TRIPOS>SUBSTRUCTURE
     1 BK51        1 GROUP   
@<TRIPOS>SET

