#    Name: 4hx5_19V_3_INTS_M
#    Modification time : Tue Mar 25 01:56:03 2014

@<TRIPOS>MOLECULE
4hx5_19V_3_INTS_M
  115     0     9     0     0
SMALL
NO_CHARGES


@<TRIPOS>ATOM
      1 CA          6.2120   37.4200   10.3995 C.3       3 GLC5        0.0000 
      2 CA          5.6930   38.3670    8.6770 C.3       9 GLL5        0.0000 
      3 CA          6.7310   36.4730   12.1220 C.3       6 GLP5        0.0000 
      4 CA          6.2820   42.1340    6.4900 C.3       3 GLC5        0.0000 
      5 CA          6.1220   40.7760    8.0710 C.3       9 GLL5        0.0000 
      6 CA          6.4420   43.4920    4.9090 C.3       6 GLP5        0.0000 
      7 CA          7.8935   40.5820    7.7715 C.3       3 GLC5        0.0000 
      8 CA          9.6650   40.3880    7.4720 C.3       6 GLP5        0.0000 
      9 CA          5.4505   38.4265    4.7125 C.3       3 GLC5        0.0000 
     10 CA          4.8340   39.3380    6.4410 C.3       9 GLL5        0.0000 
     11 CA          6.0670   37.5150    2.9840 C.3       6 GLP5        0.0000 
     12 CA          2.1320   40.6715    9.3125 C.3       3 GLC5        0.0000 
     13 CA          3.5960   41.1550    7.7310 C.3       9 GLL5        0.0000 
     14 CA          0.6680   40.1880   10.8940 C.3       6 GLP5        0.0000 
     15 CA          5.2750   36.2705    4.6620 C.3       3 GLC5        0.0000 
     16 CA          4.4830   35.0260    6.3400 C.3       9 GLL5        0.0000 
     17 CA          6.6425   32.3815   11.4105 C.3       3 GLC5        0.0000 
     18 CA          6.4610   33.1260    9.6000 C.3       9 GLL5        0.0000 
     19 CA          6.8240   31.6370   13.2210 C.3       6 GLP5        0.0000 
     20 CA          5.0155   33.3435   11.1560 C.3       3 GLC5        0.0000 
     21 CA          3.5700   33.5610   12.7120 C.3       6 GLP5        0.0000 
     22 CA          6.5960   34.7995   10.8610 C.3       3 GLC5        0.0000 
     23 CA          5.8780   31.4005   11.2775 C.3       3 GLC5        0.0000 
     24 CA          4.9320   31.1640    9.3340 C.3       9 GLL5        0.0000 
     25 CA          3.6415   32.1560   10.6030 C.3       3 GLC5        0.0000 
     26 CA          2.3510   33.1480   11.8720 C.3       6 GLP5        0.0000 
     27 CA          5.6895   30.5145   12.0340 C.3       3 GLC5        0.0000 
     28 CA          4.5550   29.3920   10.8470 C.3       9 GLL5        0.0000 
     29 CA          3.4530   31.2700   11.3595 C.3       3 GLC5        0.0000 
     30 CA          2.4275   28.1135    9.2175 C.3       3 GLC5        0.0000 
     31 CA          3.4250   26.2660    9.2540 C.3       9 GLL5        0.0000 
     32 CA          1.4300   29.9610    9.1810 C.3       6 GLP5        0.0000 
     33 CA          3.7610   26.2575    7.3570 C.3       3 GLC5        0.0000 
     34 CA          4.0970   26.2490    5.4600 C.3       6 GLP5        0.0000 
     35 CA          3.2430   24.5120    7.3495 C.3       3 GLC5        0.0000 
     36 CA          3.8530   24.7890    9.0810 C.3       9 GLL5        0.0000 
     37 CA          2.6330   24.2350    5.6180 C.3       6 GLP5        0.0000 
     38 CA          6.7055   27.7860   10.9750 C.3       3 GLC5        0.0000 
     39 CA          5.2670   26.4070   11.1090 C.3       9 GLL5        0.0000 
     40 CA          8.1440   29.1650   10.8410 C.3       6 GLP5        0.0000 
     41 CA          5.8930   19.9040   10.1175 C.3       3 GLC5        0.0000 
     42 CA          5.4200   22.0090    9.7250 C.3       9 GLL5        0.0000 
     43 CA          6.3660   17.7990   10.5100 C.3       6 GLP5        0.0000 
     44 CA          7.2750   21.3340   10.1945 C.3       3 GLC5        0.0000 
     45 CA          9.1300   20.6590   10.6640 C.3       6 GLP5        0.0000 
     46 CA          7.2505   23.0565    9.5560 C.3       3 GLC5        0.0000 
     47 CA          9.0810   24.1040    9.3870 C.3       6 GLP5        0.0000 
     48 CA          4.0905   23.1050   13.8830 C.3       3 GLC5        0.0000 
     49 CA          4.5750   22.3760   12.0470 C.3       9 GLL5        0.0000 
     50 CA          3.6060   23.8340   15.7190 C.3       6 GLP5        0.0000 
     51 CA          5.3525   21.1520   13.4490 C.3       3 GLC5        0.0000 
     52 CA          6.1300   19.9280   14.8510 C.3       6 GLP5        0.0000 
     53 CA          7.3400   24.5290   10.0700 C.3       3 GLC5        0.0000 
     54 CA          5.5990   24.9540   10.7530 C.3       9 GLL5        0.0000 
     55 CA          4.4765   27.5700    6.9840 C.3       3 GLC5        0.0000 
     56 CA          4.8560   28.8910    8.5080 C.3       9 GLL5        0.0000 
     57 N           4.6595   31.6035   11.6510 N.am      2 SEC2        0.0000 
     58 N           4.7300   30.6880   10.5910 N.am      8 SEL2        0.0000 
     59 N           4.5890   32.5190   12.7110 N.am      5 SEP2        0.0000 
     60 CA          8.6605   34.0930    7.0940 C.3       3 GLC5        0.0000 
     61 CA          7.2460   33.7220    8.3970 C.3       9 GLL5        0.0000 
     62 CA         10.0750   34.4640    5.7910 C.3       6 GLP5        0.0000 
     63 CA          7.7065   32.0770    7.2430 C.3       3 GLC5        0.0000 
     64 CA          8.1670   30.4320    6.0890 C.3       6 GLP5        0.0000 
     65 CA          1.9880   35.4990    4.5770 C.3       3 GLC5        0.0000 
     66 CA          3.2100   34.6380    5.9230 C.3       9 GLL5        0.0000 
     67 CA          0.7660   36.3600    3.2310 C.3       6 GLP5        0.0000 
     68 N           8.8055   35.7290    9.0750 N.am      2 SEC2        0.0000 
     69 N           7.6570   36.3910    8.8800 N.am      8 SEL2        0.0000 
     70 N           9.9540   35.0670    9.2700 N.am      5 SEP2        0.0000 
     71 N           8.4595   37.5505    9.0070 N.am      2 SEC2        0.0000 
     72 N           9.2620   38.7100    9.1340 N.am      5 SEP2        0.0000 
     73 CA          1.9235   39.4540    9.6055 C.3       3 GLC5        0.0000 
     74 CA          3.1790   38.7200    8.3170 C.3       9 GLL5        0.0000 
     75 CA          1.4610   37.4540    7.8995 C.3       3 GLC5        0.0000 
     76 CA         -0.2570   36.1880    7.4820 C.3       6 GLP5        0.0000 
     77 O           4.7410   44.3445   11.3420 O.2       1 ALC1        0.0000 
     78 O           4.8920   42.8450   10.6080 O.2       7 ALL1        0.0000 
     79 O           4.5900   45.8440   12.0760 O.2       4 ALP1        0.0000 
     80 O           4.8655   42.2850   12.1430 O.2       1 ALC1        0.0000 
     81 O           4.8390   41.7250   13.6780 O.2       4 ALP1        0.0000 
     82 CA          7.6662   38.9552    7.9480 C.3       3 GLC5        0.0000 
     83 CA          9.4920   39.0560    7.8130 C.3       6 GLP5        0.0000 
     84 CA          2.8033   37.0198    9.7290 C.3       3 GLC5        0.0000 
     85 CA          4.3480   38.7510    9.3690 C.3       9 GLL5        0.0000 
     86 CA          1.8430   35.3040   10.6150 C.3       6 GLP5        0.0000 
     87 CA          2.8805   39.3473   10.7505 C.3       3 GLC5        0.0000 
     88 CA          1.3540   39.2210   11.8430 C.3       6 GLP5        0.0000 
     89 CA          5.3340   38.6213   11.1750 C.3       3 GLC5        0.0000 
     90 CA          4.4660   40.1960    9.9470 C.3       9 GLL5        0.0000 
     91 CA          6.2610   37.7690   12.6920 C.3       6 GLP5        0.0000 
     92 CA          6.8250   42.2683    8.9985 C.3       3 GLC5        0.0000 
     93 CA          4.7820   41.2050    8.7790 C.3       9 GLL5        0.0000 
     94 CA          8.1980   43.5460    9.5720 C.3       6 GLP5        0.0000 
     95 CA          6.0250   40.7680    5.5345 C.3       3 GLC5        0.0000 
     96 CA          5.9880   39.3420    7.4890 C.3       9 GLL5        0.0000 
     97 CA          6.6390   42.1960    4.1040 C.3       6 GLP5        0.0000 
     98 CA          3.2895   38.8280    5.2815 C.3       3 GLC5        0.0000 
     99 CA          2.4260   38.1290    3.7730 C.3       6 GLP5        0.0000 
    100 CA          8.2997   32.0430    9.3272 C.3       3 GLC5        0.0000 
    101 CA          9.7460   30.6620    9.6560 C.3       6 GLP5        0.0000 
    102 CA          6.9050   25.9333   12.0000 C.3       3 GLC5        0.0000 
    103 CA          8.3770   26.1860   13.0690 C.3       6 GLP5        0.0000 
    104 CA          2.0377   31.4795    7.2400 C.3       3 GLC5        0.0000 
    105 CA          2.5870   33.5560    6.5440 C.3       9 GLL5        0.0000 
    106 CA          1.1750   29.7460    7.4150 C.3       6 GLP5        0.0000 
    107 CA          2.5300   34.3088    8.8970 C.3       3 GLC5        0.0000 
    108 CA          3.2140   32.8700    7.5860 C.3       9 GLL5        0.0000 
    109 CA          1.3207   35.1425    6.8578 C.3       3 GLC5        0.0000 
    110 CA          1.1706   33.3487    6.0960 C.3       3 GLC5        0.0000 
    111 CA         -0.7140   32.7720    5.6980 C.3       6 GLP5        0.0000 
    112 CA          1.6972   40.3354    7.2065 C.3       3 GLC5        0.0000 
    113 CA          0.0380   41.0930    6.5370 C.3       6 GLP5        0.0000 
    114 CA          6.4490   29.2617   10.1666 C.3       3 GLC5        0.0000 
    115 CA          3.0920   29.6597    9.3366 C.3       3 GLC5        0.0000 
@<TRIPOS>BOND
@<TRIPOS>SUBSTRUCTURE
     1 ALC1       77 GROUP        1 X    ALC  0     ROOT ALC X 1
     2 SEC2       57 GROUP        1 X    SEC  0     **** SEC X 2
     3 GLC5        1 GROUP        1 X    GLC  0     **** GLC X 6
     4 ALP1       79 GROUP        1 Y    ALP  0     ROOT ALP Y 8
     5 SEP2       59 GROUP        1 Y    SEP  0     **** SEP Y 9
     6 GLP5        3 GROUP        1 Y    GLP  0     **** GLP Y 13
     7 ALL1       78 GROUP        1 Z    ALL  0     ROOT ALL Z 15
     8 SEL2       58 GROUP        1 Z    SEL  0     **** SEL Z 16
     9 GLL5        2 GROUP        1 Z    GLL  0     **** GLL Z 20
@<TRIPOS>SET

