#    Name: 4hx5_19V_3_ligand
#    Modification time : Tue Mar 25 01:56:03 2014

@<TRIPOS>MOLECULE
4hx5_19V_3_ligand
   88    94     1     0     0
SMALL
NO_CHARGES


@<TRIPOS>ATOM
      1 C1          5.6930   38.3670    8.6770 C.3       1 19V301      0.0000 
      2 C2          4.3480   38.7510    9.3690 C.3       1 19V301      0.0000 
      3 C3          4.4660   40.1960    9.9470 C.3       1 19V301      0.0000 
      4 C4          4.7820   41.2050    8.7790 C.3       1 19V301      0.0000 
      5 C5          6.1220   40.7760    8.0710 C.3       1 19V301      0.0000 
      6 C6          5.9880   39.3420    7.4890 C.3       1 19V301      0.0000 
      7 C8          4.8340   39.3380    6.4410 C.3       1 19V301      0.0000 
      8 C9          3.5960   41.1550    7.7310 C.3       1 19V301      0.0000 
      9 C10         3.4720   39.7160    7.1390 C.3       1 19V301      0.0000 
     10 C11         4.9430   42.6620    9.2890 C.2       1 19V301      0.0000 
     11 C15         4.4830   35.0260    6.3400 C.ar      1 19V301      0.0000 
     12 C16         5.1090   34.3750    7.4150 C.ar      1 19V301      0.0000 
     13 C18         6.4610   33.1260    9.6000 C.3       1 19V301      0.0000 
     14 C20         4.9320   31.1640    9.3340 C.ar      1 19V301      0.0000 
     15 C21         5.0400   30.2490    8.2810 C.ar      1 19V301      0.0000 
     16 C24         4.5550   29.3920   10.8470 C.ar      1 19V301      0.0000 
     17 C25         3.4250   26.2660    9.2540 C.3       1 19V301      0.0000 
     18 C26         3.8530   24.7890    9.0810 C.3       1 19V301      0.0000 
     19 C28         5.2670   26.4070   11.1090 C.3       1 19V301      0.0000 
     20 C29         4.3420   22.7240   10.5670 C.3       1 19V301      0.0000 
     21 C31         5.4200   22.0090    9.7250 C.3       1 19V301      0.0000 
     22 C32         4.5750   22.3760   12.0470 C.3       1 19V301      0.0000 
     23 N7          4.3550   24.2290   10.3740 N.4       1 19V301      0.0000 
     24 C30         2.9610   22.1460   10.1900 C.3       1 19V301      0.0000 
     25 C27         5.5990   24.9540   10.7530 C.3       1 19V301      0.0000 
     26 N6          4.4500   27.0510   10.0420 N.3       1 19V301      0.0000 
     27 C23         4.6190   28.4440    9.8060 C.ar      1 19V301      0.0000 
     28 C22         4.8560   28.8910    8.5080 C.ar      1 19V301      0.0000 
     29 N5          4.7300   30.6880   10.5910 N.ar      1 19V301      0.0000 
     30 N3          5.1830   32.5510    9.0680 N.pl3     1 19V301      0.0000 
     31 C19         7.2460   33.7220    8.3970 C.3       1 19V301      0.0000 
     32 C17         4.4800   33.2720    8.0420 C.ar      1 19V301      0.0000 
     33 C14         3.2140   32.8700    7.5860 C.ar      1 19V301      0.0000 
     34 C13         2.5870   33.5560    6.5440 C.ar      1 19V301      0.0000 
     35 C12         3.2100   34.6380    5.9230 C.ar      1 19V301      0.0000 
     36 N4          6.3830   34.8130    7.9020 N.am      1 19V301      0.0000 
     37 C33         6.5700   36.0710    8.3940 C.2       1 19V301      0.0000 
     38 O2          7.6570   36.3910    8.8800 O.2       1 19V301      0.0000 
     39 N1          5.6030   36.9640    8.2400 N.am      1 19V301      0.0000 
     40 C7          3.1790   38.7200    8.3170 C.3       1 19V301      0.0000 
     41 O1          5.1050   43.5900    8.4940 O.2       1 19V301      0.0000 
     42 N2          4.8920   42.8450   10.6080 N.am      1 19V301      0.0000 
     43 H           6.4751   38.4855    9.4115 H         1 19V301      0.0000 
     44 H           4.1384   38.0755   10.1459 H         1 19V301      0.0000 
     45 H           5.2693   40.2298   10.6595 H         1 19V301      0.0000 
     46 H           3.5334   40.4748   10.4014 H         1 19V301      0.0000 
     47 H           6.9170   40.7951    8.7994 H         1 19V301      0.0000 
     48 H           6.3260   41.4705    7.2715 H         1 19V301      0.0000 
     49 H           6.8966   39.0717    7.0264 H         1 19V301      0.0000 
     50 H           4.7415   38.3536    6.0156 H         1 19V301      0.0000 
     51 H           5.0433   40.0665    5.6768 H         1 19V301      0.0000 
     52 H           3.8098   41.8502    6.9395 H         1 19V301      0.0000 
     53 H           2.6829   41.4141    8.2356 H         1 19V301      0.0000 
     54 H           2.6942   39.6837    6.4417 H         1 19V301      0.0000 
     55 H           4.9701   35.7940    5.8594 H         1 19V301      0.0000 
     56 H           7.0639   32.3584   10.0525 H         1 19V301      0.0000 
     57 H           6.2593   33.9177   10.3000 H         1 19V301      0.0000 
     58 H           5.2574   30.5889    7.3334 H         1 19V301      0.0000 
     59 H           4.3686   29.0442   11.8074 H         1 19V301      0.0000 
     60 H           2.4635   26.2894    9.7693 H         1 19V301      0.0000 
     61 H           3.2999   26.7081    8.2643 H         1 19V301      0.0000 
     62 H           4.6328   24.7457    8.3210 H         1 19V301      0.0000 
     63 H           2.9906   24.2217    8.7316 H         1 19V301      0.0000 
     64 H           6.2048   26.9535   11.2483 H         1 19V301      0.0000 
     65 H           4.7232   26.4164   12.0585 H         1 19V301      0.0000 
     66 H           3.5659   24.6344   11.1616 H         1 19V301      0.0000 
     67 H           6.0644   24.4821   11.6166 H         1 19V301      0.0000 
     68 H           6.3060   24.9517    9.9252 H         1 19V301      0.0000 
     69 H           4.8937   28.2254    7.7323 H         1 19V301      0.0000 
     70 H           7.3673   32.9572    7.6650 H         1 19V301      0.0000 
     71 H           8.1777   34.0936    8.7568 H         1 19V301      0.0000 
     72 H           2.7488   32.0649    8.0246 H         1 19V301      0.0000 
     73 H           1.6496   33.2576    6.2296 H         1 19V301      0.0000 
     74 H           2.7380   35.1422    5.1690 H         1 19V301      0.0000 
     75 H           4.6845   36.7106    7.7804 H         1 19V301      0.0000 
     76 H           2.2633   39.0128    8.8044 H         1 19V301      0.0000 
     77 H           3.0939   37.7218    7.9194 H         1 19V301      0.0000 
     78 H           5.0018   43.7867   10.9262 H         1 19V301      0.0000 
     79 H           4.7485   42.0242   11.1609 H         1 19V301      0.0000 
     80 H           6.3430   22.2921    9.9855 H         1 19V301      0.0000 
     81 H           5.3768   21.0157    9.8324 H         1 19V301      0.0000 
     82 H           5.3184   22.2031    8.7493 H         1 19V301      0.0000 
     83 H           5.4769   22.6729   12.3608 H         1 19V301      0.0000 
     84 H           3.8995   22.8118   12.6418 H         1 19V301      0.0000 
     85 H           4.5174   21.3911   12.2105 H         1 19V301      0.0000 
     86 H           2.7554   22.2778    9.2203 H         1 19V301      0.0000 
     87 H           2.9078   21.1638   10.3700 H         1 19V301      0.0000 
     88 H           2.2232   22.5793   10.7076 H         1 19V301      0.0000 
@<TRIPOS>BOND
     1    2    1 1    
     2    6    1 1    
     3   39    1 1    
     4   43    1 1    
     5    3    2 1    
     6   40    2 1    
     7   44    2 1    
     8    4    3 1    
     9   45    3 1    
    10   46    3 1    
    11    5    4 1    
    12    8    4 1    
    13   10    4 1    
    14    6    5 1    
    15   47    5 1    
    16   48    5 1    
    17    7    6 1    
    18   49    6 1    
    19    9    7 1    
    20   50    7 1    
    21   51    7 1    
    22    9    8 1    
    23   52    8 1    
    24   53    8 1    
    25   40    9 1    
    26   54    9 1    
    27   41   10 2    
    28   42   10 am   
    29   12   11 ar   
    30   35   11 ar   
    31   55   11 1    
    32   32   12 ar   
    33   36   12 1    
    34   30   13 1    
    35   31   13 1    
    36   56   13 1    
    37   57   13 1    
    38   15   14 ar   
    39   29   14 ar   
    40   30   14 1    
    41   28   15 ar   
    42   58   15 1    
    43   27   16 ar   
    44   29   16 ar   
    45   59   16 1    
    46   18   17 1    
    47   26   17 1    
    48   60   17 1    
    49   61   17 1    
    50   23   18 1    
    51   62   18 1    
    52   63   18 1    
    53   25   19 1    
    54   26   19 1    
    55   64   19 1    
    56   65   19 1    
    57   21   20 1    
    58   22   20 1    
    59   23   20 1    
    60   24   20 1    
    61   80   21 1    
    62   81   21 1    
    63   82   21 1    
    64   83   22 1    
    65   84   22 1    
    66   85   22 1    
    67   25   23 1    
    68   66   23 1    
    69   86   24 1    
    70   87   24 1    
    71   88   24 1    
    72   67   25 1    
    73   68   25 1    
    74   27   26 1    
    75   28   27 ar   
    76   69   28 1    
    77   32   30 1    
    78   36   31 1    
    79   70   31 1    
    80   71   31 1    
    81   33   32 ar   
    82   34   33 ar   
    83   72   33 1    
    84   35   34 ar   
    85   73   34 1    
    86   74   35 1    
    87   37   36 am   
    88   38   37 2    
    89   39   37 am   
    90   75   39 1    
    91   76   40 1    
    92   77   40 1    
    93   78   42 1    
    94   79   42 1    
@<TRIPOS>SUBSTRUCTURE
     1 19V301      1 GROUP   
@<TRIPOS>SET

