#    Name: 1ea1_TPF_1_INTS_M
#    Modification time : Mon Mar 24 23:20:55 2014

@<TRIPOS>MOLECULE
1ea1_TPF_1_INTS_M
   25     0     3     0     0
SMALL
NO_CHARGES


@<TRIPOS>ATOM
      1 CA        -16.8920    0.1640   69.2400 C.3       1 GLC5        0.0000 
      2 CA        -16.9380   -1.9320   68.6540 C.3       3 GLL5        0.0000 
      3 CA        -16.8460    2.2600   69.8260 C.3       2 GLP5        0.0000 
      4 CA        -15.6750   -0.3565   66.2210 C.3       1 GLC5        0.0000 
      5 CA        -15.9830   -2.5480   66.3790 C.3       3 GLL5        0.0000 
      6 CA        -15.3670    1.8350   66.0630 C.3       2 GLP5        0.0000 
      7 CA        -24.2310   -1.0870   65.2760 C.3       1 GLC5        0.0000 
      8 CA        -22.4240   -2.3370   65.1550 C.3       3 GLL5        0.0000 
      9 CA        -26.0380    0.1630   65.3970 C.3       2 GLP5        0.0000 
     10 CA        -18.2040    1.0335   67.4200 C.3       1 GLC5        0.0000 
     11 CA        -18.2280   -0.3310   66.2370 C.3       3 GLL5        0.0000 
     12 CA        -18.1800    2.3980   68.6030 C.3       2 GLP5        0.0000 
     13 CA        -19.8090    0.7225   67.1845 C.3       1 GLC5        0.0000 
     14 CA        -21.3900    1.7760   68.1320 C.3       2 GLP5        0.0000 
     15 CA        -17.3620    0.7135   65.7415 C.3       1 GLC5        0.0000 
     16 CA        -16.4960    1.7580   65.2460 C.3       2 GLP5        0.0000 
     17 CA        -15.0682   -4.1445   67.4683 C.3       1 GLC5        0.0000 
     18 CA        -13.5970   -5.5900   68.0450 C.3       2 GLP5        0.0000 
     19 CA        -22.8942   -2.7590   63.9630 C.3       1 GLC5        0.0000 
     20 CA        -23.9910   -3.1280   62.5100 C.3       2 GLP5        0.0000 
     21 CA        -20.2092   -1.8125   63.6527 C.3       1 GLC5        0.0000 
     22 CA        -21.1710   -2.4430   65.6770 C.3       3 GLL5        0.0000 
     23 CA        -19.6760   -1.7430   61.6200 C.3       2 GLP5        0.0000 
     24 CA        -23.0583   -3.5166   66.6151 C.3       1 GLC5        0.0000 
     25 CA        -24.4310   -4.3340   67.6820 C.3       2 GLP5        0.0000 
@<TRIPOS>BOND
@<TRIPOS>SUBSTRUCTURE
     1 GLC5        1 GROUP        1 X    GLC  0     ROOT GLC X 6
     2 GLP5        3 GROUP        1 Y    GLP  0     ROOT GLP Y 13
     3 GLL5        2 GROUP        1 Z    GLL  0     ROOT GLL Z 20
@<TRIPOS>SET

