#    Name: 1ea1_TPF_1_ligand
#    Modification time : Mon Mar 24 23:20:55 2014

@<TRIPOS>MOLECULE
1ea1_TPF_1_ligand
   34    36     1     0     0
SMALL
NO_CHARGES


@<TRIPOS>ATOM
      1 O         -16.9510   -4.2080   67.8460 O.3       1 TPF470      0.0000 
      2 C1        -17.0960   -2.8500   67.4040 C.3       1 TPF470      0.0000 
      3 C2        -16.9380   -1.9320   68.6540 C.3       1 TPF470      0.0000 
      4 C5        -15.9830   -2.5480   66.3790 C.3       1 TPF470      0.0000 
      5 C8        -18.5370   -2.6850   66.7860 C.ar      1 TPF470      0.0000 
      6 N1        -15.5810   -2.0330   69.2360 N.pl3     1 TPF470      0.0000 
      7 C3        -15.2040   -2.7320   70.3240 C.2       1 TPF470      0.0000 
      8 N3        -14.4060   -1.4040   68.7540 N.2       1 TPF470      0.0000 
      9 N2        -13.9070   -2.5540   70.5040 N.2       1 TPF470      0.0000 
     10 C4        -13.4240   -1.7510   69.5550 C.2       1 TPF470      0.0000 
     11 N4        -16.1180   -3.3700   65.1910 N.pl3     1 TPF470      0.0000 
     12 C6        -15.9260   -4.6900   65.0740 C.2       1 TPF470      0.0000 
     13 N6        -16.4840   -2.9070   63.9180 N.2       1 TPF470      0.0000 
     14 N5        -16.1550   -5.0180   63.8370 N.2       1 TPF470      0.0000 
     15 C7        -16.4920   -3.9390   63.1340 C.2       1 TPF470      0.0000 
     16 C9        -19.4230   -3.8020   66.7540 C.ar      1 TPF470      0.0000 
     17 C13       -19.0080   -1.4230   66.2390 C.ar      1 TPF470      0.0000 
     18 C10       -20.7230   -3.6800   66.2060 C.ar      1 TPF470      0.0000 
     19 C11       -21.1710   -2.4430   65.6770 C.ar      1 TPF470      0.0000 
     20 F1        -22.4240   -2.3370   65.1550 F         1 TPF470      0.0000 
     21 C12       -20.3140   -1.3210   65.6940 C.ar      1 TPF470      0.0000 
     22 F2        -18.2280   -0.3310   66.2370 F         1 TPF470      0.0000 
     23 H         -17.6972   -2.2304   69.3835 H         1 TPF470      0.0000 
     24 H         -17.1516   -0.9053   68.3413 H         1 TPF470      0.0000 
     25 H         -15.0181   -2.7209   66.8758 H         1 TPF470      0.0000 
     26 H         -16.0399   -1.4786   66.1323 H         1 TPF470      0.0000 
     27 H         -15.7966   -3.2710   70.8732 H         1 TPF470      0.0000 
     28 H         -12.4895   -1.4727   69.4779 H         1 TPF470      0.0000 
     29 H         -15.6614   -5.2806   65.8019 H         1 TPF470      0.0000 
     30 H         -16.7084   -3.9454   62.1752 H         1 TPF470      0.0000 
     31 H         -19.1115   -4.7006   67.1327 H         1 TPF470      0.0000 
     32 H         -21.3462   -4.4924   66.1912 H         1 TPF470      0.0000 
     33 H         -20.6339   -0.4277   65.3117 H         1 TPF470      0.0000 
     34 H         -17.6522   -4.3275   68.5489 H         1 TPF470      0.0000 
@<TRIPOS>BOND
     1    2    1 1    
     2   34    1 1    
     3    3    2 1    
     4    4    2 1    
     5    5    2 1    
     6    6    3 1    
     7   23    3 1    
     8   24    3 1    
     9   11    4 1    
    10   25    4 1    
    11   26    4 1    
    12   16    5 ar   
    13   17    5 ar   
    14    7    6 1    
    15    8    6 1    
    16    9    7 2    
    17   27    7 1    
    18   10    8 2    
    19   10    9 1    
    20   28   10 1    
    21   12   11 1    
    22   13   11 1    
    23   14   12 2    
    24   29   12 1    
    25   15   13 2    
    26   15   14 1    
    27   30   15 1    
    28   18   16 ar   
    29   31   16 1    
    30   21   17 ar   
    31   22   17 1    
    32   19   18 ar   
    33   32   18 1    
    34   20   19 1    
    35   21   19 ar   
    36   33   21 1    
@<TRIPOS>SUBSTRUCTURE
     1 TPF470      1 GROUP   
@<TRIPOS>SET

