#    Name: 2o0u_C0M_1_INTS_M
#    Modification time : Tue Mar 25 21:47:23 2014

@<TRIPOS>MOLECULE
2o0u_C0M_1_INTS_M
   80     0     6     0     0
SMALL
NO_CHARGES


@<TRIPOS>ATOM
      1 CA         26.3990    6.4790   31.5345 C.3       2 GLC5        0.0000 
      2 CA         26.9050    5.4460   29.9010 C.3       6 GLL5        0.0000 
      3 CA         25.8930    7.5120   33.1680 C.3       4 GLP5        0.0000 
      4 CA         28.5375    4.7825   25.6910 C.3       2 GLC5        0.0000 
      5 CA         29.7560    5.2330   27.4470 C.3       6 GLL5        0.0000 
      6 CA         27.3190    4.3320   23.9350 C.3       4 GLP5        0.0000 
      7 CA         23.5805    4.6010   28.4195 C.3       2 GLC5        0.0000 
      8 CA         23.9830    5.9310   29.7560 C.3       6 GLL5        0.0000 
      9 CA         23.1780    3.2710   27.0830 C.3       4 GLP5        0.0000 
     10 CA         24.3495    8.7345   32.3185 C.3       2 GLC5        0.0000 
     11 CA         22.8060    9.9570   31.4690 C.3       6 GLL5        0.0000 
     12 CA         19.1830    7.8195   33.5010 C.3       2 GLC5        0.0000 
     13 CA         21.0360    6.7750   32.9210 C.3       6 GLL5        0.0000 
     14 CA         17.3300    8.8640   34.0810 C.3       4 GLP5        0.0000 
     15 CA         21.4420    5.1305   34.2280 C.3       2 GLC5        0.0000 
     16 CA         21.8480    3.4860   35.5350 C.3       4 GLP5        0.0000 
     17 CA         19.8145    5.4515   31.8390 C.3       2 GLC5        0.0000 
     18 CA         18.5930    4.1280   30.7570 C.3       4 GLP5        0.0000 
     19 N          19.7220    4.6790   33.2325 N.am      1 SEC2        0.0000 
     20 N          20.4350    5.9530   33.4280 N.am      5 SEL2        0.0000 
     21 N          19.0090    3.4050   33.0370 N.am      3 SEP2        0.0000 
     22 CA         20.1580   10.4670   38.5140 C.3       2 GLC5        0.0000 
     23 CA         18.9850   11.0330   36.8340 C.3       6 GLL5        0.0000 
     24 CA         21.3310    9.9010   40.1940 C.3       4 GLP5        0.0000 
     25 CA         17.9630   10.5420   38.7565 C.3       2 GLC5        0.0000 
     26 CA         16.9410   10.0510   40.6790 C.3       4 GLP5        0.0000 
     27 CA         18.0335   12.0425   31.9095 C.3       2 GLC5        0.0000 
     28 CA         18.7720   13.3800   33.2940 C.3       6 GLL5        0.0000 
     29 CA         17.2950   10.7050   30.5250 C.3       4 GLP5        0.0000 
     30 CA         17.6425   13.5995   31.2960 C.3       2 GLC5        0.0000 
     31 CA         17.8200   14.3740   33.2360 C.3       6 GLL5        0.0000 
     32 CA         17.4650   12.8250   29.3560 C.3       4 GLP5        0.0000 
     33 CA         15.4525   15.7735   34.3270 C.3       2 GLC5        0.0000 
     34 CA         16.9190   14.5980   34.3000 C.3       6 GLL5        0.0000 
     35 CA         13.9860   16.9490   34.3540 C.3       4 GLP5        0.0000 
     36 CA         15.1895   14.6770   35.3525 C.3       2 GLC5        0.0000 
     37 CA         16.9890   13.8410   35.4610 C.3       6 GLL5        0.0000 
     38 CA         13.3900   15.5130   35.2440 C.3       4 GLP5        0.0000 
     39 CA         24.6749    6.8880   31.8211 C.3       2 GLC5        0.0000 
     40 CA         22.7290    7.2980   31.3720 C.3       6 GLL5        0.0000 
     41 CA         21.8854    7.0430   29.4956 C.3       2 GLC5        0.0000 
     42 CA         20.3140    7.8220   28.5170 C.3       4 GLP5        0.0000 
     43 CA         24.9305    7.9777   31.7520 C.3       2 GLC5        0.0000 
     44 CA         23.4280    8.4700   30.8530 C.3       6 GLL5        0.0000 
     45 CA         22.1410    8.1328   29.4265 C.3       2 GLC5        0.0000 
     46 CA         23.0218    9.8262   33.8210 C.3       2 GLC5        0.0000 
     47 CA         23.8400   10.0680   35.6800 C.3       4 GLP5        0.0000 
     48 CA         20.8727   10.5068   30.8325 C.3       2 GLC5        0.0000 
     49 CA         21.6010    9.2120   32.4550 C.3       6 GLL5        0.0000 
     50 CA         19.5420   11.4290   29.7030 C.3       4 GLP5        0.0000 
     51 CA         22.6547    6.7790   33.8580 C.3       2 GLC5        0.0000 
     52 CA         21.7170    7.7510   32.3210 C.3       6 GLL5        0.0000 
     53 CA         23.9330    6.2950   35.0950 C.3       4 GLP5        0.0000 
     54 CA         21.0377    7.1310   34.6015 C.3       2 GLC5        0.0000 
     55 CA         20.6990    6.9990   36.5820 C.3       4 GLP5        0.0000 
     56 CA         21.1371    8.2449   30.3292 C.3       2 GLC5        0.0000 
     57 CA         21.8530   10.6022   35.4465 C.3       2 GLC5        0.0000 
     58 CA         19.8590   11.5170   34.6210 C.3       6 GLL5        0.0000 
     59 CA         20.6415   12.5023   36.3335 C.3       2 GLC5        0.0000 
     60 CA         19.8730   10.7560   35.8050 C.3       6 GLL5        0.0000 
     61 CA         21.4170   13.8680   37.4540 C.3       4 GLP5        0.0000 
     62 CA         18.5980   10.0003   34.6470 C.3       2 GLC5        0.0000 
     63 CA         20.0640    8.9467   36.4507 C.3       2 GLC5        0.0000 
     64 CA         17.8350    9.8815   36.2763 C.3       2 GLC5        0.0000 
     65 CA         17.1580    8.2290   35.7740 C.3       4 GLP5        0.0000 
     66 CA         17.7518   13.4930   37.7567 C.3       2 GLC5        0.0000 
     67 CA         18.0390   12.0350   36.7230 C.3       6 GLL5        0.0000 
     68 CA         17.5190   14.5600   39.3670 C.3       4 GLP5        0.0000 
     69 CA         17.8612   10.7843   34.5440 C.3       2 GLC5        0.0000 
     70 CA         18.8550   12.5920   34.4440 C.3       6 GLL5        0.0000 
     71 CA         19.7949   14.4870   34.5117 C.3       2 GLC5        0.0000 
     72 CA         21.2730   15.2940   35.4710 C.3       4 GLP5        0.0000 
     73 CA         15.6665   12.7858   34.0228 C.3       2 GLC5        0.0000 
     74 CA         14.3790   11.3520   33.1650 C.3       4 GLP5        0.0000 
     75 CA         17.2120   15.4113   36.4183 C.3       2 GLC5        0.0000 
     76 CA         17.4700   16.6030   37.9560 C.3       4 GLP5        0.0000 
     77 CA         15.6959   12.9407   36.5789 C.3       2 GLC5        0.0000 
     78 CA         13.9050   12.7480   37.3540 C.3       4 GLP5        0.0000 
     79 CA         19.8190   13.0218   36.8141 C.3       2 GLC5        0.0000 
     80 CA         17.9300   12.8170   35.5700 C.3       6 GLL5        0.0000 
@<TRIPOS>BOND
@<TRIPOS>SUBSTRUCTURE
     1 SEC2       19 GROUP        1 X    SEC  0     ROOT SEC X 2
     2 GLC5        1 GROUP        1 X    GLC  0     **** GLC X 6
     3 SEP2       21 GROUP        1 Y    SEP  0     ROOT SEP Y 9
     4 GLP5        3 GROUP        1 Y    GLP  0     **** GLP Y 13
     5 SEL2       20 GROUP        1 Z    SEL  0     ROOT SEL Z 16
     6 GLL5        2 GROUP        1 Z    GLL  0     **** GLL Z 20
@<TRIPOS>SET

