#    Name: 2o0u_C0M_1_ligand
#    Modification time : Tue Mar 25 21:47:23 2014

@<TRIPOS>MOLECULE
2o0u_C0M_1_ligand
   63    67     1     0     0
SMALL
NO_CHARGES


@<TRIPOS>ATOM
      1 C1         23.1320    5.8960   31.0130 C.3       1 C0M2000     0.0000 
      2 C2         22.7290    7.2980   31.3720 C.2       1 C0M2000     0.0000 
      3 O26        26.9170    7.6100   28.7840 O.2       1 C0M2000     0.0000 
      4 C25        26.2720    6.7640   29.4180 C.2       1 C0M2000     0.0000 
      5 C27        26.9050    5.4460   29.9010 C.3       1 C0M2000     0.0000 
      6 C28        27.9020    4.7870   28.9260 C.3       1 C0M2000     0.0000 
      7 N29        29.0540    5.6690   28.6640 N.4       1 C0M2000     0.0000 
      8 C34        30.0040    5.6230   29.7790 C.3       1 C0M2000     0.0000 
      9 C33        31.0200    6.7470   29.5550 C.3       1 C0M2000     0.0000 
     10 C32        31.7720    6.5450   28.2390 C.3       1 C0M2000     0.0000 
     11 C31        30.8060    6.2910   27.0860 C.3       1 C0M2000     0.0000 
     12 C30        29.7560    5.2330   27.4470 C.3       1 C0M2000     0.0000 
     13 N5         24.9730    7.0110   29.7470 N.am      1 C0M2000     0.0000 
     14 C6         23.9830    5.9310   29.7560 C.3       1 C0M2000     0.0000 
     15 C4         24.5080    8.4170   29.8190 C.3       1 C0M2000     0.0000 
     16 C3         23.4280    8.4700   30.8530 C.2       1 C0M2000     0.0000 
     17 S9         22.8060    9.9570   31.4690 S.3       1 C0M2000     0.0000 
     18 C8         21.6010    9.2120   32.4550 C.2       1 C0M2000     0.0000 
     19 C7         21.7170    7.7510   32.3210 C.2       1 C0M2000     0.0000 
     20 C10        21.0360    6.7750   32.9210 C.1       1 C0M2000     0.0000 
     21 N11        20.4350    5.9530   33.4280 N.1       1 C0M2000     0.0000 
     22 N12        20.7650    9.8310   33.2420 N.am      1 C0M2000     0.0000 
     23 C13        20.7620   11.1620   33.4910 C.2       1 C0M2000     0.0000 
     24 O14        21.3590   11.9900   32.8530 O.2       1 C0M2000     0.0000 
     25 C15        19.8590   11.5170   34.6210 C.ar      1 C0M2000     0.0000 
     26 C20        19.8730   10.7560   35.8050 C.ar      1 C0M2000     0.0000 
     27 C19        18.9850   11.0330   36.8340 C.ar      1 C0M2000     0.0000 
     28 C18        18.0390   12.0350   36.7230 C.ar      1 C0M2000     0.0000 
     29 C16        18.8550   12.5920   34.4440 C.ar      1 C0M2000     0.0000 
     30 C21        18.7720   13.3800   33.2940 C.ar      1 C0M2000     0.0000 
     31 C22        17.8200   14.3740   33.2360 C.ar      1 C0M2000     0.0000 
     32 C23        16.9190   14.5980   34.3000 C.ar      1 C0M2000     0.0000 
     33 C24        16.9890   13.8410   35.4610 C.ar      1 C0M2000     0.0000 
     34 C17        17.9300   12.8170   35.5700 C.ar      1 C0M2000     0.0000 
     35 H          22.2484    5.2930   30.8302 H         1 C0M2000     0.0000 
     36 H          23.7072    5.4582   31.8225 H         1 C0M2000     0.0000 
     37 H          26.0953    4.7231   30.1194 H         1 C0M2000     0.0000 
     38 H          27.4226    5.6326   30.8618 H         1 C0M2000     0.0000 
     39 H          27.3680    4.5607   27.9972 H         1 C0M2000     0.0000 
     40 H          28.2311    3.8402   29.3668 H         1 C0M2000     0.0000 
     41 H          28.7097    6.6848   28.5278 H         1 C0M2000     0.0000 
     42 H          30.5338    4.6814   29.8021 H         1 C0M2000     0.0000 
     43 H          29.5066    5.7934   30.7231 H         1 C0M2000     0.0000 
     44 H          31.7316    6.7553   30.3781 H         1 C0M2000     0.0000 
     45 H          30.4977    7.7012   29.5278 H         1 C0M2000     0.0000 
     46 H          32.4458    5.6937   28.3389 H         1 C0M2000     0.0000 
     47 H          32.3632    7.4356   28.0243 H         1 C0M2000     0.0000 
     48 H          31.3672    5.9513   26.2126 H         1 C0M2000     0.0000 
     49 H          30.2977    7.2229   26.8285 H         1 C0M2000     0.0000 
     50 H          29.0666    5.1361   26.6149 H         1 C0M2000     0.0000 
     51 H          30.2632    4.2877   27.6091 H         1 C0M2000     0.0000 
     52 H          23.3058    6.0234   28.8827 H         1 C0M2000     0.0000 
     53 H          24.4858    4.9481   29.6516 H         1 C0M2000     0.0000 
     54 H          24.1115    8.7291   28.8620 H         1 C0M2000     0.0000 
     55 H          25.3232    9.0659   30.1104 H         1 C0M2000     0.0000 
     56 H          20.0015    9.2488   33.7481 H         1 C0M2000     0.0000 
     57 H          20.5530    9.9874   35.8997 H         1 C0M2000     0.0000 
     58 H          19.0337   10.4720   37.7096 H         1 C0M2000     0.0000 
     59 H          17.3887   12.2165   37.5145 H         1 C0M2000     0.0000 
     60 H          19.4105   13.2152   32.5136 H         1 C0M2000     0.0000 
     61 H          17.7513   14.9808   32.3965 H         1 C0M2000     0.0000 
     62 H          16.2049   15.3348   34.2029 H         1 C0M2000     0.0000 
     63 H          16.3490   14.0323   36.2423 H         1 C0M2000     0.0000 
@<TRIPOS>BOND
     1    2    1 1    
     2   14    1 1    
     3   35    1 1    
     4   36    1 1    
     5   16    2 2    
     6   19    2 1    
     7    4    3 2    
     8    5    4 1    
     9   13    4 am   
    10    6    5 1    
    11   37    5 1    
    12   38    5 1    
    13    7    6 1    
    14   39    6 1    
    15   40    6 1    
    16    8    7 1    
    17   12    7 1    
    18   41    7 1    
    19    9    8 1    
    20   42    8 1    
    21   43    8 1    
    22   10    9 1    
    23   44    9 1    
    24   45    9 1    
    25   11   10 1    
    26   46   10 1    
    27   47   10 1    
    28   12   11 1    
    29   48   11 1    
    30   49   11 1    
    31   50   12 1    
    32   51   12 1    
    33   14   13 1    
    34   15   13 1    
    35   52   14 1    
    36   53   14 1    
    37   16   15 1    
    38   54   15 1    
    39   55   15 1    
    40   17   16 1    
    41   18   17 1    
    42   19   18 2    
    43   22   18 1    
    44   20   19 1    
    45   21   20 3    
    46   23   22 am   
    47   56   22 1    
    48   24   23 2    
    49   25   23 1    
    50   26   25 ar   
    51   29   25 ar   
    52   27   26 ar   
    53   57   26 1    
    54   28   27 ar   
    55   58   27 1    
    56   34   28 ar   
    57   59   28 1    
    58   30   29 ar   
    59   34   29 ar   
    60   31   30 ar   
    61   60   30 1    
    62   32   31 ar   
    63   61   31 1    
    64   33   32 ar   
    65   62   32 1    
    66   34   33 ar   
    67   63   33 1    
@<TRIPOS>SUBSTRUCTURE
     1 C0M2000     1 GROUP   
@<TRIPOS>SET

