#    Name: 3akn_11D_1_INTS_M
#    Modification time : Tue Mar 25 12:05:31 2014

@<TRIPOS>MOLECULE
3akn_11D_1_INTS_M
  100     0    12     0     0
SMALL
NO_CHARGES


@<TRIPOS>ATOM
      1 CA         18.9295  -19.9570    9.2885 C.3       4 GLC5        0.0000 
      2 CA         20.8880  -19.5970    8.7240 C.3      12 GLL5        0.0000 
      3 CA         16.9710  -20.3170    9.8530 C.3       8 GLP5        0.0000 
      4 CA         19.6820  -20.5550    7.6585 C.3       4 GLC5        0.0000 
      5 CA         18.4760  -21.5130    6.5930 C.3       8 GLP5        0.0000 
      6 CA         23.7775  -19.4890   10.7170 C.3       4 GLC5        0.0000 
      7 CA         25.0830  -18.7900    9.1850 C.3      12 GLL5        0.0000 
      8 CA         22.4720  -20.1880   12.2490 C.3       8 GLP5        0.0000 
      9 CA         26.7390  -17.9700   11.3210 C.3       4 GLC5        0.0000 
     10 CA         25.4520  -17.5000    9.5580 C.3      12 GLL5        0.0000 
     11 CA         28.0260  -18.4400   13.0840 C.3       8 GLP5        0.0000 
     12 CA         25.6330  -14.7635    9.7370 C.3       4 GLC5        0.0000 
     13 CA         24.5040  -16.4800    9.7510 C.3      12 GLL5        0.0000 
     14 CA         26.7620  -13.0470    9.7230 C.3       8 GLP5        0.0000 
     15 CA         24.2590  -20.5160   11.1485 C.3       4 GLC5        0.0000 
     16 CA         26.0460  -20.8440   10.0480 C.3      12 GLL5        0.0000 
     17 CA         27.5180  -20.2325   11.4590 C.3       4 GLC5        0.0000 
     18 CA         28.9900  -19.6210   12.8700 C.3       8 GLP5        0.0000 
     19 CA         25.4745  -22.3390    9.3590 C.3       4 GLC5        0.0000 
     20 CA         24.9030  -23.8340    8.6700 C.3       8 GLP5        0.0000 
     21 CA         28.3785  -18.1585    8.0580 C.3       4 GLC5        0.0000 
     22 CA         27.3450  -19.5530    8.3710 C.3      12 GLL5        0.0000 
     23 CA         29.4120  -16.7640    7.7450 C.3       8 GLP5        0.0000 
     24 CA         26.4070  -19.6995    6.8175 C.3       4 GLC5        0.0000 
     25 CA         25.4690  -19.8460    5.2640 C.3       8 GLP5        0.0000 
     26 O          21.0065  -14.7145    8.0810 O.2       1 ALC1        0.0000 
     27 O          20.2190  -16.0120    8.1390 O.2       9 ALL1        0.0000 
     28 O          21.7940  -13.4170    8.0230 O.2       5 ALP1        0.0000 
     29 CA         17.6770  -15.5250    8.1980 C.3       4 GLC5        0.0000 
     30 CA         18.5310  -16.0770    6.3290 C.3      12 GLL5        0.0000 
     31 CA         16.8230  -14.9730   10.0670 C.3       8 GLP5        0.0000 
     32 CA         18.1055  -14.1825    6.4685 C.3       4 GLC5        0.0000 
     33 CA         17.6800  -12.2880    6.6080 C.3       8 GLP5        0.0000 
     34 CA         17.8995  -14.3930    5.0480 C.3       4 GLC5        0.0000 
     35 CA         18.3430  -16.3100    4.8410 C.3      12 GLL5        0.0000 
     36 CA         17.4560  -12.4760    5.2550 C.3       8 GLP5        0.0000 
     37 CA         15.0320  -16.8465    5.3735 C.3       4 GLC5        0.0000 
     38 CA         16.8660  -16.4630    4.4630 C.3      12 GLL5        0.0000 
     39 CA         13.1980  -17.2300    6.2840 C.3       8 GLP5        0.0000 
     40 CA         17.6810  -18.2390    2.0250 C.3       4 GLC5        0.0000 
     41 CA         16.7920  -16.6730    2.9450 C.3      12 GLL5        0.0000 
     42 CA         18.5700  -19.8050    1.1050 C.3       8 GLP5        0.0000 
     43 CA         13.9875  -15.1715    2.5610 C.3       4 GLC5        0.0000 
     44 CA         15.3730  -16.5630    2.3770 C.3      12 GLL5        0.0000 
     45 CA         12.6020  -13.7800    2.7450 C.3       8 GLP5        0.0000 
     46 CA         16.8795  -18.6135    1.1110 C.3       4 GLC5        0.0000 
     47 CA         15.1890  -17.4220    1.1170 C.3      12 GLL5        0.0000 
     48 CA         13.3780  -17.7345    0.7630 C.3       4 GLC5        0.0000 
     49 CA         11.5670  -18.0470    0.4090 C.3       8 GLP5        0.0000 
     50 CA         17.6965  -18.0560    0.0425 C.3       4 GLC5        0.0000 
     51 CA         16.0460  -16.9610   -0.0610 C.3      12 GLL5        0.0000 
     52 CA         19.3470  -19.1510    0.1460 C.3       8 GLP5        0.0000 
     53 CA         17.0460  -19.1565   -1.4365 C.3       4 GLC5        0.0000 
     54 CA         15.6700  -17.7330   -1.3240 C.3      12 GLL5        0.0000 
     55 CA         18.4220  -20.5800   -1.5490 C.3       8 GLP5        0.0000 
     56 CA         13.8115  -18.2865   -0.9940 C.3       4 GLC5        0.0000 
     57 CA         11.9530  -18.8400   -0.6640 C.3       8 GLP5        0.0000 
     58 CA         17.0260  -18.1355   -4.1410 C.3       4 GLC5        0.0000 
     59 CA         16.5500  -17.3890   -2.5230 C.3      12 GLL5        0.0000 
     60 CA         17.5020  -18.8820   -5.7590 C.3       8 GLP5        0.0000 
     61 CA         17.9215  -18.4685   -1.8520 C.3       4 GLC5        0.0000 
     62 CA         19.2930  -19.5480   -1.1810 C.3       8 GLP5        0.0000 
     63 NZ         15.2395  -14.1450   -3.4710 N.4       3 LYC4        0.0000 
     64 NZ         15.3390  -15.5480   -3.3840 N.4      11 LYL4        0.0000 
     65 NZ         15.7040  -12.1630   -2.5130 N.4       7 LYP4        0.0000 
     66 N          15.2395  -14.1450   -3.4710 N.am      2 SEC2        0.0000 
     67 N          15.3390  -15.5480   -3.3840 N.am     10 SEL2        0.0000 
     68 N          15.1400  -12.7420   -3.5580 N.am      6 SEP2        0.0000 
     69 NZ         16.2890  -13.9655   -3.2410 N.4       3 LYC4        0.0000 
     70 NZ         17.4380  -15.1890   -2.9240 N.4      11 LYL4        0.0000 
     71 N          16.2890  -13.9655   -3.2410 N.am      2 SEC2        0.0000 
     72 N          17.4380  -15.1890   -2.9240 N.am     10 SEL2        0.0000 
     73 N          17.1265  -13.9385   -2.4665 N.am      2 SEC2        0.0000 
     74 N          16.8150  -12.6880   -2.0090 N.am      6 SEP2        0.0000 
     75 CA         21.5648  -21.1035    6.9612 C.3       4 GLC5        0.0000 
     76 CA         23.2000  -20.3790    8.6810 C.3      12 GLL5        0.0000 
     77 CA         20.6100  -21.7180    5.3130 C.3       8 GLP5        0.0000 
     78 CA         23.7112  -22.1615    8.6397 C.3       4 GLC5        0.0000 
     79 CA         22.5935  -18.0700   11.1335 C.3       4 GLC5        0.0000 
     80 CA         22.6790  -17.9800    9.2350 C.3      12 GLL5        0.0000 
     81 CA         22.2820  -18.7970   12.8570 C.3       8 GLP5        0.0000 
     82 CA         21.7643  -19.5617   10.5672 C.3       4 GLC5        0.0000 
     83 CA         21.2250  -18.2740    9.0470 C.3      12 GLL5        0.0000 
     84 CA         22.5512  -20.1780   10.4730 C.3       4 GLC5        0.0000 
     85 CA         21.8390  -20.5990    8.5380 C.3      12 GLL5        0.0000 
     86 CA         24.8607  -19.5547    7.1423 C.3       4 GLC5        0.0000 
     87 CA         24.8020  -17.6045   11.6202 C.3       4 GLC5        0.0000 
     88 CA         24.6260  -18.2190   13.5860 C.3       8 GLP5        0.0000 
     89 CA         23.5727  -15.1800   10.7330 C.3       4 GLC5        0.0000 
     90 CA         23.3280  -13.7670   11.7980 C.3       8 GLP5        0.0000 
     91 CA         19.1182  -18.0545    5.6395 C.3       4 GLC5        0.0000 
     92 CA         19.9920  -16.3030    6.7310 C.3      12 GLL5        0.0000 
     93 CA         18.9750  -19.9190    4.7490 C.3       8 GLP5        0.0000 
     94 CA         16.4985  -14.6375    4.2260 C.3       4 GLC5        0.0000 
     95 CA         16.1680  -12.7070    4.7480 C.3       8 GLP5        0.0000 
     96 CA         18.0866  -18.2244    4.2737 C.3       4 GLC5        0.0000 
     97 CA         14.4555  -15.8655   -1.0743 C.3       4 GLC5        0.0000 
     98 CA         13.0530  -14.3840   -1.4560 C.3       8 GLP5        0.0000 
     99 CA         14.8420  -18.8165   -2.9367 C.3       4 GLC5        0.0000 
    100 CA         13.5740  -20.0720   -3.9500 C.3       8 GLP5        0.0000 
@<TRIPOS>BOND
@<TRIPOS>SUBSTRUCTURE
     1 ALC1       26 GROUP        1 X    ALC  0     ROOT ALC X 1
     2 SEC2       66 GROUP        1 X    SEC  0     **** SEC X 2
     3 LYC4       63 GROUP        1 X    LYC  0     **** LYC X 4
     4 GLC5        1 GROUP        1 X    GLC  0     **** GLC X 6
     5 ALP1       28 GROUP        1 Y    ALP  0     ROOT ALP Y 8
     6 SEP2       68 GROUP        1 Y    SEP  0     **** SEP Y 9
     7 LYP4       65 GROUP        1 Y    LYP  0     **** LYP Y 11
     8 GLP5        3 GROUP        1 Y    GLP  0     **** GLP Y 13
     9 ALL1       27 GROUP        1 Z    ALL  0     ROOT ALL Z 15
    10 SEL2       67 GROUP        1 Z    SEL  0     **** SEL Z 16
    11 LYL4       64 GROUP        1 Z    LYL  0     **** LYL Z 18
    12 GLL5        2 GROUP        1 Z    GLL  0     **** GLL Z 20
@<TRIPOS>SET

