#    Name: 3akn_11D_1_ligand
#    Modification time : Tue Mar 25 12:05:31 2014

@<TRIPOS>MOLECULE
3akn_11D_1_ligand
   63    64     1     0     0
SMALL
NO_CHARGES


@<TRIPOS>ATOM
      1 C1         23.2000  -20.3790    8.6810 C.ar      1 11D132      0.0000 
      2 C2         23.6440  -19.0950    9.0310 C.ar      1 11D132      0.0000 
      3 C3         22.6790  -17.9800    9.2350 C.ar      1 11D132      0.0000 
      4 C4         21.2250  -18.2740    9.0470 C.ar      1 11D132      0.0000 
      5 C5         20.8880  -19.5970    8.7240 C.ar      1 11D132      0.0000 
      6 C6         21.8390  -20.5990    8.5380 C.ar      1 11D132      0.0000 
      7 C7         25.0830  -18.7900    9.1850 C.ar      1 11D132      0.0000 
      8 C8         25.4520  -17.5000    9.5580 C.ar      1 11D132      0.0000 
      9 C9         24.5040  -16.4800    9.7510 C.ar      1 11D132      0.0000 
     10 C10        23.1310  -16.7060    9.5850 C.ar      1 11D132      0.0000 
     11 N11        26.1020  -19.7400    9.1130 N.3       1 11D132      0.0000 
     12 C12        26.0460  -20.8440   10.0480 C.3       1 11D132      0.0000 
     13 C13        27.3450  -19.5530    8.3710 C.3       1 11D132      0.0000 
     14 S14        20.0800  -17.1490    9.2570 S.o2      1 11D132      0.0000 
     15 O15        20.1700  -16.5470   10.5600 O.2       1 11D132      0.0000 
     16 O16        18.8010  -17.7560    9.0120 O.2       1 11D132      0.0000 
     17 N17        20.2190  -16.0120    8.1390 N.pl3     1 11D132      0.0000 
     18 C18        19.9920  -16.3030    6.7310 C.3       1 11D132      0.0000 
     19 C19        18.5310  -16.0770    6.3290 C.3       1 11D132      0.0000 
     20 C20        18.3430  -16.3100    4.8410 C.3       1 11D132      0.0000 
     21 C21        16.8660  -16.4630    4.4630 C.3       1 11D132      0.0000 
     22 C22        16.7920  -16.6730    2.9450 C.3       1 11D132      0.0000 
     23 C23        15.3730  -16.5630    2.3770 C.3       1 11D132      0.0000 
     24 C24        15.1890  -17.4220    1.1170 C.3       1 11D132      0.0000 
     25 C25        16.0460  -16.9610   -0.0610 C.3       1 11D132      0.0000 
     26 C26        15.6700  -17.7330   -1.3240 C.3       1 11D132      0.0000 
     27 C27        16.5500  -17.3890   -2.5230 C.3       1 11D132      0.0000 
     28 C28        16.4380  -15.9490   -2.9730 C.2       1 11D132      0.0000 
     29 O29        15.3390  -15.5480   -3.3840 O.co2     1 11D132      0.0000 
     30 O30        17.4380  -15.1890   -2.9240 O.co2     1 11D132      0.0000 
     31 H          23.8718  -21.1308    8.5363 H         1 11D132      0.0000 
     32 H          19.8748  -19.8391    8.6187 H         1 11D132      0.0000 
     33 H          21.5073  -21.5592    8.2789 H         1 11D132      0.0000 
     34 H          26.4580  -17.2788    9.6995 H         1 11D132      0.0000 
     35 H          24.8317  -15.5348   10.0238 H         1 11D132      0.0000 
     36 H          22.4658  -15.9410    9.7199 H         1 11D132      0.0000 
     37 H          20.4676  -15.1090    8.4742 H         1 11D132      0.0000 
     38 H          20.2486  -17.3486    6.4990 H         1 11D132      0.0000 
     39 H          20.6213  -15.6649    6.0909 H         1 11D132      0.0000 
     40 H          18.2488  -15.0552    6.5769 H         1 11D132      0.0000 
     41 H          17.8987  -16.7640    6.8887 H         1 11D132      0.0000 
     42 H          18.8803  -17.2164    4.5434 H         1 11D132      0.0000 
     43 H          18.7654  -15.4673    4.2840 H         1 11D132      0.0000 
     44 H          16.3330  -15.5681    4.7269 H         1 11D132      0.0000 
     45 H          16.4539  -17.3200    4.9634 H         1 11D132      0.0000 
     46 H          17.1976  -17.6663    2.7030 H         1 11D132      0.0000 
     47 H          17.4332  -15.9282    2.4510 H         1 11D132      0.0000 
     48 H          15.1656  -15.5193    2.1297 H         1 11D132      0.0000 
     49 H          14.6569  -16.8863    3.1360 H         1 11D132      0.0000 
     50 H          14.1305  -17.3976    0.8232 H         1 11D132      0.0000 
     51 H          15.4404  -18.4639    1.3589 H         1 11D132      0.0000 
     52 H          17.0940  -17.1342    0.1678 H         1 11D132      0.0000 
     53 H          15.8863  -15.8992   -0.2276 H         1 11D132      0.0000 
     54 H          14.6217  -17.5188   -1.5756 H         1 11D132      0.0000 
     55 H          15.7463  -18.8105   -1.1209 H         1 11D132      0.0000 
     56 H          16.2814  -18.0544   -3.3619 H         1 11D132      0.0000 
     57 H          17.6007  -17.6093   -2.2659 H         1 11D132      0.0000 
     58 H          26.8123  -21.4745    9.9246 H         1 11D132      0.0000 
     59 H          26.0754  -20.5291   10.9967 H         1 11D132      0.0000 
     60 H          25.2072  -21.3780    9.9423 H         1 11D132      0.0000 
     61 H          27.8642  -18.7676    8.7081 H         1 11D132      0.0000 
     62 H          27.9430  -20.3515    8.4409 H         1 11D132      0.0000 
     63 H          27.1767  -19.3972    7.3977 H         1 11D132      0.0000 
@<TRIPOS>BOND
     1    2    1 ar   
     2    6    1 ar   
     3   31    1 1    
     4    3    2 ar   
     5    7    2 ar   
     6    4    3 ar   
     7   10    3 ar   
     8    5    4 ar   
     9   14    4 1    
    10    6    5 ar   
    11   32    5 1    
    12   33    6 1    
    13    8    7 ar   
    14   11    7 1    
    15    9    8 ar   
    16   34    8 1    
    17   10    9 ar   
    18   35    9 1    
    19   36   10 1    
    20   12   11 1    
    21   13   11 1    
    22   58   12 1    
    23   59   12 1    
    24   60   12 1    
    25   61   13 1    
    26   62   13 1    
    27   63   13 1    
    28   15   14 2    
    29   16   14 2    
    30   17   14 1    
    31   18   17 1    
    32   37   17 1    
    33   19   18 1    
    34   38   18 1    
    35   39   18 1    
    36   20   19 1    
    37   40   19 1    
    38   41   19 1    
    39   21   20 1    
    40   42   20 1    
    41   43   20 1    
    42   22   21 1    
    43   44   21 1    
    44   45   21 1    
    45   23   22 1    
    46   46   22 1    
    47   47   22 1    
    48   24   23 1    
    49   48   23 1    
    50   49   23 1    
    51   25   24 1    
    52   50   24 1    
    53   51   24 1    
    54   26   25 1    
    55   52   25 1    
    56   53   25 1    
    57   27   26 1    
    58   54   26 1    
    59   55   26 1    
    60   28   27 1    
    61   56   27 1    
    62   57   27 1    
    63   29   28 ar   
    64   30   28 ar   
@<TRIPOS>SUBSTRUCTURE
     1 11D132      1 GROUP   
@<TRIPOS>SET

