#    Name: 2d0e_NQ_1_INTS_M
#    Modification time : Tue Mar 25 01:25:29 2014

@<TRIPOS>MOLECULE
2d0e_NQ_1_INTS_M
   17     0     9     0     0
SMALL
NO_CHARGES


@<TRIPOS>ATOM
      1 N         -29.5170  -35.0680  112.6595 N.am      1 SEC2        0.0000 
      2 N         -27.9850  -34.8340  112.7750 N.am      7 SEL2        0.0000 
      3 N         -31.0490  -35.3020  112.5440 N.am      4 SEP2        0.0000 
      4 CA        -29.3695  -34.9520  114.4430 C.3       3 GLC5        0.0000 
      5 CA        -27.4950  -34.7330  114.9890 C.3       9 GLL5        0.0000 
      6 CA        -31.2440  -35.1710  113.8970 C.3       6 GLP5        0.0000 
      7 CA        -27.9460  -36.5125  114.4255 C.3       3 GLC5        0.0000 
      8 CA        -28.3970  -38.2920  113.8620 C.3       6 GLP5        0.0000 
      9 NZ        -26.5900  -35.9505  117.3400 N.4       2 LYC4        0.0000 
     10 NZ        -26.9000  -34.5980  117.2910 N.4       8 LYL4        0.0000 
     11 NZ        -26.5890  -38.0870  118.4130 N.4       5 LYP4        0.0000 
     12 N         -26.5900  -35.9505  117.3400 N.am      1 SEC2        0.0000 
     13 N         -26.9000  -34.5980  117.2910 N.am      7 SEL2        0.0000 
     14 N         -26.2800  -37.3030  117.3890 N.am      4 SEP2        0.0000 
     15 CA        -22.3117  -33.8780  110.8568 C.3       3 GLC5        0.0000 
     16 CA        -23.2140  -33.6540  112.5950 C.3       9 GLL5        0.0000 
     17 CA        -20.9310  -34.0010  109.6140 C.3       6 GLP5        0.0000 
@<TRIPOS>BOND
@<TRIPOS>SUBSTRUCTURE
     1 SEC2        1 GROUP        1 X    SEC  0     ROOT SEC X 2
     2 LYC4        9 GROUP        1 X    LYC  0     **** LYC X 4
     3 GLC5        4 GROUP        1 X    GLC  0     **** GLC X 6
     4 SEP2        3 GROUP        1 Y    SEP  0     ROOT SEP Y 9
     5 LYP4       11 GROUP        1 Y    LYP  0     **** LYP Y 11
     6 GLP5        6 GROUP        1 Y    GLP  0     **** GLP Y 13
     7 SEL2        2 GROUP        1 Z    SEL  0     ROOT SEL Z 16
     8 LYL4       10 GROUP        1 Z    LYL  0     **** LYL Z 18
     9 GLL5        5 GROUP        1 Z    GLL  0     **** GLL Z 20
@<TRIPOS>SET

