#    Name: 2d0e_NQ_1_ligand
#    Modification time : Tue Mar 25 01:25:29 2014

@<TRIPOS>MOLECULE
2d0e_NQ_1_ligand
   18    19     1     0     0
SMALL
NO_CHARGES


@<TRIPOS>ATOM
      1 OAB       -24.3900  -34.0450  116.5160 O.2       1 NQ49        0.0000 
      2 CAK       -25.2310  -34.2130  115.6330 C.2       1 NQ49        0.0000 
      3 CAM       -24.8740  -34.1040  114.2900 C.ar      1 NQ49        0.0000 
      4 CAG       -23.5680  -33.7770  113.9360 C.ar      1 NQ49        0.0000 
      5 CAE       -23.2140  -33.6540  112.5950 C.ar      1 NQ49        0.0000 
      6 CAD       -24.1710  -33.8560  111.6040 C.ar      1 NQ49        0.0000 
      7 CAF       -25.4770  -34.1830  111.9560 C.ar      1 NQ49        0.0000 
      8 CAL       -25.8310  -34.3090  113.2960 C.ar      1 NQ49        0.0000 
      9 CAJ       -27.1410  -34.6280  113.6470 C.2       1 NQ49        0.0000 
     10 OAA       -27.9850  -34.8340  112.7750 O.2       1 NQ49        0.0000 
     11 CAH       -27.4950  -34.7330  114.9890 C.2       1 NQ49        0.0000 
     12 CAI       -26.5420  -34.5230  115.9800 C.2       1 NQ49        0.0000 
     13 OAC       -26.9000  -34.5980  117.2910 O.co2     1 NQ49        0.0000 
     14 H         -22.8607  -33.6254  114.6688 H         1 NQ49        0.0000 
     15 H         -22.2493  -33.4149  112.3374 H         1 NQ49        0.0000 
     16 H         -23.9128  -33.7636  110.6139 H         1 NQ49        0.0000 
     17 H         -26.1839  -34.3323  111.2225 H         1 NQ49        0.0000 
     18 H         -28.4629  -34.9662  115.2477 H         1 NQ49        0.0000 
@<TRIPOS>BOND
     1    2    1 2    
     2    3    2 1    
     3   12    2 1    
     4    4    3 ar   
     5    8    3 ar   
     6    5    4 ar   
     7   14    4 1    
     8    6    5 ar   
     9   15    5 1    
    10    7    6 ar   
    11   16    6 1    
    12    8    7 ar   
    13   17    7 1    
    14    9    8 1    
    15   10    9 2    
    16   11    9 1    
    17   12   11 2    
    18   18   11 1    
    19   13   12 ar   
@<TRIPOS>SUBSTRUCTURE
     1 NQ49        1 GROUP   
@<TRIPOS>SET

