#    Name: 1rzy_5AS_1_INTS_M
#    Modification time : Tue Mar 25 01:41:23 2014

@<TRIPOS>MOLECULE
1rzy_5AS_1_INTS_M
   56     0     9     0     0
SMALL
NO_CHARGES


@<TRIPOS>ATOM
      1 O          11.2395    4.5400   61.0960 O.2       1 ALC1        0.0000 
      2 O          10.6160    5.5980   60.4840 O.2       7 ALL1        0.0000 
      3 O          11.8630    3.4820   61.7080 O.2       4 ALP1        0.0000 
      4 N          13.3280    5.5510   59.4120 N.am      2 SEC2        0.0000 
      5 N          12.7120    6.7840   59.6990 N.am      8 SEL2        0.0000 
      6 N          13.9440    4.3180   59.1250 N.am      5 SEP2        0.0000 
      7 N          12.1545    5.6065   58.6775 N.am      2 SEC2        0.0000 
      8 N          11.5970    4.4290   57.6560 N.am      5 SEP2        0.0000 
      9 N          13.6600    6.3995   58.4160 N.am      2 SEC2        0.0000 
     10 N          14.6080    6.0150   57.1330 N.am      5 SEP2        0.0000 
     11 N          11.4790    6.8500   63.2510 N.am      2 SEC2        0.0000 
     12 N          11.8700    7.2180   61.9650 N.am      8 SEL2        0.0000 
     13 N          11.0880    6.4820   64.5370 N.am      5 SEP2        0.0000 
     14 N          10.9000    8.4940   62.3460 N.am      2 SEC2        0.0000 
     15 N           9.9300    9.7700   62.7270 N.am      5 SEP2        0.0000 
     16 N          10.3315    9.0235   61.4180 N.am      2 SEC2        0.0000 
     17 N          10.7330    8.2770   60.1090 N.am      8 SEL2        0.0000 
     18 CA         11.8505    8.2570   57.0090 C.3       3 GLC5        0.0000 
     19 CA         10.6160    8.6390   58.6450 C.3       9 GLL5        0.0000 
     20 CA         13.0850    7.8750   55.3730 C.3       6 GLP5        0.0000 
     21 CA          9.5190   11.4215   58.4695 C.3       3 GLC5        0.0000 
     22 CA          9.3640    9.4410   58.3910 C.3       9 GLL5        0.0000 
     23 CA          9.6740   13.4020   58.5480 C.3       6 GLP5        0.0000 
     24 O           6.7610   10.1490   59.3085 O.2       1 ALC1        0.0000 
     25 O           7.0820    8.8970   59.2140 O.2       7 ALL1        0.0000 
     26 O           6.4400   11.4010   59.4030 O.2       4 ALP1        0.0000 
     27 O           5.4800    9.9015   57.5230 O.2       1 ALC1        0.0000 
     28 O           6.1920    9.0770   56.8960 O.2       7 ALL1        0.0000 
     29 O           4.7680   10.7260   58.1500 O.2       4 ALP1        0.0000 
     30 O           6.3160   10.2390   58.1495 O.2       1 ALC1        0.0000 
     31 CA         10.4055   10.8345   56.4420 C.3       3 GLC5        0.0000 
     32 CA          8.5260    9.7330   56.3060 C.3       9 GLL5        0.0000 
     33 CA         12.2850   11.9360   56.5780 C.3       6 GLP5        0.0000 
     34 CA          9.1000   11.5675   57.4270 C.3       3 GLC5        0.0000 
     35 CA         10.0880   11.4015   52.1920 C.3       3 GLC5        0.0000 
     36 CA          8.2200   11.5520   53.1800 C.3       9 GLL5        0.0000 
     37 CA         11.9560   11.2510   51.2040 C.3       6 GLP5        0.0000 
     38 CA          9.2695   14.0040   52.2690 C.3       3 GLC5        0.0000 
     39 CA          7.8080   12.7420   52.5230 C.3       9 GLL5        0.0000 
     40 CA         10.7310   15.2660   52.0150 C.3       6 GLP5        0.0000 
     41 CA          5.9295   12.1045   53.0015 C.3       3 GLC5        0.0000 
     42 CA          4.0510   11.4670   53.4800 C.3       6 GLP5        0.0000 
     43 CA          5.8715   13.6455   56.1755 C.3       3 GLC5        0.0000 
     44 CA          7.0570   13.5220   54.6140 C.3       9 GLL5        0.0000 
     45 CA          4.6860   13.7690   57.7370 C.3       6 GLP5        0.0000 
     46 CA          5.5540   12.4945   54.0470 C.3       3 GLC5        0.0000 
     47 N           5.7655   12.4785   55.5480 N.am      2 SEC2        0.0000 
     48 N           7.3990   12.4500   55.3610 N.am      8 SEL2        0.0000 
     49 N           4.1320   12.5070   55.7350 N.am      5 SEP2        0.0000 
     50 CA         11.1375   10.4880   57.5480 C.3       3 GLC5        0.0000 
     51 CA         11.2495   10.0470   59.7120 C.3       3 GLC5        0.0000 
     52 CA         12.5090   11.0540   60.9060 C.3       6 GLP5        0.0000 
     53 CA          6.4492    9.7198   55.2130 C.3       3 GLC5        0.0000 
     54 CA          4.8540   10.2290   53.8370 C.3       6 GLP5        0.0000 
     55 CA          6.4793   10.8682   53.8607 C.3       3 GLC5        0.0000 
     56 CA          7.9890   11.4630   54.5890 C.3       9 GLL5        0.0000 
@<TRIPOS>BOND
@<TRIPOS>SUBSTRUCTURE
     1 ALC1        1 GROUP        1 X    ALC  0     ROOT ALC X 1
     2 SEC2        4 GROUP        1 X    SEC  0     **** SEC X 2
     3 GLC5       18 GROUP        1 X    GLC  0     **** GLC X 6
     4 ALP1        3 GROUP        1 Y    ALP  0     ROOT ALP Y 8
     5 SEP2        6 GROUP        1 Y    SEP  0     **** SEP Y 9
     6 GLP5       20 GROUP        1 Y    GLP  0     **** GLP Y 13
     7 ALL1        2 GROUP        1 Z    ALL  0     ROOT ALL Z 15
     8 SEL2        5 GROUP        1 Z    SEL  0     **** SEL Z 16
     9 GLL5       19 GROUP        1 Z    GLL  0     **** GLL Z 20
@<TRIPOS>SET

