#    Name: 1rzy_5AS_1_ligand
#    Modification time : Tue Mar 25 01:41:23 2014

@<TRIPOS>MOLECULE
1rzy_5AS_1_ligand
   43    45     1     0     0
SMALL
NO_CHARGES


@<TRIPOS>ATOM
      1 S          11.5310    6.9730   60.5640 S.o2      1 5AS301      0.0000 
      2 N1S        10.6160    5.5980   60.4840 N.pl3     1 5AS301      0.0000 
      3 O2S        12.7120    6.7840   59.6990 O.2       1 5AS301      0.0000 
      4 O3S        11.8700    7.2180   61.9650 O.2       1 5AS301      0.0000 
      5 O5'        10.7330    8.2770   60.1090 O.3       1 5AS301      0.0000 
      6 C5'        10.6160    8.6390   58.6450 C.3       1 5AS301      0.0000 
      7 C4'         9.3640    9.4410   58.3910 C.3       1 5AS301      0.0000 
      8 O4'         9.5580   10.1340   57.1620 O.3       1 5AS301      0.0000 
      9 C3'         8.0960    8.5540   58.2770 C.3       1 5AS301      0.0000 
     10 O3'         7.0820    8.8970   59.2140 O.3       1 5AS301      0.0000 
     11 C2'         7.5630    8.6880   56.8720 C.3       1 5AS301      0.0000 
     12 O2'         6.1920    9.0770   56.8960 O.3       1 5AS301      0.0000 
     13 C1'         8.5260    9.7330   56.3060 C.3       1 5AS301      0.0000 
     14 N9          8.4750   10.2440   54.9550 N.pl3     1 5AS301      0.0000 
     15 C8          8.9580    9.6330   53.8270 C.2       1 5AS301      0.0000 
     16 N7          8.8270   10.3680   52.7680 N.2       1 5AS301      0.0000 
     17 C5          8.2200   11.5520   53.1800 C.ar      1 5AS301      0.0000 
     18 C6          7.8080   12.7420   52.5230 C.ar      1 5AS301      0.0000 
     19 N6          7.9800   12.9330   51.1930 N.pl3     1 5AS301      0.0000 
     20 N1          7.2270   13.7060   53.3010 N.ar      1 5AS301      0.0000 
     21 C2          7.0570   13.5220   54.6140 C.ar      1 5AS301      0.0000 
     22 N3          7.3990   12.4500   55.3610 N.ar      1 5AS301      0.0000 
     23 C4          7.9890   11.4630   54.5890 C.ar      1 5AS301      0.0000 
     24 C10         9.1640    5.5440   60.6390 C.3       1 5AS301      0.0000 
     25 C11         8.8100    6.3610   61.8460 C.3       1 5AS301      0.0000 
     26 H          11.1735    4.7655   60.3115 H         1 5AS301      0.0000 
     27 H          10.5907    7.7249   58.0476 H         1 5AS301      0.0000 
     28 H          11.4896    9.2226   58.3461 H         1 5AS301      0.0000 
     29 H           9.2195   10.1335   59.2004 H         1 5AS301      0.0000 
     30 H           8.4220    7.5202   58.4016 H         1 5AS301      0.0000 
     31 H           7.7505    7.7657   56.3722 H         1 5AS301      0.0000 
     32 H           7.6851   10.7776   56.7879 H         1 5AS301      0.0000 
     33 H           9.3601    8.7189   53.8599 H         1 5AS301      0.0000 
     34 H           8.3758   12.1673   50.6861 H         1 5AS301      0.0000 
     35 H           7.6959   13.8228   50.8359 H         1 5AS301      0.0000 
     36 H           6.5766   14.3481   55.1619 H         1 5AS301      0.0000 
     37 H           8.8307    4.5220   60.7895 H         1 5AS301      0.0000 
     38 H           8.6681    5.9607   59.7680 H         1 5AS301      0.0000 
     39 H           9.2466    6.0089   62.6739 H         1 5AS301      0.0000 
     40 H           9.0962    7.3140   61.7464 H         1 5AS301      0.0000 
     41 H           7.8243    6.3670   62.0143 H         1 5AS301      0.0000 
     42 H           6.9932    9.8908   59.1469 H         1 5AS301      0.0000 
     43 H           6.1327    9.7714   57.6131 H         1 5AS301      0.0000 
@<TRIPOS>BOND
     1    2    1 1    
     2    3    1 2    
     3    4    1 2    
     4    5    1 1    
     5   24    2 1    
     6   26    2 1    
     7    6    5 1    
     8    7    6 1    
     9   27    6 1    
    10   28    6 1    
    11    8    7 1    
    12    9    7 1    
    13   29    7 1    
    14   13    8 1    
    15   10    9 1    
    16   11    9 1    
    17   30    9 1    
    18   42   10 1    
    19   12   11 1    
    20   13   11 1    
    21   31   11 1    
    22   43   12 1    
    23   14   13 1    
    24   32   13 1    
    25   15   14 1    
    26   23   14 1    
    27   16   15 2    
    28   33   15 1    
    29   17   16 1    
    30   18   17 ar   
    31   23   17 ar   
    32   19   18 1    
    33   20   18 ar   
    34   34   19 1    
    35   35   19 1    
    36   21   20 ar   
    37   22   21 ar   
    38   36   21 1    
    39   23   22 ar   
    40   25   24 1    
    41   37   24 1    
    42   38   24 1    
    43   39   25 1    
    44   40   25 1    
    45   41   25 1    
@<TRIPOS>SUBSTRUCTURE
     1 5AS301      1 GROUP   
@<TRIPOS>SET

