#    Name: 4f6v_ZYM_1_INTS_M
#    Modification time : Mon Mar 24 19:00:14 2014

@<TRIPOS>MOLECULE
4f6v_ZYM_1_INTS_M
   48     0     9     0     0
SMALL
NO_CHARGES


@<TRIPOS>ATOM
      1 N          21.4480   -4.7540    7.6770 N.am      1 SEC2        0.0000 
      2 N          23.1220   -4.9850    8.0820 N.am      7 SEL2        0.0000 
      3 N          19.7740   -4.5230    7.2720 N.am      4 SEP2        0.0000 
      4 Zn         23.1190   -4.0245    5.0935 Zn        2 ZIC7        0.0000 
      5 Zn         23.3830   -3.8290    6.2680 Zn        8 ZIL7        0.0000 
      6 Zn         22.8550   -4.2200    3.9190 Zn        5 ZIP7        0.0000 
      7 Zn         23.8420   -4.7545    4.5095 Zn        2 ZIC7        0.0000 
      8 Zn         24.8290   -5.2890    5.1000 Zn        8 ZIL7        0.0000 
      9 CA         22.8280  -14.5060   12.4025 C.3       3 GLC5        0.0000 
     10 CA         24.4010  -15.1820   11.4420 C.3       9 GLL5        0.0000 
     11 CA         21.2550  -13.8300   13.3630 C.3       6 GLP5        0.0000 
     12 CA         30.1375   -8.5755    8.3955 C.3       3 GLC5        0.0000 
     13 CA         28.9560  -10.2450    8.9470 C.3       9 GLL5        0.0000 
     14 CA         31.3190   -6.9060    7.8440 C.3       6 GLP5        0.0000 
     15 CA         28.2940  -14.6325   12.4720 C.3       3 GLC5        0.0000 
     16 CA         27.1230  -15.1670   11.0490 C.3       9 GLL5        0.0000 
     17 CA         29.4650  -14.0980   13.8950 C.3       6 GLP5        0.0000 
     18 CA         28.8730  -13.6980    7.1395 C.3       3 GLC5        0.0000 
     19 CA         28.0260  -12.1640    7.9190 C.3       9 GLL5        0.0000 
     20 CA         29.7200  -15.2320    6.3600 C.3       6 GLP5        0.0000 
     21 CA         28.2395  -10.1435    3.6080 C.3       3 GLC5        0.0000 
     22 CA         27.2360   -9.5820    5.4410 C.3       9 GLL5        0.0000 
     23 CA         29.2430  -10.7050    1.7750 C.3       6 GLP5        0.0000 
     24 CA         30.9740  -11.0870    5.3830 C.3       3 GLC5        0.0000 
     25 CA         29.3290  -10.5420    6.5320 C.3       9 GLL5        0.0000 
     26 CA         32.6190  -11.6320    4.2340 C.3       6 GLP5        0.0000 
     27 CA         28.0030  -14.5430    8.6330 C.3       3 GLC5        0.0000 
     28 CA         27.5150  -12.5660    9.1400 C.3       9 GLL5        0.0000 
     29 CA         28.4910  -16.5200    8.1260 C.3       6 GLP5        0.0000 
     30 CA         24.3530  -15.1657   13.7320 C.3       3 GLC5        0.0000 
     31 CA         23.9050  -14.7770   15.6160 C.3       6 GLP5        0.0000 
     32 CA         25.8193  -17.1352   13.8927 C.3       3 GLC5        0.0000 
     33 CA         25.2010  -15.9270   12.2540 C.3       9 GLL5        0.0000 
     34 CA         25.7560  -18.3450   15.6330 C.3       6 GLP5        0.0000 
     35 CA         27.0312  -14.9402   13.4307 C.3       3 GLC5        0.0000 
     36 CA         28.1800  -13.9550   14.7090 C.3       6 GLP5        0.0000 
     37 CA         30.0655  -11.6225    9.7498 C.3       3 GLC5        0.0000 
     38 CA         28.4540  -10.6370   10.1600 C.3       9 GLL5        0.0000 
     39 CA         31.4260  -12.8040    9.9460 C.3       6 GLP5        0.0000 
     40 CA         29.9790   -9.5755   10.7477 C.3       3 GLC5        0.0000 
     41 CA         31.2530   -8.7100   11.9420 C.3       6 GLP5        0.0000 
     42 CA         26.4484  -17.4226   10.9254 C.3       3 GLC5        0.0000 
     43 CA         26.3940  -19.2990   10.2500 C.3       6 GLP5        0.0000 
     44 CA         29.5225  -12.4915    9.8250 C.3       3 GLC5        0.0000 
     45 CA         29.9082  -12.1953    8.9110 C.3       3 GLC5        0.0000 
     46 CA         30.1422   -8.4127    7.0653 C.3       3 GLC5        0.0000 
     47 CA         27.5369  -15.7519    9.5062 C.3       3 GLC5        0.0000 
     48 CA         26.3220  -14.4220   10.2230 C.3       9 GLL5        0.0000 
@<TRIPOS>BOND
@<TRIPOS>SUBSTRUCTURE
     1 SEC2        1 GROUP        1 X    SEC  0     ROOT SEC X 2
     2 ZIC7        4 GROUP        1 X    ZIC  0     **** ZIC X 5
     3 GLC5        9 GROUP        1 X    GLC  0     **** GLC X 6
     4 SEP2        3 GROUP        1 Y    SEP  0     ROOT SEP Y 9
     5 ZIP7        6 GROUP        1 Y    ZIP  0     **** ZIP Y 12
     6 GLP5       11 GROUP        1 Y    GLP  0     **** GLP Y 13
     7 SEL2        2 GROUP        1 Z    SEL  0     ROOT SEL Z 16
     8 ZIL7        5 GROUP        1 Z    ZIL  0     **** ZIL Z 19
     9 GLL5       10 GROUP        1 Z    GLL  0     **** GLL Z 20
@<TRIPOS>SET

