#    Name: 4f6v_ZYM_1_ligand
#    Modification time : Mon Mar 24 19:00:15 2014

@<TRIPOS>MOLECULE
4f6v_ZYM_1_ligand
   43    44     1     0     0
SMALL
NO_CHARGES


@<TRIPOS>ATOM
      1 OAA        23.1220   -4.9850    8.0820 O.co2     1 ZYM301      0.0000 
      2 OAB        26.1080   -7.1770    4.8260 O.2       1 ZYM301      0.0000 
      3 OAC        23.3830   -3.8290    6.2680 O.co2     1 ZYM301      0.0000 
      4 OAD        24.8290   -5.2890    5.1000 O.2       1 ZYM301      0.0000 
      5 CAE        25.0240   -6.9120    6.7480 C.3       1 ZYM301      0.0000 
      6 CAF        25.2010  -15.9270   12.2540 C.ar      1 ZYM301      0.0000 
      7 CAG        26.5640  -15.9240   12.0510 C.ar      1 ZYM301      0.0000 
      8 CAH        24.4010  -15.1820   11.4420 C.ar      1 ZYM301      0.0000 
      9 CAI        28.4540  -10.6370   10.1600 C.ar      1 ZYM301      0.0000 
     10 CAJ        28.9560  -10.2450    8.9470 C.ar      1 ZYM301      0.0000 
     11 CAK        27.1230  -15.1670   11.0490 C.ar      1 ZYM301      0.0000 
     12 CAL        24.9680  -14.4500   10.4270 C.ar      1 ZYM301      0.0000 
     13 CAM        27.7230  -11.7920   10.2680 C.ar      1 ZYM301      0.0000 
     14 CAN        28.0260  -12.1640    7.9190 C.ar      1 ZYM301      0.0000 
     15 CAO        28.6020   -9.2970    6.0410 C.3       1 ZYM301      0.0000 
     16 CAP        27.2360   -9.5820    5.4410 C.3       1 ZYM301      0.0000 
     17 CAQ        29.3290  -10.5420    6.5320 C.3       1 ZYM301      0.0000 
     18 NAR        26.3430   -8.7730    6.2580 N.am      1 ZYM301      0.0000 
     19 OAS        26.8050  -13.7150    9.1670 O.3       1 ZYM301      0.0000 
     20 CAT        23.6380   -4.8070    6.9630 C.2       1 ZYM301      0.0000 
     21 CAU        25.8320   -7.6000    5.9180 C.2       1 ZYM301      0.0000 
     22 CAV        24.5320   -5.7340    6.3050 C.2       1 ZYM301      0.0000 
     23 CAW        28.7550  -11.0090    7.8330 C.ar      1 ZYM301      0.0000 
     24 CAX        26.3220  -14.4220   10.2230 C.ar      1 ZYM301      0.0000 
     25 CAY        27.5150  -12.5660    9.1400 C.ar      1 ZYM301      0.0000 
     26 H          25.5576   -6.7491    7.7617 H         1 ZYM301      0.0000 
     27 H          24.1504   -7.5899    7.0887 H         1 ZYM301      0.0000 
     28 H          24.7971  -16.4916   13.0170 H         1 ZYM301      0.0000 
     29 H          27.1739  -16.5001   12.6622 H         1 ZYM301      0.0000 
     30 H          23.3797  -15.1638   11.5829 H         1 ZYM301      0.0000 
     31 H          28.6278  -10.0566   11.0025 H         1 ZYM301      0.0000 
     32 H          29.4941   -9.3583    8.8760 H         1 ZYM301      0.0000 
     33 H          28.1495  -15.1607   10.9196 H         1 ZYM301      0.0000 
     34 H          24.3446  -13.8974    9.7912 H         1 ZYM301      0.0000 
     35 H          27.3325  -12.0838   11.1717 H         1 ZYM301      0.0000 
     36 H          27.8542  -12.7383    7.0789 H         1 ZYM301      0.0000 
     37 H          28.4860   -8.5951    6.8839 H         1 ZYM301      0.0000 
     38 H          29.2284   -8.7913    5.2870 H         1 ZYM301      0.0000 
     39 H          27.0237  -10.6229    5.5408 H         1 ZYM301      0.0000 
     40 H          27.2314   -9.2642    4.4224 H         1 ZYM301      0.0000 
     41 H          30.3883  -10.3076    6.6549 H         1 ZYM301      0.0000 
     42 H          29.2335  -11.3273    5.7793 H         1 ZYM301      0.0000 
     43 H          26.1095   -9.2092    7.2082 H         1 ZYM301      0.0000 
@<TRIPOS>BOND
     1   20    1 ar   
     2   21    2 2    
     3   20    3 ar   
     4   22    4 2    
     5   21    5 1    
     6   22    5 1    
     7   26    5 1    
     8   27    5 1    
     9    7    6 ar   
    10    8    6 ar   
    11   28    6 1    
    12   11    7 ar   
    13   29    7 1    
    14   12    8 ar   
    15   30    8 1    
    16   10    9 ar   
    17   13    9 ar   
    18   31    9 1    
    19   23   10 ar   
    20   32   10 1    
    21   24   11 ar   
    22   33   11 1    
    23   24   12 ar   
    24   34   12 1    
    25   25   13 ar   
    26   35   13 1    
    27   23   14 ar   
    28   25   14 ar   
    29   36   14 1    
    30   16   15 1    
    31   17   15 1    
    32   37   15 1    
    33   38   15 1    
    34   18   16 1    
    35   39   16 1    
    36   40   16 1    
    37   23   17 1    
    38   41   17 1    
    39   42   17 1    
    40   21   18 am   
    41   43   18 1    
    42   24   19 1    
    43   25   19 1    
    44   22   20 1    
@<TRIPOS>SUBSTRUCTURE
     1 ZYM301      1 GROUP   
@<TRIPOS>SET

