#    Name: 1oxl_IDA_1_INTS_M
#    Modification time : Mon Mar 24 20:44:16 2014

@<TRIPOS>MOLECULE
1oxl_IDA_1_INTS_M
   29     0     3     0     0
SMALL
NO_CHARGES


@<TRIPOS>ATOM
      1 CA         20.0735   19.6590   47.3315 C.3       1 GLC5        0.0000 
      2 CA         19.8230   21.5680   46.5990 C.3       3 GLL5        0.0000 
      3 CA         20.3240   17.7500   48.0640 C.3       2 GLP5        0.0000 
      4 CA         13.2615   20.8355   45.0785 C.3       1 GLC5        0.0000 
      5 CA         12.9390   22.2700   43.5140 C.3       3 GLL5        0.0000 
      6 CA         13.5840   19.4010   46.6430 C.3       2 GLP5        0.0000 
      7 CA         14.2115   18.8095   40.7705 C.3       1 GLC5        0.0000 
      8 CA         12.6900   19.9410   41.6880 C.3       3 GLL5        0.0000 
      9 CA         15.7330   17.6780   39.8530 C.3       2 GLP5        0.0000 
     10 CA         11.1920   18.6750   41.8035 C.3       1 GLC5        0.0000 
     11 CA          9.6940   17.4090   41.9190 C.3       2 GLP5        0.0000 
     12 CA         10.8815   20.5140   41.8690 C.3       1 GLC5        0.0000 
     13 CA          9.0730   21.0870   42.0500 C.3       2 GLP5        0.0000 
     14 CA         12.2490   21.4415   40.2735 C.3       1 GLC5        0.0000 
     15 CA         11.8080   22.9420   38.8590 C.3       2 GLP5        0.0000 
     16 CA         14.0515   25.0450   42.6830 C.3       1 GLC5        0.0000 
     17 CA         15.2210   23.3750   43.0940 C.3       3 GLL5        0.0000 
     18 CA         12.8820   26.7150   42.2720 C.3       2 GLP5        0.0000 
     19 CA         17.2960   20.9810   41.6715 C.3       1 GLC5        0.0000 
     20 CA         17.3290   23.1900   41.8260 C.3       3 GLL5        0.0000 
     21 CA         17.2630   18.7720   41.5170 C.3       2 GLP5        0.0000 
     22 CA         11.3918   20.7035   44.2820 C.3       1 GLC5        0.0000 
     23 CA          9.9610   19.8470   45.3550 C.3       2 GLP5        0.0000 
     24 CA         10.9477   21.3235   42.6295 C.3       1 GLC5        0.0000 
     25 CA         12.7060   20.8500   42.9040 C.3       3 GLL5        0.0000 
     26 CA         13.2000   19.4258   43.9690 C.3       1 GLC5        0.0000 
     27 CA         13.7020   18.4560   45.6420 C.3       2 GLP5        0.0000 
     28 CA         16.5950   25.2044   43.8841 C.3       1 GLC5        0.0000 
     29 CA         17.1050   27.1910   44.3620 C.3       2 GLP5        0.0000 
@<TRIPOS>BOND
@<TRIPOS>SUBSTRUCTURE
     1 GLC5        1 GROUP        1 X    GLC  0     ROOT GLC X 6
     2 GLP5        3 GROUP        1 Y    GLP  0     ROOT GLP Y 13
     3 GLL5        2 GROUP        1 Z    GLL  0     ROOT GLL Z 20
@<TRIPOS>SET

