#    Name: 1oxl_IDA_1_ligand
#    Modification time : Mon Mar 24 20:44:16 2014

@<TRIPOS>MOLECULE
1oxl_IDA_1_ligand
   37    38     1     0     0
SMALL
NO_CHARGES


@<TRIPOS>ATOM
      1 N2         21.2480   21.3740   48.5040 N.am      1 IDA501      0.0000 
      2 C10        20.1160   20.7250   47.8360 C.2       1 IDA501      0.0000 
      3 O1         19.0350   20.6540   48.7460 O.2       1 IDA501      0.0000 
      4 C9         19.8230   21.5680   46.5990 C.3       1 IDA501      0.0000 
      5 C1         18.4640   21.8960   45.9420 C.2       1 IDA501      0.0000 
      6 N1         18.4960   22.5190   44.7200 N.pl3     1 IDA501      0.0000 
      7 C4         17.2510   22.7480   44.3060 C.ar      1 IDA501      0.0000 
      8 C3         16.3500   22.2490   45.3050 C.ar      1 IDA501      0.0000 
      9 C2         17.0940   21.7170   46.3280 C.2       1 IDA501      0.0000 
     10 C5         14.8880   22.3000   45.2740 C.ar      1 IDA501      0.0000 
     11 C6         14.3190   22.7750   44.0860 C.ar      1 IDA501      0.0000 
     12 C12        12.9390   22.2700   43.5140 C.3       1 IDA501      0.0000 
     13 C13        12.7060   20.8500   42.9040 C.3       1 IDA501      0.0000 
     14 C14        12.6900   19.9410   41.6880 C.3       1 IDA501      0.0000 
     15 C7         15.2210   23.3750   43.0940 C.ar      1 IDA501      0.0000 
     16 C8         16.6470   23.3730   43.1310 C.ar      1 IDA501      0.0000 
     17 C11        17.3290   23.1900   41.8260 C.3       1 IDA501      0.0000 
     18 C15        18.7510   23.5210   41.4150 C.2       1 IDA501      0.0000 
     19 O3         18.7910   24.9280   41.3990 O.co2     1 IDA501      0.0000 
     20 O2         19.7330   22.9370   42.2470 O.co2     1 IDA501      0.0000 
     21 H          21.0977   21.6540   49.4522 H         1 IDA501      0.0000 
     22 H          22.0778   21.4836   47.9569 H         1 IDA501      0.0000 
     23 H          20.5081   21.1552   45.7385 H         1 IDA501      0.0000 
     24 H          20.3645   22.5987   46.7562 H         1 IDA501      0.0000 
     25 H          19.3135   22.7483   44.2478 H         1 IDA501      0.0000 
     26 H          16.8088   21.3192   47.1147 H         1 IDA501      0.0000 
     27 H          14.3637   22.0111   46.0565 H         1 IDA501      0.0000 
     28 H          12.6011   23.0362   42.7364 H         1 IDA501      0.0000 
     29 H          12.1624   22.4198   44.3388 H         1 IDA501      0.0000 
     30 H          11.6111   20.5157   43.4984 H         1 IDA501      0.0000 
     31 H          13.3159   20.1178   43.7734 H         1 IDA501      0.0000 
     32 H          14.7503   23.8530   42.2757 H         1 IDA501      0.0000 
     33 H          16.6333   23.6817   41.0013 H         1 IDA501      0.0000 
     34 H          17.1543   22.0633   41.5005 H         1 IDA501      0.0000 
     35 H          13.5855   19.8975   41.2450 H         1 IDA501      0.0000 
     36 H          12.4359   19.0041   41.9280 H         1 IDA501      0.0000 
     37 H          12.0369   20.2543   40.9986 H         1 IDA501      0.0000 
@<TRIPOS>BOND
     1    2    1 am   
     2   21    1 1    
     3   22    1 1    
     4    3    2 2    
     5    4    2 1    
     6    5    4 1    
     7   23    4 1    
     8   24    4 1    
     9    6    5 1    
    10    9    5 2    
    11    7    6 1    
    12   25    6 1    
    13    8    7 ar   
    14   16    7 ar   
    15    9    8 1    
    16   10    8 ar   
    17   26    9 1    
    18   11   10 ar   
    19   27   10 1    
    20   12   11 1    
    21   15   11 ar   
    22   13   12 1    
    23   28   12 1    
    24   29   12 1    
    25   14   13 1    
    26   30   13 1    
    27   31   13 1    
    28   35   14 1    
    29   36   14 1    
    30   37   14 1    
    31   16   15 ar   
    32   32   15 1    
    33   17   16 1    
    34   18   17 1    
    35   33   17 1    
    36   34   17 1    
    37   19   18 ar   
    38   20   18 ar   
@<TRIPOS>SUBSTRUCTURE
     1 IDA501      1 GROUP   
@<TRIPOS>SET

