#    Name: 4KAP_1_CAVITY_N1_ALL.mol2
#    Modification time : Tue Mar 11 10:19:26 2014

@<TRIPOS>MOLECULE
4KAP_1_CAVITY_N1_ALL.mol2
   82     0     6     0     0
SMALL
NO_CHARGES


@<TRIPOS>ATOM
      1 CA         19.6116   43.5757   14.6023 C.3       5 GLY6        0.0000 
      2 CA         20.8804   42.2694   13.5142 C.3       5 GLY6        0.0000 
      3 N          22.3097   40.6019   10.9792 N.2       2 ALA2        0.0000 
      4 CA         19.7220   41.5232   15.1271 C.3       5 GLY6        0.0000 
      5 CA         18.6137   42.4681   14.7682 C.3       5 GLY6        0.0000 
      6 CZ         17.5053   43.4130   14.4093 C.ar      4 PHE5        0.0000 
      7 N          19.8825   41.1619   13.6801 N.2       2 ALA2        0.0000 
      8 DU         18.7741   42.1068   13.3213 H         6 CUB7        0.0000 
      9 CZ         17.6658   43.0517   12.9624 C.ar      4 PHE5        0.0000 
     10 N          20.0430   40.8006   12.2332 N.2       2 ALA2        0.0000 
     11 DU         18.9346   41.7455   11.8743 H         6 CUB7        0.0000 
     12 CZ         21.3118   39.4943   11.1451 C.ar      4 PHE5        0.0000 
     13 DU         20.2034   40.4392   10.7862 H         6 CUB7        0.0000 
     14 DU         19.0951   41.3841   10.4273 H         6 CUB7        0.0000 
     15 O          21.4722   39.1330    9.6981 O.2       2 ALA2        0.0000 
     16 O          20.3639   40.0779    9.3393 O.2       2 ALA2        0.0000 
     17 O          20.5244   39.7166    7.8923 O.2       2 ALA2        0.0000 
     18 CA         16.3469   42.6668   16.0222 C.3       5 GLY6        0.0000 
     19 OG         18.7241   40.4157   15.2930 O.2       1 SER1        0.0000 
     20 CA         17.6157   41.3606   14.9341 C.3       5 GLY6        0.0000 
     21 CZ         16.5074   42.3055   14.5752 C.ar      4 PHE5        0.0000 
     22 OG         18.8846   40.0544   13.8460 O.2       1 SER1        0.0000 
     23 DU         17.7762   40.9993   13.4871 H         6 CUB7        0.0000 
     24 DU         16.6679   41.9441   13.1283 H         6 CUB7        0.0000 
     25 CZ         15.5596   42.8890   12.7694 C.ar      4 PHE5        0.0000 
     26 OG         19.0450   39.6930   12.3991 O.2       1 SER1        0.0000 
     27 DU         17.9367   40.6379   12.0402 H         6 CUB7        0.0000 
     28 O          16.8284   41.5828   11.6813 O.2       2 ALA2        0.0000 
     29 O          15.7200   42.5277   11.3224 O.2       2 ALA2        0.0000 
     30 OG         20.3138   38.3868   11.3110 O.2       1 SER1        0.0000 
     31 OG         19.2055   39.3317   10.9521 O.2       1 SER1        0.0000 
     32 O          18.0972   40.2766   10.5932 O.2       2 ALA2        0.0000 
     33 O          16.9888   41.2215   10.2344 O.2       2 ALA2        0.0000 
     34 O          20.4743   38.0255    9.8640 O.2       2 ALA2        0.0000 
     35 O          19.3660   38.9704    9.5051 O.2       2 ALA2        0.0000 
     36 CA         15.3490   41.5593   16.1881 C.3       5 GLY6        0.0000 
     37 CA         14.2407   42.5042   15.8292 C.3       5 GLY6        0.0000 
     38 OG         17.7262   39.3082   15.4589 O.2       1 SER1        0.0000 
     39 CA         16.6178   40.2531   15.1000 C.3       5 GLY6        0.0000 
     40 O          15.5095   41.1979   14.7411 O.2       2 ALA2        0.0000 
     41 CA         14.4012   42.1428   14.3822 C.3       5 GLY6        0.0000 
     42 OG         17.8866   38.9468   14.0119 O.2       1 SER1        0.0000 
     43 DU         16.7783   39.8917   13.6530 H         6 CUB7        0.0000 
     44 O          15.6700   40.8366   13.2942 O.2       2 ALA2        0.0000 
     45 OG         18.0471   38.5855   12.5650 O.2       1 SER1        0.0000 
     46 O          16.9388   39.5304   12.2061 O.2       2 ALA2        0.0000 
     47 O          15.8304   40.4753   11.8472 O.2       2 ALA2        0.0000 
     48 OG         19.3159   37.2793   11.4769 O.2       1 SER1        0.0000 
     49 O          18.2076   38.2242   11.1180 O.2       2 ALA2        0.0000 
     50 O          17.0992   39.1691   10.7591 O.2       2 ALA2        0.0000 
     51 O          15.9909   40.1140   10.4003 O.2       2 ALA2        0.0000 
     52 CA         19.4764   36.9180   10.0299 C.3       5 GLY6        0.0000 
     53 O          16.5678   38.5620   17.0717 O.2       2 ALA2        0.0000 
     54 CA         15.4594   39.5069   16.7129 C.3       5 GLY6        0.0000 
     55 CA         14.3511   40.4517   16.3540 C.3       5 GLY6        0.0000 
     56 O          17.8366   37.2557   15.9836 O.2       2 ALA2        0.0000 
     57 OG         16.7282   38.2006   15.6248 O.2       1 SER1        0.0000 
     58 DU         15.6199   39.1455   15.2659 H         6 CUB7        0.0000 
     59 CA         14.5116   40.0904   14.9070 C.3       5 GLY6        0.0000 
     60 OG         16.8887   37.8393   14.1778 O.2       1 SER1        0.0000 
     61 N          15.7804   38.7842   13.8189 N.2       2 ALA2        0.0000 
     62 OG         17.0492   37.4780   12.7309 O.2       1 SER1        0.0000 
     63 O          15.9408   38.4229   12.3720 O.2       2 ALA2        0.0000 
     64 CA         18.3180   36.1718   11.6428 C.3       5 GLY6        0.0000 
     65 O          17.2097   37.1166   11.2839 O.2       2 ALA2        0.0000 
     66 N          16.1013   38.0615   10.9250 N.2       2 ALA2        0.0000 
     67 CA         18.4785   35.8104   10.1958 C.3       5 GLY6        0.0000 
     68 O          17.3701   36.7553    9.8369 O.2       2 ALA2        0.0000 
     69 CA         14.3010   38.7607   18.3257 C.3       5 GLY6        0.0000 
     70 OD1        15.5698   37.4544   17.2376 O.3       3 ASP3        0.0000 
     71 OD1        14.4615   38.3993   16.8787 O.3       3 ASP3        0.0000 
     72 OD1        15.7303   37.0931   15.7907 O.3       3 ASP3        0.0000 
     73 N          14.6220   38.0380   15.4318 N.2       2 ALA2        0.0000 
     74 N          15.8908   36.7318   14.3437 N.2       2 ALA2        0.0000 
     75 CA         17.1596   35.4256   13.2556 C.3       5 GLY6        0.0000 
     76 N          16.0513   36.3704   12.8967 N.2       2 ALA2        0.0000 
     77 CA         18.4284   34.1193   12.1675 C.3       5 GLY6        0.0000 
     78 CA         17.3201   35.0642   11.8087 C.3       5 GLY6        0.0000 
     79 CA         16.2117   36.0091   11.4498 C.3       5 GLY6        0.0000 
     80 CA         17.4805   34.7029   10.3617 C.3       5 GLY6        0.0000 
     81 CA         16.3722   35.6478   10.0028 C.3       5 GLY6        0.0000 
     82 CA         16.3221   33.9567   11.9746 C.3       5 GLY6        0.0000 
@<TRIPOS>BOND
@<TRIPOS>SUBSTRUCTURE
     1 SER1       19 GROUP   
     2 ALA2        3 GROUP   
     3 ASP3       70 GROUP   
     4 PHE5        6 GROUP   
     5 GLY6        1 GROUP   
     6 CUB7        8 GROUP   
@<TRIPOS>SET

