#    Name: 4kap_1QV_1_INTS_M
#    Modification time : Tue Mar 25 07:39:15 2014

@<TRIPOS>MOLECULE
4kap_1QV_1_INTS_M
   35     0     9     0     0
SMALL
NO_CHARGES


@<TRIPOS>ATOM
      1 CA         21.0660   42.7610   14.9305 C.3       3 GLC5        0.0000 
      2 CA         19.4400   43.0040   14.2160 C.3       9 GLL5        0.0000 
      3 CA         22.6920   42.5180   15.6450 C.3       6 GLP5        0.0000 
      4 CA         16.5430   45.1610   13.8370 C.3       3 GLC5        0.0000 
      5 CA         17.1000   43.9740   13.1950 C.3       9 GLL5        0.0000 
      6 CA         15.9860   46.3480   14.4790 C.3       6 GLP5        0.0000 
      7 CA         13.0680   42.0685   12.1740 C.3       3 GLC5        0.0000 
      8 CA         14.7850   42.5550   13.4590 C.3       9 GLL5        0.0000 
      9 CA         11.3510   41.5820   10.8890 C.3       6 GLP5        0.0000 
     10 CA         13.1800   42.3745   14.5990 C.3       3 GLC5        0.0000 
     11 CA         11.5750   42.1940   15.7390 C.3       6 GLP5        0.0000 
     12 CA         14.9515   43.9585   14.2295 C.3       3 GLC5        0.0000 
     13 CA         15.1180   45.3620   15.0000 C.3       6 GLP5        0.0000 
     14 CA         19.2895   41.5125   16.7370 C.3       3 GLC5        0.0000 
     15 CA         19.4950   40.6040   15.5110 C.3       9 GLL5        0.0000 
     16 CA         19.0840   42.4210   17.9630 C.3       6 GLP5        0.0000 
     17 CA         20.2215   38.6190   15.0840 C.3       3 GLC5        0.0000 
     18 CA         20.9480   36.6340   14.6570 C.3       6 GLP5        0.0000 
     19 CA         21.0935   41.5610   15.5780 C.3       3 GLC5        0.0000 
     20 Zn         15.3445   35.3665   15.6525 Zn        2 ZIC7        0.0000 
     21 Zn         16.2780   35.9050   15.9280 Zn        8 ZIL7        0.0000 
     22 Zn         14.4110   34.8280   15.3770 Zn        5 ZIP7        0.0000 
     23 Zn         14.1405   35.7920   15.8495 Zn        2 ZIC7        0.0000 
     24 Zn         13.8700   36.7560   16.3220 Zn        8 ZIL7        0.0000 
     25 N          17.0190   37.0925   18.5315 N.am      1 SEC2        0.0000 
     26 N          15.6000   37.3190   18.0060 N.am      7 SEL2        0.0000 
     27 N          18.4380   36.8660   19.0570 N.am      4 SEP2        0.0000 
     28 CA         12.9865   39.7395   14.9110 C.3       3 GLC5        0.0000 
     29 CA         14.6780   39.7270   14.9570 C.3       9 GLL5        0.0000 
     30 CA         11.2950   39.7520   14.8650 C.3       6 GLP5        0.0000 
     31 CA         16.7332   41.1000   16.6973 C.3       3 GLC5        0.0000 
     32 CA         17.2380   40.3770   15.1530 C.3       9 GLL5        0.0000 
     33 CA         16.8240   41.5600   18.5100 C.3       6 GLP5        0.0000 
     34 CA         18.9869   42.3901   16.2030 C.3       3 GLC5        0.0000 
     35 CA         18.3650   41.0580   15.0270 C.3       9 GLL5        0.0000 
@<TRIPOS>BOND
@<TRIPOS>SUBSTRUCTURE
     1 SEC2       25 GROUP        1 X    SEC  0     ROOT SEC X 2
     2 ZIC7       20 GROUP        1 X    ZIC  0     **** ZIC X 5
     3 GLC5        1 GROUP        1 X    GLC  0     **** GLC X 6
     4 SEP2       27 GROUP        1 Y    SEP  0     ROOT SEP Y 9
     5 ZIP7       22 GROUP        1 Y    ZIP  0     **** ZIP Y 12
     6 GLP5        3 GROUP        1 Y    GLP  0     **** GLP Y 13
     7 SEL2       26 GROUP        1 Z    SEL  0     ROOT SEL Z 16
     8 ZIL7       21 GROUP        1 Z    ZIL  0     **** ZIL Z 19
     9 GLL5        2 GROUP        1 Z    GLL  0     **** GLL Z 20
@<TRIPOS>SET

