#    Name: 4kap_1QV_1_ligand
#    Modification time : Tue Mar 25 07:39:15 2014

@<TRIPOS>MOLECULE
4kap_1QV_1_ligand
   18    19     1     0     0
SMALL
NO_CHARGES


@<TRIPOS>ATOM
      1 C01        18.3140   42.3710   14.3130 C.ar      1 1QV302      0.0000 
      2 C02        17.1810   42.8410   13.8190 C.ar      1 1QV302      0.0000 
      3 C03        15.9530   42.1310   13.9370 C.ar      1 1QV302      0.0000 
      4 C04        16.0470   40.9030   14.6160 C.ar      1 1QV302      0.0000 
      5 C05        17.2380   40.3770   15.1530 C.ar      1 1QV302      0.0000 
      6 C06        18.3650   41.0580   15.0270 C.ar      1 1QV302      0.0000 
      7 C07        15.7840   38.5270   15.8460 C.2       1 1QV302      0.0000 
      8 F01        19.4400   43.0040   14.2160 F         1 1QV302      0.0000 
      9 F02        17.1000   43.9740   13.1950 F         1 1QV302      0.0000 
     10 F03        14.7850   42.5550   13.4590 F         1 1QV302      0.0000 
     11 F04        19.4950   40.6040   15.5110 F         1 1QV302      0.0000 
     12 N01        17.1190   39.2100   15.7600 N.2       1 1QV302      0.0000 
     13 N02        16.2780   35.9050   15.9280 N.pl3     1 1QV302      0.0000 
     14 O01        13.8700   36.7560   16.3220 O.2       1 1QV302      0.0000 
     15 O02        15.6000   37.3190   18.0060 O.2       1 1QV302      0.0000 
     16 S01        15.2560   37.0400   16.6350 S.o2      1 1QV302      0.0000 
     17 S02        14.6780   39.7270   14.9570 S.3       1 1QV302      0.0000 
     18 H          17.1873   36.1170   16.2862 H         1 1QV302      0.0000 
@<TRIPOS>BOND
     1    2    1 ar   
     2    6    1 ar   
     3    8    1 1    
     4    3    2 ar   
     5    9    2 1    
     6    4    3 ar   
     7   10    3 1    
     8    5    4 ar   
     9   17    4 1    
    10    6    5 ar   
    11   12    5 1    
    12   11    6 1    
    13   12    7 2    
    14   16    7 1    
    15   17    7 1    
    16   16   13 1    
    17   18   13 1    
    18   16   14 2    
    19   16   15 2    
@<TRIPOS>SUBSTRUCTURE
     1 1QV302      1 GROUP   
@<TRIPOS>SET

