#    Name: 1X01_2_CAVITY_N1_ALL.mol2
#    Modification time : Mon Mar 10 17:14:47 2014

@<TRIPOS>MOLECULE
1X01_2_CAVITY_N1_ALL.mol2
   89     0     6     0     0
SMALL
NO_CHARGES


@<TRIPOS>ATOM
      1 CA        -31.1235   33.1872  -32.1490 C.3       5 GLY6        0.0000 
      2 CA        -32.0890   34.3323  -32.0688 C.3       5 GLY6        0.0000 
      3 OD1       -33.0546   35.4774  -31.9886 O.3       2 ASP3        0.0000 
      4 OD1       -34.0202   36.6225  -31.9084 O.3       2 ASP3        0.0000 
      5 OD1       -31.2944   31.1032  -32.5066 O.3       2 ASP3        0.0000 
      6 OD1       -32.2599   32.2483  -32.4264 O.3       2 ASP3        0.0000 
      7 DU        -33.2255   33.3934  -32.3462 H         6 CUB7        0.0000 
      8 DU        -34.1911   34.5385  -32.2660 H         6 CUB7        0.0000 
      9 CA        -35.1566   35.6836  -32.1858 C.3       5 GLY6        0.0000 
     10 CZ        -31.4653   29.0193  -32.8642 C.ar      4 PHE5        0.0000 
     11 OD1       -32.4308   30.1644  -32.7840 O.3       2 ASP3        0.0000 
     12 DU        -33.3964   31.3095  -32.7038 H         6 CUB7        0.0000 
     13 O         -34.3620   32.4545  -32.6236 O.2       1 ALA2        0.0000 
     14 CA        -35.3275   33.5996  -32.5434 C.3       5 GLY6        0.0000 
     15 N         -32.6017   28.0804  -33.1416 N.2       1 ALA2        0.0000 
     16 CA        -33.5673   29.2255  -33.0614 C.3       5 GLY6        0.0000 
     17 CA        -34.5329   30.3706  -32.9812 C.3       5 GLY6        0.0000 
     18 CA        -35.4984   31.5157  -32.9010 C.3       5 GLY6        0.0000 
     19 NZ        -32.2506   34.0929  -30.5968 N.2       3 LYS4        0.0000 
     20 NZ        -33.2162   35.2380  -30.5166 N.2       3 LYS4        0.0000 
     21 NZ        -33.3871   33.1541  -30.8743 N.2       3 LYS4        0.0000 
     22 NZ        -34.3527   34.2992  -30.7941 N.2       3 LYS4        0.0000 
     23 CA        -35.3182   35.4443  -30.7139 C.3       5 GLY6        0.0000 
     24 O         -36.2838   36.5894  -30.6337 O.2       1 ALA2        0.0000 
     25 OD1       -32.5924   29.9250  -31.3121 O.3       2 ASP3        0.0000 
     26 OD1       -33.5580   31.0701  -31.2319 O.3       2 ASP3        0.0000 
     27 DU        -34.5236   32.2152  -31.1517 H         6 CUB7        0.0000 
     28 CA        -35.4891   33.3603  -31.0715 C.3       5 GLY6        0.0000 
     29 CA        -33.7289   28.9861  -31.5895 C.3       5 GLY6        0.0000 
     30 O         -34.6945   30.1312  -31.5093 O.2       1 ALA2        0.0000 
     31 O         -35.6600   31.2763  -31.4291 O.2       1 ALA2        0.0000 
     32 O         -30.3514   23.6877  -27.4945 O.2       1 ALA2        0.0000 
     33 CZ        -31.3170   24.8328  -27.4143 C.ar      4 PHE5        0.0000 
     34 N         -32.2825   25.9779  -27.3341 N.2       1 ALA2        0.0000 
     35 N         -33.2481   27.1230  -27.2539 N.2       1 ALA2        0.0000 
     36 O         -31.4879   22.7489  -27.7719 O.2       1 ALA2        0.0000 
     37 N         -32.4534   23.8940  -27.6917 N.2       1 ALA2        0.0000 
     38 N         -33.4190   25.0391  -27.6115 N.2       1 ALA2        0.0000 
     39 O         -32.6243   21.8100  -28.0493 O.2       1 ALA2        0.0000 
     40 N         -33.5899   22.9551  -27.9691 N.2       1 ALA2        0.0000 
     41 N         -33.7608   20.8711  -28.3267 N.2       1 ALA2        0.0000 
     42 N         -34.7264   22.0162  -28.2466 N.2       1 ALA2        0.0000 
     43 O         -30.5130   23.4484  -26.0225 O.2       1 ALA2        0.0000 
     44 O         -31.4785   24.5935  -25.9423 O.2       1 ALA2        0.0000 
     45 N         -32.4441   25.7386  -25.8621 N.2       1 ALA2        0.0000 
     46 O         -30.6839   21.3644  -26.3802 O.2       1 ALA2        0.0000 
     47 O         -31.6494   22.5095  -26.3000 O.2       1 ALA2        0.0000 
     48 O         -32.6150   23.6546  -26.2198 O.2       1 ALA2        0.0000 
     49 CA        -33.5806   24.7997  -26.1396 C.3       5 GLY6        0.0000 
     50 N         -31.8203   20.4256  -26.6576 N.2       1 ALA2        0.0000 
     51 O         -32.7859   21.5707  -26.5774 O.2       1 ALA2        0.0000 
     52 CA        -33.7515   22.7158  -26.4972 C.3       5 GLY6        0.0000 
     53 N         -33.9224   20.6318  -26.8548 N.2       1 ALA2        0.0000 
     54 CA        -34.8880   21.7769  -26.7746 C.3       5 GLY6        0.0000 
     55 O         -31.8110   22.2702  -24.8280 O.2       1 ALA2        0.0000 
     56 N         -32.9475   21.3313  -25.1054 N.2       1 ALA2        0.0000 
     57 CA        -33.9131   22.4764  -25.0252 C.3       5 GLY6        0.0000 
     58 N         -31.1421   29.4980  -35.8081 N.2       1 ALA2        0.0000 
     59 N         -32.2785   28.5591  -36.0855 N.2       1 ALA2        0.0000 
     60 OD1       -33.8586   36.8618  -33.3803 O.3       2 ASP3        0.0000 
     61 DU        -31.1328   31.3426  -33.9785 H         6 CUB7        0.0000 
     62 DU        -32.0983   32.4877  -33.8983 H         6 CUB7        0.0000 
     63 O         -33.0639   33.6328  -33.8181 O.2       1 ALA2        0.0000 
     64 O         -34.0295   34.7779  -33.7379 O.2       1 ALA2        0.0000 
     65 O         -34.9950   35.9230  -33.6577 O.2       1 ALA2        0.0000 
     66 N         -31.3037   29.2586  -34.3361 N.2       1 ALA2        0.0000 
     67 CA        -32.2692   30.4037  -34.2559 C.3       5 GLY6        0.0000 
     68 CA        -33.2348   31.5488  -34.1758 C.3       5 GLY6        0.0000 
     69 CA        -34.2004   32.6939  -34.0956 C.3       5 GLY6        0.0000 
     70 N         -32.4401   28.3197  -34.6136 N.2       1 ALA2        0.0000 
     71 NZ        -34.3433   36.1438  -28.9645 N.2       3 LYS4        0.0000 
     72 CA        -35.3089   37.2889  -28.8843 C.3       5 GLY6        0.0000 
     73 NZ        -35.4798   35.2049  -29.2419 N.2       3 LYS4        0.0000 
     74 O         -36.4454   36.3500  -29.1617 O.2       1 ALA2        0.0000 
     75 OD1       -33.7196   30.8308  -29.7599 O.3       2 ASP3        0.0000 
     76 NZ        -34.6851   31.9759  -29.6797 N.2       3 LYS4        0.0000 
     77 NZ        -35.6507   33.1210  -29.5995 N.2       3 LYS4        0.0000 
     78 CA        -36.6163   34.2661  -29.5193 C.3       5 GLY6        0.0000 
     79 O         -37.5819   35.4111  -29.4392 O.2       1 ALA2        0.0000 
     80 CA        -33.8905   28.7468  -30.1176 C.3       5 GLY6        0.0000 
     81 O         -34.8560   29.8919  -30.0374 O.2       1 ALA2        0.0000 
     82 N         -35.6414   34.9656  -27.7700 N.2       1 ALA2        0.0000 
     83 CA        -36.6070   36.1107  -27.6898 C.3       5 GLY6        0.0000 
     84 OD1       -32.9156   29.4463  -28.3682 O.3       2 ASP3        0.0000 
     85 NZ        -33.8812   30.5914  -28.2880 N.2       3 LYS4        0.0000 
     86 CZ        -33.0865   27.3624  -28.7258 C.ar      4 PHE5        0.0000 
     87 O         -34.0521   28.5075  -28.6456 O.2       1 ALA2        0.0000 
     88 CA        -31.3263   22.9882  -29.2438 C.3       5 GLY6        0.0000 
     89 CA        -32.2918   24.1333  -29.1636 C.3       5 GLY6        0.0000 
@<TRIPOS>BOND
@<TRIPOS>SUBSTRUCTURE
     1 ALA2       13 GROUP   
     2 ASP3        3 GROUP   
     3 LYS4       19 GROUP   
     4 PHE5       10 GROUP   
     5 GLY6        1 GROUP   
     6 CUB7        7 GROUP   
@<TRIPOS>SET

