#    Name: 1x01_ATP_2_INTS_M
#    Modification time : Tue Mar 25 09:29:53 2014

@<TRIPOS>MOLECULE
1x01_ATP_2_INTS_M
   57     0    12     0     0
SMALL
NO_CHARGES


@<TRIPOS>ATOM
      1 NZ        -33.9275   37.5505  -30.6725 N.4       3 LYC4        0.0000 
      2 NZ        -34.7490   36.5920  -31.1530 N.4      11 LYL4        0.0000 
      3 NZ        -33.1060   38.5090  -30.1920 N.4       7 LYP4        0.0000 
      4 N         -33.9275   37.5505  -30.6725 N.am      2 SEC2        0.0000 
      5 N         -34.7490   36.5920  -31.1530 N.am     10 SEL2        0.0000 
      6 N         -33.1060   38.5090  -30.1920 N.am      6 SEP2        0.0000 
      7 NZ        -33.2015   36.9290  -29.9105 N.4       3 LYC4        0.0000 
      8 NZ        -33.2970   35.3490  -29.6290 N.4      11 LYL4        0.0000 
      9 NZ        -32.8960   37.0115  -31.1120 N.4       3 LYC4        0.0000 
     10 NZ        -32.6860   35.5140  -32.0320 N.4      11 LYL4        0.0000 
     11 N         -35.3575   33.6755  -34.6025 N.am      2 SEC2        0.0000 
     12 N         -34.1010   33.5040  -33.7420 N.am     10 SEL2        0.0000 
     13 N         -36.6140   33.8470  -35.4630 N.am      6 SEP2        0.0000 
     14 NZ        -36.9970   33.5450  -34.3715 N.4       3 LYC4        0.0000 
     15 NZ        -36.3460   34.0450  -33.0820 N.4      11 LYL4        0.0000 
     16 NZ        -37.6480   33.0450  -35.6610 N.4       7 LYP4        0.0000 
     17 N         -36.6190   29.7590  -30.6535 N.am      2 SEC2        0.0000 
     18 N         -35.0760   29.8400  -30.5670 N.am     10 SEL2        0.0000 
     19 N         -38.1620   29.6780  -30.7400 N.am      6 SEP2        0.0000 
     20 N         -32.0125   31.1505  -30.2805 N.am      2 SEC2        0.0000 
     21 N         -33.1180   31.1980  -31.2330 N.am     10 SEL2        0.0000 
     22 N         -30.9070   31.1030  -29.3280 N.am      6 SEP2        0.0000 
     23 CA        -31.2595   32.2650  -30.5940 C.3       4 GLC5        0.0000 
     24 CA        -32.1950   32.0740  -31.9990 C.3      12 GLL5        0.0000 
     25 CA        -30.3240   32.4560  -29.1890 C.3       8 GLP5        0.0000 
     26 CA        -30.2260   32.1085  -31.5840 C.3       4 GLC5        0.0000 
     27 CA        -31.4580   31.6500  -33.2810 C.3      12 GLL5        0.0000 
     28 CA        -28.9940   32.5670  -29.8870 C.3       8 GLP5        0.0000 
     29 CA        -33.5830   29.7190  -34.8865 C.3       4 GLC5        0.0000 
     30 CA        -31.9830   30.5270  -34.1770 C.3      12 GLL5        0.0000 
     31 CA        -35.1830   28.9110  -35.5960 C.3       8 GLP5        0.0000 
     32 N         -28.5435   25.7735  -33.4495 N.am      2 SEC2        0.0000 
     33 N         -28.3340   27.0950  -32.9610 N.am     10 SEL2        0.0000 
     34 N         -28.7530   24.4520  -33.9380 N.am      6 SEP2        0.0000 
     35 CA        -26.9950   26.2485  -33.6295 C.3       4 GLC5        0.0000 
     36 CA        -27.4770   27.9710  -32.3120 C.3      12 GLL5        0.0000 
     37 CA        -26.5130   24.5260  -34.9470 C.3       8 GLP5        0.0000 
     38 CA        -25.2825   28.2040  -33.0985 C.3       4 GLC5        0.0000 
     39 CA        -26.3770   27.7680  -31.4200 C.3      12 GLL5        0.0000 
     40 CA        -24.1880   28.6400  -34.7770 C.3       8 GLP5        0.0000 
     41 O         -26.2750   25.2210  -31.5335 O.2       1 ALC1        0.0000 
     42 O         -25.9470   26.5540  -31.0600 O.2       9 ALL1        0.0000 
     43 O         -26.6030   23.8880  -32.0070 O.2       5 ALP1        0.0000 
     44 O         -24.9235   26.7390  -30.1415 O.2       1 ALC1        0.0000 
     45 O         -23.9000   26.9240  -29.2230 O.2       5 ALP1        0.0000 
     46 N         -24.7420   29.0220  -30.0680 N.am      2 SEC2        0.0000 
     47 N         -25.7240   28.8810  -30.9350 N.am     10 SEL2        0.0000 
     48 N         -23.7600   29.1630  -29.2010 N.am      6 SEP2        0.0000 
     49 CA        -27.5760   31.3400  -30.5950 C.3       4 GLC5        0.0000 
     50 CA        -26.1580   30.1130  -31.3030 C.3      12 GLL5        0.0000 
     51 CA        -25.6985   29.8745  -33.2410 C.3       4 GLC5        0.0000 
     52 CA        -25.2390   29.6360  -35.1790 C.3       8 GLP5        0.0000 
     53 CA        -24.9550   31.1610  -31.9330 C.3       4 GLC5        0.0000 
     54 CA        -23.7520   32.2090  -32.5630 C.3       8 GLP5        0.0000 
     55 CA        -28.4060   30.9355  -31.2430 C.3       4 GLC5        0.0000 
     56 CA        -27.8180   29.3040  -32.5990 C.3      12 GLL5        0.0000 
     57 CA        -26.4432   29.1367  -33.8173 C.3       4 GLC5        0.0000 
@<TRIPOS>BOND
@<TRIPOS>SUBSTRUCTURE
     1 ALC1       41 GROUP        1 X    ALC  0     ROOT ALC X 1
     2 SEC2        4 GROUP        1 X    SEC  0     **** SEC X 2
     3 LYC4        1 GROUP        1 X    LYC  0     **** LYC X 4
     4 GLC5       23 GROUP        1 X    GLC  0     **** GLC X 6
     5 ALP1       43 GROUP        1 Y    ALP  0     ROOT ALP Y 8
     6 SEP2        6 GROUP        1 Y    SEP  0     **** SEP Y 9
     7 LYP4        3 GROUP        1 Y    LYP  0     **** LYP Y 11
     8 GLP5       25 GROUP        1 Y    GLP  0     **** GLP Y 13
     9 ALL1       42 GROUP        1 Z    ALL  0     ROOT ALL Z 15
    10 SEL2        5 GROUP        1 Z    SEL  0     **** SEL Z 16
    11 LYL4        2 GROUP        1 Z    LYL  0     **** LYL Z 18
    12 GLL5       24 GROUP        1 Z    GLL  0     **** GLL Z 20
@<TRIPOS>SET

