#    Name: 1x01_ATP_2_ligand
#    Modification time : Tue Mar 25 09:29:53 2014

@<TRIPOS>MOLECULE
1x01_ATP_2_ligand
   43    45     1     0     0
SMALL
NO_CHARGES


@<TRIPOS>ATOM
      1 PG        -33.8280   35.3960  -31.0430 P.3       1 ATP1002     0.0000 
      2 O1G       -34.7490   36.5920  -31.1530 O.co2     1 ATP1002     0.0000 
      3 O2G       -33.2970   35.3490  -29.6290 O.co2     1 ATP1002     0.0000 
      4 O3G       -32.6860   35.5140  -32.0320 O.co2     1 ATP1002     0.0000 
      5 PB        -35.1130   33.3580  -32.6550 P.3       1 ATP1002     0.0000 
      6 O1B       -34.1010   33.5040  -33.7420 O.co2     1 ATP1002     0.0000 
      7 O2B       -36.3460   34.0450  -33.0820 O.co2     1 ATP1002     0.0000 
      8 O3B       -34.6450   33.9840  -31.2120 O.3       1 ATP1002     0.0000 
      9 PA        -34.5260   30.5760  -31.7410 P.3       1 ATP1002     0.0000 
     10 O1A       -35.0760   29.8400  -30.5670 O.co2     1 ATP1002     0.0000 
     11 O2A       -34.3320   29.5880  -32.8300 O.co2     1 ATP1002     0.0000 
     12 O3A       -35.4810   31.8300  -32.2750 O.3       1 ATP1002     0.0000 
     13 O5'       -33.1180   31.1980  -31.2330 O.3       1 ATP1002     0.0000 
     14 C5'       -32.1950   32.0740  -31.9990 C.3       1 ATP1002     0.0000 
     15 C4'       -31.4580   31.6500  -33.2810 C.3       1 ATP1002     0.0000 
     16 O4'       -30.0770   31.2740  -33.0180 O.3       1 ATP1002     0.0000 
     17 C3'       -31.9830   30.5270  -34.1770 C.3       1 ATP1002     0.0000 
     18 O3'       -33.1190   30.9970  -34.9370 O.3       1 ATP1002     0.0000 
     19 C2'       -30.7440   30.1960  -35.0230 C.3       1 ATP1002     0.0000 
     20 O2'       -30.6030   31.0200  -36.1940 O.3       1 ATP1002     0.0000 
     21 C1'       -29.5820   30.4450  -34.0560 C.3       1 ATP1002     0.0000 
     22 N9        -28.8970   29.2480  -33.4680 N.pl3     1 ATP1002     0.0000 
     23 C8        -29.1530   27.8850  -33.6360 C.2       1 ATP1002     0.0000 
     24 N7        -28.3340   27.0950  -32.9610 N.2       1 ATP1002     0.0000 
     25 C5        -27.4770   27.9710  -32.3120 C.ar      1 ATP1002     0.0000 
     26 C6        -26.3770   27.7680  -31.4200 C.ar      1 ATP1002     0.0000 
     27 N6        -25.9470   26.5540  -31.0600 N.pl3     1 ATP1002     0.0000 
     28 N1        -25.7240   28.8810  -30.9350 N.ar      1 ATP1002     0.0000 
     29 C2        -26.1580   30.1130  -31.3030 C.ar      1 ATP1002     0.0000 
     30 N3        -27.1810   30.4240  -32.1310 N.ar      1 ATP1002     0.0000 
     31 C4        -27.8180   29.3040  -32.5990 C.ar      1 ATP1002     0.0000 
     32 H         -31.3882   32.4744  -31.2758 H         1 ATP1002     0.0000 
     33 H         -32.7490   33.0559  -32.2504 H         1 ATP1002     0.0000 
     34 H         -31.3920   32.5645  -33.9499 H         1 ATP1002     0.0000 
     35 H         -32.1949   29.6960  -33.5536 H         1 ATP1002     0.0000 
     36 H         -30.7595   29.1506  -35.2381 H         1 ATP1002     0.0000 
     37 H         -28.8225   31.0325  -34.6240 H         1 ATP1002     0.0000 
     38 H         -29.8986   27.5725  -34.2229 H         1 ATP1002     0.0000 
     39 H         -25.1439   26.5303  -30.4646 H         1 ATP1002     0.0000 
     40 H         -26.4671   25.7788  -31.4185 H         1 ATP1002     0.0000 
     41 H         -25.6099   30.9606  -30.8748 H         1 ATP1002     0.0000 
     42 H         -33.3719   31.8667  -34.5131 H         1 ATP1002     0.0000 
     43 H         -31.5084   31.4184  -36.3405 H         1 ATP1002     0.0000 
@<TRIPOS>BOND
     1    2    1 ar   
     2    3    1 ar   
     3    4    1 ar   
     4    8    1 1    
     5    6    5 ar   
     6    7    5 ar   
     7    8    5 1    
     8   12    5 1    
     9   10    9 ar   
    10   11    9 ar   
    11   12    9 1    
    12   13    9 1    
    13   14   13 1    
    14   15   14 1    
    15   32   14 1    
    16   33   14 1    
    17   16   15 1    
    18   17   15 1    
    19   34   15 1    
    20   21   16 1    
    21   18   17 1    
    22   19   17 1    
    23   35   17 1    
    24   42   18 1    
    25   20   19 1    
    26   21   19 1    
    27   36   19 1    
    28   43   20 1    
    29   22   21 1    
    30   37   21 1    
    31   23   22 1    
    32   31   22 1    
    33   24   23 2    
    34   38   23 1    
    35   25   24 1    
    36   26   25 ar   
    37   31   25 ar   
    38   27   26 1    
    39   28   26 ar   
    40   39   27 1    
    41   40   27 1    
    42   29   28 ar   
    43   30   29 ar   
    44   41   29 1    
    45   31   30 ar   
@<TRIPOS>SUBSTRUCTURE
     1 ATP1002     1 GROUP   
@<TRIPOS>SET

