#    Name: 1qk4_IMP_4_INTS_M
#    Modification time : Mon Mar 24 23:36:49 2014

@<TRIPOS>MOLECULE
1qk4_IMP_4_INTS_M
   44     0     9     0     0
SMALL
NO_CHARGES


@<TRIPOS>ATOM
      1 N         -32.2770   -4.9015    2.4265 N.am      2 SEC2        0.0000 
      2 N         -31.9740   -4.7810    1.0470 N.am      8 SEL2        0.0000 
      3 N         -32.5800   -5.0220    3.8060 N.am      5 SEP2        0.0000 
      4 N         -32.9630   -5.5110    1.3530 N.am      2 SEC2        0.0000 
      5 N         -33.9520   -6.2410    1.6590 N.am      5 SEP2        0.0000 
      6 N         -29.8185   -5.4250    3.1400 N.am      2 SEC2        0.0000 
      7 N         -30.1520   -6.1440    1.9720 N.am      8 SEL2        0.0000 
      8 N         -29.4850   -4.7060    4.3080 N.am      5 SEP2        0.0000 
      9 N         -31.1170   -6.9365    2.6995 N.am      2 SEC2        0.0000 
     10 N         -32.0820   -7.7290    3.4270 N.am      5 SEP2        0.0000 
     11 N         -31.0165   -7.8915   -0.8140 N.am      2 SEC2        0.0000 
     12 N         -30.8650   -6.4840   -0.3830 N.am      8 SEL2        0.0000 
     13 N         -31.1680   -9.2990   -1.2450 N.am      5 SEP2        0.0000 
     14 N         -30.2930   -6.9400   -1.4845 N.am      2 SEC2        0.0000 
     15 N         -29.7210   -7.3960   -2.5860 N.am      5 SEP2        0.0000 
     16 CA        -28.9340   -6.6630   -1.5700 C.3       3 GLC5        0.0000 
     17 CA        -28.8210   -4.7110   -0.8360 C.3       9 GLL5        0.0000 
     18 CA        -29.0470   -8.6150   -2.3040 C.3       6 GLP5        0.0000 
     19 O         -24.6105   -4.1980   -0.7990 O.2       1 ALC1        0.0000 
     20 O         -25.8450   -4.5210   -1.3970 O.2       7 ALL1        0.0000 
     21 O         -23.3760   -3.8750   -0.2010 O.2       4 ALP1        0.0000 
     22 O         -24.2210   -2.9570   -1.0000 O.2       1 ALC1        0.0000 
     23 O         -25.0660   -2.0390   -1.7990 O.2       7 ALL1        0.0000 
     24 O         -23.8055   -2.0160   -1.4035 O.2       1 ALC1        0.0000 
     25 O         -22.5450   -1.9930   -1.0080 O.2       4 ALP1        0.0000 
     26 CA        -28.5790    0.4995   -0.9380 C.3       3 GLC5        0.0000 
     27 CA        -27.4430   -1.3360   -1.1530 C.3       9 GLL5        0.0000 
     28 CA        -29.7150    2.3350   -0.7230 C.3       6 GLP5        0.0000 
     29 CA        -28.1275    0.9290    3.4090 C.3       3 GLC5        0.0000 
     30 CA        -27.3950    1.0620    1.5740 C.3       9 GLL5        0.0000 
     31 CA        -28.8600    0.7960    5.2440 C.3       6 GLP5        0.0000 
     32 N         -28.3520    2.3385    3.8335 N.am      2 SEC2        0.0000 
     33 N         -27.2300    2.7640    3.2030 N.am      8 SEL2        0.0000 
     34 N         -29.4740    1.9130    4.4640 N.am      5 SEP2        0.0000 
     35 N         -26.7235    4.0390    3.5870 N.am      2 SEC2        0.0000 
     36 N         -26.2170    5.3140    3.9710 N.am      5 SEP2        0.0000 
     37 O         -25.2440    3.9700    1.5910 O.2       1 ALC1        0.0000 
     38 O         -25.9590    2.8500    1.3150 O.2       7 ALL1        0.0000 
     39 O         -24.5290    5.0900    1.8670 O.2       4 ALP1        0.0000 
     40 CA        -26.0404   -1.9989    0.7204 C.3       3 GLC5        0.0000 
     41 CA        -26.1640   -2.1690   -0.9210 C.3       9 GLL5        0.0000 
     42 CA        -25.1490   -1.8980    2.4470 C.3       6 GLP5        0.0000 
     43 CA        -26.1590   -0.5262    1.7060 C.3       3 GLC5        0.0000 
     44 CA        -26.9430    0.6290    0.3560 C.3       9 GLL5        0.0000 
@<TRIPOS>BOND
@<TRIPOS>SUBSTRUCTURE
     1 ALC1       19 GROUP        1 X    ALC  0     ROOT ALC X 1
     2 SEC2        1 GROUP        1 X    SEC  0     **** SEC X 2
     3 GLC5       16 GROUP        1 X    GLC  0     **** GLC X 6
     4 ALP1       21 GROUP        1 Y    ALP  0     ROOT ALP Y 8
     5 SEP2        3 GROUP        1 Y    SEP  0     **** SEP Y 9
     6 GLP5       18 GROUP        1 Y    GLP  0     **** GLP Y 13
     7 ALL1       20 GROUP        1 Z    ALL  0     ROOT ALL Z 15
     8 SEL2        2 GROUP        1 Z    SEL  0     **** SEL Z 16
     9 GLL5       17 GROUP        1 Z    GLL  0     **** GLL Z 20
@<TRIPOS>SET

