#    Name: 1qk4_IMP_4_ligand
#    Modification time : Mon Mar 24 23:36:49 2014

@<TRIPOS>MOLECULE
1qk4_IMP_4_ligand
   34    36     1     0     0
SMALL
NO_CHARGES


@<TRIPOS>ATOM
      1 P         -30.6840   -5.4530    0.7680 P.3       1 IMP300      0.0000 
      2 O1P       -31.9740   -4.7810    1.0470 O.co2     1 IMP300      0.0000 
      3 O2P       -30.1520   -6.1440    1.9720 O.co2     1 IMP300      0.0000 
      4 O3P       -30.8650   -6.4840   -0.3830 O.co2     1 IMP300      0.0000 
      5 O5'       -29.6890   -4.3300    0.2400 O.3       1 IMP300      0.0000 
      6 C5'       -28.8210   -4.7110   -0.8360 C.3       1 IMP300      0.0000 
      7 C4'       -28.0580   -3.5640   -1.4540 C.3       1 IMP300      0.0000 
      8 O4'       -28.5810   -2.2320   -1.1940 O.3       1 IMP300      0.0000 
      9 C3'       -26.6770   -3.5580   -0.7980 C.3       1 IMP300      0.0000 
     10 O3'       -25.8450   -4.5210   -1.3970 O.3       1 IMP300      0.0000 
     11 C2'       -26.1640   -2.1690   -0.9210 C.3       1 IMP300      0.0000 
     12 O2'       -25.0660   -2.0390   -1.7990 O.3       1 IMP300      0.0000 
     13 C1'       -27.4430   -1.3360   -1.1530 C.3       1 IMP300      0.0000 
     14 N9        -27.6170   -0.5170    0.0710 N.pl3     1 IMP300      0.0000 
     15 C8        -28.4670   -0.7190    1.1510 C.2       1 IMP300      0.0000 
     16 N7        -28.3810    0.2070    2.0740 N.2       1 IMP300      0.0000 
     17 C5        -27.3950    1.0620    1.5740 C.2       1 IMP300      0.0000 
     18 C6        -26.9140    2.2570    2.1400 C.2       1 IMP300      0.0000 
     19 O6        -27.2300    2.7640    3.2030 O.2       1 IMP300      0.0000 
     20 N1        -25.9590    2.8500    1.3150 N.am      1 IMP300      0.0000 
     21 C2        -25.5780    2.3170    0.0930 C.2       1 IMP300      0.0000 
     22 N3        -25.9890    1.1910   -0.4420 N.2       1 IMP300      0.0000 
     23 C4        -26.9430    0.6290    0.3560 C.2       1 IMP300      0.0000 
     24 H         -29.3965   -5.2146   -1.6493 H         1 IMP300      0.0000 
     25 H         -28.0771   -5.4701   -0.4945 H         1 IMP300      0.0000 
     26 H         -27.9042   -3.7332   -2.4946 H         1 IMP300      0.0000 
     27 H         -26.8444   -3.7660    0.2607 H         1 IMP300      0.0000 
     28 H         -25.8550   -1.8977    0.1424 H         1 IMP300      0.0000 
     29 H         -27.3431   -0.7512   -1.9911 H         1 IMP300      0.0000 
     30 H         -29.0755   -1.5139    1.1828 H         1 IMP300      0.0000 
     31 H         -25.5089    3.7425    1.6373 H         1 IMP300      0.0000 
     32 H         -24.8577    2.9197   -0.4629 H         1 IMP300      0.0000 
     33 H         -24.9202   -4.2859   -1.0979 H         1 IMP300      0.0000 
     34 H         -24.3188   -2.5321   -1.3535 H         1 IMP300      0.0000 
@<TRIPOS>BOND
     1    2    1 ar   
     2    3    1 ar   
     3    4    1 ar   
     4    5    1 1    
     5    6    5 1    
     6    7    6 1    
     7   24    6 1    
     8   25    6 1    
     9    8    7 1    
    10    9    7 1    
    11   26    7 1    
    12   13    8 1    
    13   10    9 1    
    14   11    9 1    
    15   27    9 1    
    16   33   10 1    
    17   12   11 1    
    18   13   11 1    
    19   28   11 1    
    20   34   12 1    
    21   14   13 1    
    22   29   13 1    
    23   15   14 1    
    24   23   14 1    
    25   16   15 2    
    26   30   15 1    
    27   17   16 1    
    28   18   17 1    
    29   23   17 2    
    30   19   18 2    
    31   20   18 am   
    32   21   20 1    
    33   31   20 1    
    34   22   21 2    
    35   32   21 1    
    36   23   22 1    
@<TRIPOS>SUBSTRUCTURE
     1 IMP300      1 GROUP   
@<TRIPOS>SET

