#    Name: 3upj_U03_1_INTS_M
#    Modification time : Mon Mar 24 23:14:05 2014

@<TRIPOS>MOLECULE
3upj_U03_1_INTS_M
   42     0     9     0     0
SMALL
NO_CHARGES


@<TRIPOS>ATOM
      1 CA          1.9310   15.0135   23.3555 C.3       3 GLC5        0.0000 
      2 CA          1.1620   15.7490   22.0790 C.3       9 GLL5        0.0000 
      3 CA          2.7000   14.2780   24.6320 C.3       6 GLP5        0.0000 
      4 CA          0.0425   16.1710   23.7280 C.3       3 GLC5        0.0000 
      5 CA         -1.0770   16.5930   25.3770 C.3       6 GLP5        0.0000 
      6 CA         -1.6595   24.2670   19.0900 C.3       3 GLC5        0.0000 
      7 CA         -2.1420   22.9060   20.7650 C.3       9 GLL5        0.0000 
      8 CA         -1.1770   25.6280   17.4150 C.3       6 GLP5        0.0000 
      9 N          -2.6060   15.4465   22.1005 N.am      2 SEC2        0.0000 
     10 N          -2.1260   16.7550   21.4980 N.am      8 SEL2        0.0000 
     11 N          -3.0860   14.1380   22.7030 N.am      5 SEP2        0.0000 
     12 N          -4.3680   18.2480   21.3365 N.am      2 SEC2        0.0000 
     13 N          -2.8820   18.7990   21.5970 N.am      8 SEL2        0.0000 
     14 N          -5.8540   17.6970   21.0760 N.am      5 SEP2        0.0000 
     15 N           1.0270   20.8905   19.0650 N.am      2 SEC2        0.0000 
     16 N           0.9090   19.9980   20.0710 N.am      8 SEL2        0.0000 
     17 N           1.1450   21.7830   18.0590 N.am      5 SEP2        0.0000 
     18 O           2.0125   20.1720   21.0405 O.2       1 ALC1        0.0000 
     19 O           0.9090   19.9980   20.0710 O.2       7 ALL1        0.0000 
     20 O           3.1160   20.3460   22.0100 O.2       4 ALP1        0.0000 
     21 CA         -4.6367   19.5625   22.3897 C.3       3 GLC5        0.0000 
     22 CA         -2.5920   20.1550   21.3210 C.3       9 GLL5        0.0000 
     23 CA         -6.1750   18.4870   23.3220 C.3       6 GLP5        0.0000 
     24 CA         -1.3255   13.9155   19.3490 C.3       3 GLC5        0.0000 
     25 CA         -0.0730   15.1680   18.6130 C.3       9 GLL5        0.0000 
     26 CA         -2.4070   12.9360   20.7150 C.3       6 GLP5        0.0000 
     27 CA         -1.0275   13.4268   15.5835 C.3       3 GLC5        0.0000 
     28 CA         -0.4150   14.6220   17.3530 C.3       9 GLL5        0.0000 
     29 CA         -1.4940   11.8170   14.3530 C.3       6 GLP5        0.0000 
     30 CA         -1.4817   16.2323   14.5205 C.3       3 GLC5        0.0000 
     31 CA         -0.6640   16.8420   16.4250 C.3       9 GLL5        0.0000 
     32 CA         -2.2780   16.3180   12.6910 C.3       6 GLP5        0.0000 
     33 CA          1.1623   17.8140   16.3667 C.3       3 GLC5        0.0000 
     34 CA          2.8210   18.4960   15.6900 C.3       6 GLP5        0.0000 
     35 CA         -1.2388   18.8020   16.4763 C.3       3 GLC5        0.0000 
     36 CA         -0.3290   17.4220   17.6620 C.3       9 GLL5        0.0000 
     37 CA         -1.9810   20.4720   15.9090 C.3       6 GLP5        0.0000 
     38 CA         -2.3261   17.2426   16.7310 C.3       3 GLC5        0.0000 
     39 CA         -4.1450   17.7010   16.4560 C.3       6 GLP5        0.0000 
     40 CA         -0.6160   23.6723   21.9042 C.3       3 GLC5        0.0000 
     41 CA         -1.1280   21.9570   20.4980 C.3       9 GLL5        0.0000 
     42 CA          0.4030   24.9130   23.1770 C.3       6 GLP5        0.0000 
@<TRIPOS>BOND
@<TRIPOS>SUBSTRUCTURE
     1 ALC1       18 GROUP        1 X    ALC  0     ROOT ALC X 1
     2 SEC2        9 GROUP        1 X    SEC  0     **** SEC X 2
     3 GLC5        1 GROUP        1 X    GLC  0     **** GLC X 6
     4 ALP1       20 GROUP        1 Y    ALP  0     ROOT ALP Y 8
     5 SEP2       11 GROUP        1 Y    SEP  0     **** SEP Y 9
     6 GLP5        3 GROUP        1 Y    GLP  0     **** GLP Y 13
     7 ALL1       19 GROUP        1 Z    ALL  0     ROOT ALL Z 15
     8 SEL2       10 GROUP        1 Z    SEL  0     **** SEL Z 16
     9 GLL5        2 GROUP        1 Z    GLL  0     **** GLL Z 20
@<TRIPOS>SET

