#    Name: 3upj_U03_1_ligand
#    Modification time : Mon Mar 24 23:14:05 2014

@<TRIPOS>MOLECULE
3upj_U03_1_ligand
   41    43     1     0     0
SMALL
NO_CHARGES


@<TRIPOS>ATOM
      1 CA         -0.6340   18.2740   20.7360 C.2       1 U03100      0.0000 
      2 CA2        -1.9010   17.9120   21.2940 C.2       1 U03100      0.0000 
      3 CA4        -2.5920   20.1550   21.3210 C.ar      1 U03100      0.0000 
      4 CA5        -1.3580   20.5760   20.7780 C.ar      1 U03100      0.0000 
      5 CA6        -0.3550   19.6230   20.4980 C.2       1 U03100      0.0000 
      6 CB1        -0.0290   16.5810   18.7750 C.ar      1 U03100      0.0000 
      7 CB2        -0.0730   15.1680   18.6130 C.ar      1 U03100      0.0000 
      8 CB3        -0.4150   14.6220   17.3530 C.ar      1 U03100      0.0000 
      9 CB4        -0.7070   15.4510   16.2750 C.ar      1 U03100      0.0000 
     10 CB5        -0.6640   16.8420   16.4250 C.ar      1 U03100      0.0000 
     11 CB6        -0.3290   17.4220   17.6620 C.ar      1 U03100      0.0000 
     12 CG1         0.3040   17.1990   20.1560 C.3       1 U03100      0.0000 
     13 CG2         1.5310   16.6960   20.9450 C.3       1 U03100      0.0000 
     14 CG3         1.1620   15.7490   22.0790 C.3       1 U03100      0.0000 
     15 CD1        -3.6050   21.1210   21.5940 C.ar      1 U03100      0.0000 
     16 CD2        -3.3670   22.4980   21.3130 C.ar      1 U03100      0.0000 
     17 CD3        -2.1420   22.9060   20.7650 C.ar      1 U03100      0.0000 
     18 CD4        -1.1280   21.9570   20.4980 C.ar      1 U03100      0.0000 
     19 CE3        -5.3360   23.0210   22.4970 C.3       1 U03100      0.0000 
     20 OA2        -2.1260   16.7550   21.4980 O.2       1 U03100      0.0000 
     21 OA3        -2.8820   18.7990   21.5970 O.3       1 U03100      0.0000 
     22 OA6         0.9090   19.9980   20.0710 O.3       1 U03100      0.0000 
     23 OE3        -4.3370   23.4390   21.5620 O.3       1 U03100      0.0000 
     24 H           0.1398   14.5595   19.3970 H         1 U03100      0.0000 
     25 H          -0.4451   13.5990   17.2439 H         1 U03100      0.0000 
     26 H          -0.9555   15.0448   15.3639 H         1 U03100      0.0000 
     27 H          -0.8795   17.4501   15.6229 H         1 U03100      0.0000 
     28 H          -0.2984   18.4319   17.7714 H         1 U03100      0.0000 
     29 H           1.0991   18.2091   19.5216 H         1 U03100      0.0000 
     30 H           2.0637   17.5636   21.3537 H         1 U03100      0.0000 
     31 H           2.2086   16.1851   20.2497 H         1 U03100      0.0000 
     32 H          -4.4941   20.8281   21.9879 H         1 U03100      0.0000 
     33 H          -1.9760   23.8951   20.5553 H         1 U03100      0.0000 
     34 H          -0.2365   22.2511   20.1081 H         1 U03100      0.0000 
     35 H           1.9692   15.4379   22.5806 H         1 U03100      0.0000 
     36 H           0.5539   16.1840   22.7431 H         1 U03100      0.0000 
     37 H           0.6929   14.9323   21.7430 H         1 U03100      0.0000 
     38 H          -4.9402   22.7944   23.3869 H         1 U03100      0.0000 
     39 H          -6.0198   23.7337   22.6533 H         1 U03100      0.0000 
     40 H          -5.8260   22.2094   22.1789 H         1 U03100      0.0000 
     41 H           1.4855   19.9388   20.8859 H         1 U03100      0.0000 
@<TRIPOS>BOND
     1    2    1 1    
     2    5    1 2    
     3   12    1 1    
     4   20    2 2    
     5   21    2 1    
     6    4    3 ar   
     7   15    3 ar   
     8   21    3 1    
     9    5    4 1    
    10   18    4 ar   
    11   22    5 1    
    12    7    6 ar   
    13   11    6 ar   
    14   12    6 1    
    15    8    7 ar   
    16   24    7 1    
    17    9    8 ar   
    18   25    8 1    
    19   10    9 ar   
    20   26    9 1    
    21   11   10 ar   
    22   27   10 1    
    23   28   11 1    
    24   13   12 1    
    25   29   12 1    
    26   14   13 1    
    27   30   13 1    
    28   31   13 1    
    29   35   14 1    
    30   36   14 1    
    31   37   14 1    
    32   16   15 ar   
    33   32   15 1    
    34   17   16 ar   
    35   23   16 1    
    36   18   17 ar   
    37   33   17 1    
    38   34   18 1    
    39   23   19 1    
    40   38   19 1    
    41   39   19 1    
    42   40   19 1    
    43   41   22 1    
@<TRIPOS>SUBSTRUCTURE
     1 U03100      1 GROUP   
@<TRIPOS>SET

