#    Name: 2HD6_1_CAVITY_N1_ALL.mol2
#    Modification time : Mon Mar 10 16:29:58 2014

@<TRIPOS>MOLECULE
2HD6_1_CAVITY_N1_ALL.mol2
   84     0     6     0     0
SMALL
NO_CHARGES


@<TRIPOS>ATOM
      1 CA         -0.7176    6.0047   13.6655 C.3       5 GLY6        0.0000 
      2 N           0.5366    4.2044   11.1285 N.2       2 ALA2        0.0000 
      3 DU          0.5910    3.7603    9.6968 H         6 CUB7        0.0000 
      4 CA          0.6454    3.3161    8.2651 C.3       5 GLY6        0.0000 
      5 N           0.6998    2.8720    6.8334 N.2       2 ALA2        0.0000 
      6 CA         -2.8844    6.2557   15.0768 C.3       5 GLY6        0.0000 
      7 CZ         -4.0298    7.1677   14.7504 C.ar      4 PHE5        0.0000 
      8 N          -1.6847    4.8996   13.9715 N.2       2 ALA2        0.0000 
      9 DU         -2.8300    5.8116   13.6451 H         6 CUB7        0.0000 
     10 CZ         -3.9754    6.7235   13.3187 C.ar      4 PHE5        0.0000 
     11 N          -1.6303    4.4555   12.5398 N.2       2 ALA2        0.0000 
     12 DU         -3.9209    6.2794   11.8870 H         6 CUB7        0.0000 
     13 CZ         -5.0663    7.1913   11.5605 C.ar      4 PHE5        0.0000 
     14 N          -0.4305    3.0994   11.4346 N.2       2 ALA2        0.0000 
     15 DU         -1.5758    4.0113   11.1081 H         6 CUB7        0.0000 
     16 DU         -2.7212    4.9233   10.7817 H         6 CUB7        0.0000 
     17 DU         -3.8665    5.8352   10.4553 H         6 CUB7        0.0000 
     18 CA         -0.3761    2.6553   10.0029 C.3       5 GLY6        0.0000 
     19 O          -1.5214    3.5672    9.6764 O.2       2 ALA2        0.0000 
     20 O          -2.6668    4.4791    9.3500 O.2       2 ALA2        0.0000 
     21 O          -1.4670    3.1230    8.2447 O.2       2 ALA2        0.0000 
     22 CA         -2.7062    4.2388   15.7093 C.3       5 GLY6        0.0000 
     23 CA         -3.8515    5.1507   15.3829 C.3       5 GLY6        0.0000 
     24 CZ         -4.9969    6.0626   15.0564 C.ar      4 PHE5        0.0000 
     25 OG         -2.6518    3.7946   14.2776 O.2       1 SER1        0.0000 
     26 DU         -3.7971    4.7065   13.9512 H         6 CUB7        0.0000 
     27 CZ         -4.9424    5.6185   13.6247 C.ar      4 PHE5        0.0000 
     28 CZ         -6.0878    6.5304   13.2983 C.ar      4 PHE5        0.0000 
     29 CZ         -7.2331    7.4424   12.9718 C.ar      4 PHE5        0.0000 
     30 OG         -2.5973    3.3505   12.8459 O.2       1 SER1        0.0000 
     31 DU         -3.7427    4.2624   12.5194 H         6 CUB7        0.0000 
     32 O          -4.8880    5.1743   12.1930 O.2       2 ALA2        0.0000 
     33 O          -6.0334    6.0863   11.8666 O.2       2 ALA2        0.0000 
     34 O          -7.1787    6.9982   11.5401 O.2       2 ALA2        0.0000 
     35 OG         -1.3976    1.9944   11.7406 O.2       1 SER1        0.0000 
     36 OG         -2.5429    2.9063   11.4142 O.2       1 SER1        0.0000 
     37 DU         -3.6883    3.8182   11.0877 H         6 CUB7        0.0000 
     38 O          -4.8336    4.7302   10.7613 O.2       2 ALA2        0.0000 
     39 O          -5.9789    5.6421   10.4349 O.2       2 ALA2        0.0000 
     40 CA         -1.3432    1.5502   10.3089 C.3       5 GLY6        0.0000 
     41 O          -2.4885    2.4622    9.9825 O.2       2 ALA2        0.0000 
     42 O          -3.6338    3.3741    9.6560 O.2       2 ALA2        0.0000 
     43 CA         -3.6733    3.1337   16.0153 C.3       5 GLY6        0.0000 
     44 CA         -4.8186    4.0457   15.6889 C.3       5 GLY6        0.0000 
     45 CA         -5.9639    4.9576   15.3625 C.3       5 GLY6        0.0000 
     46 CA         -7.1093    5.8695   15.0360 C.3       5 GLY6        0.0000 
     47 OG         -3.6188    2.6896   14.5836 O.2       1 SER1        0.0000 
     48 DU         -4.7642    3.6015   14.2572 H         6 CUB7        0.0000 
     49 O          -5.9095    4.5135   13.9308 O.2       2 ALA2        0.0000 
     50 O          -7.0549    5.4254   13.6043 O.2       2 ALA2        0.0000 
     51 OG         -3.5644    2.2454   13.1519 O.2       1 SER1        0.0000 
     52 O          -4.7098    3.1574   12.8255 O.2       2 ALA2        0.0000 
     53 OG         -2.3646    0.8893   12.0467 O.2       1 SER1        0.0000 
     54 OG         -3.5100    1.8013   11.7202 O.2       1 SER1        0.0000 
     55 O          -4.6553    2.7132   11.3938 O.2       2 ALA2        0.0000 
     56 CA         -1.1649   -0.4667   10.9414 C.3       5 GLY6        0.0000 
     57 CA         -2.3102    0.4452   10.6150 C.3       5 GLY6        0.0000 
     58 O          -3.4556    1.3571   10.2885 O.2       2 ALA2        0.0000 
     59 N          -4.6009    2.2691    9.9621 N.2       2 ALA2        0.0000 
     60 N          -2.2558    0.0010    9.1833 N.2       2 ALA2        0.0000 
     61 CA         -4.6403    2.0287   16.3214 C.3       5 GLY6        0.0000 
     62 CA         -5.7857    2.9406   15.9950 C.3       5 GLY6        0.0000 
     63 CA         -6.9310    3.8526   15.6685 C.3       5 GLY6        0.0000 
     64 OG         -3.4406    0.6726   15.2161 O.2       1 SER1        0.0000 
     65 OG         -4.5859    1.5845   14.8897 O.2       1 SER1        0.0000 
     66 N          -5.7312    2.4965   14.5633 N.2       2 ALA2        0.0000 
     67 O          -6.8766    3.4084   14.2368 O.2       2 ALA2        0.0000 
     68 CA         -3.3861    0.2285   13.7844 C.3       5 GLY6        0.0000 
     69 N          -4.5315    1.1404   13.4580 N.2       2 ALA2        0.0000 
     70 N          -5.6768    2.0523   13.1316 N.2       2 ALA2        0.0000 
     71 CA         -3.3317   -0.2157   12.3527 C.3       5 GLY6        0.0000 
     72 N          -4.4771    0.6962   12.0263 N.2       2 ALA2        0.0000 
     73 O          -5.6224    1.6082   11.6998 O.2       2 ALA2        0.0000 
     74 CA         -2.1320   -1.5718   11.2475 C.3       5 GLY6        0.0000 
     75 CA         -3.2773   -0.6598   10.9210 C.3       5 GLY6        0.0000 
     76 O          -4.4226    0.2521   10.5946 O.2       2 ALA2        0.0000 
     77 O          -5.5680    1.1640   10.2681 O.2       2 ALA2        0.0000 
     78 CA         -3.2229   -1.1040    9.4893 C.3       5 GLY6        0.0000 
     79 O          -4.3682   -0.1921    9.1629 O.2       2 ALA2        0.0000 
     80 OD1        -5.6074    0.9237   16.6274 O.3       3 ASP3        0.0000 
     81 OD1        -6.7527    1.8356   16.3010 O.3       3 ASP3        0.0000 
     82 N          -4.2988   -1.3207   12.6588 N.2       2 ALA2        0.0000 
     83 CA         -4.2444   -1.7649   11.2271 C.3       5 GLY6        0.0000 
     84 CA         -5.3897   -0.8529   10.9006 C.3       5 GLY6        0.0000 
@<TRIPOS>BOND
@<TRIPOS>SUBSTRUCTURE
     1 SER1       25 GROUP   
     2 ALA2        2 GROUP   
     3 ASP3       80 GROUP   
     4 PHE5        7 GROUP   
     5 GLY6        1 GROUP   
     6 CUB7        3 GROUP   
@<TRIPOS>SET

