#    Name: 2hd6_BOS_1_ligand
#    Modification time : Tue Mar 25 15:54:11 2014

@<TRIPOS>MOLECULE
2hd6_BOS_1_ligand
   30    31     1     0     0
SMALL
NO_CHARGES


@<TRIPOS>ATOM
      1 N1         -5.3400   -0.5360   15.9860 N.pl3     1 BOS266      0.0000 
      2 S1         -5.9140    0.8420   16.6720 S.o2      1 BOS266      0.0000 
      3 O1         -5.3600    0.8590   17.9970 O.2       1 BOS266      0.0000 
      4 O2         -7.3280    0.8260   16.5340 O.2       1 BOS266      0.0000 
      5 C1         -5.2400    2.1820   15.7720 C.ar      1 BOS266      0.0000 
      6 C2         -3.8790    2.1650   15.4100 C.ar      1 BOS266      0.0000 
      7 C3         -3.3290    3.2450   14.6960 C.ar      1 BOS266      0.0000 
      8 C4         -4.1410    4.3630   14.3340 C.ar      1 BOS266      0.0000 
      9 C5         -5.5120    4.3620   14.7060 C.ar      1 BOS266      0.0000 
     10 C6         -6.0560    3.2780   15.4200 C.ar      1 BOS266      0.0000 
     11 N2         -3.6230    5.4800   13.6190 N.am      1 BOS266      0.0000 
     12 C7         -2.3490    5.7700   13.1940 C.2       1 BOS266      0.0000 
     13 O3         -1.3650    5.0690   13.3650 O.2       1 BOS266      0.0000 
     14 C8         -2.2570    7.0880   12.4680 C.ar      1 BOS266      0.0000 
     15 C9         -1.5670    8.1470   13.1110 C.ar      1 BOS266      0.0000 
     16 C10        -1.4390    9.4050   12.5000 C.ar      1 BOS266      0.0000 
     17 C11        -1.9990    9.6430   11.2200 C.ar      1 BOS266      0.0000 
     18 C12        -2.6890    8.6060   10.5610 C.ar      1 BOS266      0.0000 
     19 C13        -2.8330    7.3230   11.1610 C.ar      1 BOS266      0.0000 
     20 S2         -3.7220    6.0140   10.2970 S.3       1 BOS266      0.0000 
     21 H          -3.2921    1.3683   15.6662 H         1 BOS266      0.0000 
     22 H          -2.3415    3.2388   14.4297 H         1 BOS266      0.0000 
     23 H          -6.1032    5.1574   14.4504 H         1 BOS266      0.0000 
     24 H          -7.0438    3.2832   15.6848 H         1 BOS266      0.0000 
     25 H          -4.3922    6.2356   13.3705 H         1 BOS266      0.0000 
     26 H          -1.1556    7.9851   14.0402 H         1 BOS266      0.0000 
     27 H          -0.9379   10.1603   12.9787 H         1 BOS266      0.0000 
     28 H          -1.9016   10.5565   10.7835 H         1 BOS266      0.0000 
     29 H          -3.0967    8.7721    9.6330 H         1 BOS266      0.0000 
     30 H          -4.4577   -0.6971   16.4284 H         1 BOS266      0.0000 
@<TRIPOS>BOND
     1    2    1 1    
     2   30    1 1    
     3    3    2 2    
     4    4    2 2    
     5    5    2 1    
     6    6    5 ar   
     7   10    5 ar   
     8    7    6 ar   
     9   21    6 1    
    10    8    7 ar   
    11   22    7 1    
    12    9    8 ar   
    13   11    8 1    
    14   10    9 ar   
    15   23    9 1    
    16   24   10 1    
    17   12   11 am   
    18   25   11 1    
    19   13   12 2    
    20   14   12 1    
    21   15   14 ar   
    22   19   14 ar   
    23   16   15 ar   
    24   26   15 1    
    25   17   16 ar   
    26   27   16 1    
    27   18   17 ar   
    28   28   17 1    
    29   19   18 ar   
    30   29   18 1    
    31   20   19 1    
@<TRIPOS>SUBSTRUCTURE
     1 BOS266      1 GROUP   
@<TRIPOS>SET

