#    Name: 2ycs_NXP_1_INTS_M
#    Modification time : Tue Mar 25 08:41:30 2014

@<TRIPOS>MOLECULE
2ycs_NXP_1_INTS_M
   64     0     9     0     0
SMALL
NO_CHARGES


@<TRIPOS>ATOM
      1 CA        -33.5660   32.7435   13.7220 C.3       3 GLC5        0.0000 
      2 CA        -35.4230   33.4590   12.7590 C.3       9 GLL5        0.0000 
      3 CA        -31.7090   32.0280   14.6850 C.3       6 GLP5        0.0000 
      4 CA        -33.0130   34.0930   13.7095 C.3       3 GLC5        0.0000 
      5 CA        -34.9230   34.7600   12.8140 C.3       9 GLL5        0.0000 
      6 CA        -31.1030   33.4260   14.6050 C.3       6 GLP5        0.0000 
      7 CA        -36.8475   36.3420   12.5200 C.3       3 GLC5        0.0000 
      8 CA        -35.0950   35.5780   11.6860 C.3       9 GLL5        0.0000 
      9 CA        -38.6000   37.1060   13.3540 C.3       6 GLP5        0.0000 
     10 CA        -34.5115   38.0405   15.2245 C.3       3 GLC5        0.0000 
     11 CA        -33.3690   36.5220   14.0880 C.3       9 GLL5        0.0000 
     12 CA        -35.6540   39.5590   16.3610 C.3       6 GLP5        0.0000 
     13 CA        -32.2360   34.9740   14.3465 C.3       3 GLC5        0.0000 
     14 O         -32.8730   35.9305   16.5005 O.2       1 ALC1        0.0000 
     15 O         -33.9980   35.1470   16.3210 O.2       7 ALL1        0.0000 
     16 O         -31.7480   36.7140   16.6800 O.2       4 ALP1        0.0000 
     17 OD1       -33.0155   35.8940   18.7435 O.co2     2 ASC3        0.0000 
     18 OD1       -34.3020   34.5030   17.4480 O.co2     8 ASL3        0.0000 
     19 OD1       -32.2100   36.9290   18.8560 O.co2     5 ASP3        0.0000 
     20 OD1       -32.7845   35.7865   17.6555 O.co2     2 ASC3        0.0000 
     21 OD1       -31.7480   36.7140   16.6800 O.co2     5 ASP3        0.0000 
     22 OD1       -33.0210   33.4715   17.2285 O.co2     2 ASC3        0.0000 
     23 OD1       -31.7400   32.4400   17.0090 O.co2     5 ASP3        0.0000 
     24 O         -33.0155   35.8940   18.7435 O.2       1 ALC1        0.0000 
     25 O         -33.8210   34.8590   18.6310 O.2       7 ALL1        0.0000 
     26 O         -32.2100   36.9290   18.8560 O.2       4 ALP1        0.0000 
     27 O         -32.7845   35.7865   17.6555 O.2       1 ALC1        0.0000 
     28 CA        -38.9915   32.3025    9.5415 C.3       3 GLC5        0.0000 
     29 CA        -38.0300   31.0540    8.0580 C.3       9 GLL5        0.0000 
     30 CA        -39.9530   33.5510   11.0250 C.3       6 GLP5        0.0000 
     31 CA        -37.2945   29.3400    7.8515 C.3       3 GLC5        0.0000 
     32 CA        -36.5590   27.6260    7.6450 C.3       6 GLP5        0.0000 
     33 CA        -38.0312   33.4772   11.0250 C.3       3 GLC5        0.0000 
     34 CA        -36.1900   33.8100   10.4610 C.3       9 GLL5        0.0000 
     35 CA        -34.8120   34.1082    8.7775 C.3       3 GLC5        0.0000 
     36 CA        -33.6830   33.7530    7.0640 C.3       6 GLP5        0.0000 
     37 CA        -34.1478   32.9062   10.7945 C.3       3 GLC5        0.0000 
     38 CA        -32.1860   32.4090   10.5640 C.3       6 GLP5        0.0000 
     39 CA        -33.6795   33.2592   11.6753 C.3       3 GLC5        0.0000 
     40 CA        -37.0162   34.3515   13.3160 C.3       3 GLC5        0.0000 
     41 CA        -38.7080   34.7090   14.1380 C.3       6 GLP5        0.0000 
     42 CA        -35.8663   36.8833   10.6583 C.3       3 GLC5        0.0000 
     43 CA        -36.3390   38.4190   10.2130 C.3       6 GLP5        0.0000 
     44 CA        -33.4603   34.5643   10.7442 C.3       3 GLC5        0.0000 
     45 CA        -35.6920   35.1170   10.5210 C.3       9 GLL5        0.0000 
     46 CA        -31.5270   33.7810   10.3850 C.3       6 GLP5        0.0000 
     47 CA        -41.4541   32.0219    5.4371 C.3       3 GLC5        0.0000 
     48 CA        -39.1050   31.0250    6.1170 C.3       9 GLL5        0.0000 
     49 CA        -43.1400   32.8000    6.0970 C.3       6 GLP5        0.0000 
     50 CA        -38.5435   30.8945    3.5940 C.3       3 GLC5        0.0000 
     51 CA        -40.0610   31.6360    4.0030 C.3       9 GLL5        0.0000 
     52 CA        -37.2840   29.5110    3.1030 C.3       6 GLP5        0.0000 
     53 CA        -40.7927   34.0275    4.8727 C.3       3 GLC5        0.0000 
     54 CA        -39.5450   32.9200    4.1670 C.3       9 GLL5        0.0000 
     55 CA        -42.4120   34.9600    5.0080 C.3       6 GLP5        0.0000 
     56 CA        -39.5403   34.8150    3.8718 C.3       3 GLC5        0.0000 
     57 CA        -39.9070   36.5350    3.0060 C.3       6 GLP5        0.0000 
     58 CA        -39.6585   33.8055    7.5659 C.3       3 GLC5        0.0000 
     59 CA        -38.8020   33.2700    5.3080 C.3       9 GLL5        0.0000 
     60 CA        -40.7930   34.8160    9.0300 C.3       6 GLP5        0.0000 
     61 CA        -38.1571   30.5469    4.5106 C.3       3 GLC5        0.0000 
     62 CA        -38.5850   32.3140    6.2850 C.3       9 GLL5        0.0000 
     63 CA        -36.3709   31.6765    7.0107 C.3       3 GLC5        0.0000 
     64 CA        -34.4650   31.3510    6.9880 C.3       6 GLP5        0.0000 
@<TRIPOS>BOND
@<TRIPOS>SUBSTRUCTURE
     1 ALC1       14 GROUP        1 X    ALC  0     ROOT ALC X 1
     2 ASC3       17 GROUP        1 X    ASC  0     **** ASC X 3
     3 GLC5        1 GROUP        1 X    GLC  0     **** GLC X 6
     4 ALP1       16 GROUP        1 Y    ALP  0     ROOT ALP Y 8
     5 ASP3       19 GROUP        1 Y    ASP  0     **** ASP Y 10
     6 GLP5        3 GROUP        1 Y    GLP  0     **** GLP Y 13
     7 ALL1       15 GROUP        1 Z    ALL  0     ROOT ALL Z 15
     8 ASL3       18 GROUP        1 Z    ASL  0     **** ASL Z 17
     9 GLL5        2 GROUP        1 Z    GLL  0     **** GLL Z 20
@<TRIPOS>SET

