#    Name: 2ycs_NXP_1_ligand
#    Modification time : Tue Mar 25 08:41:30 2014

@<TRIPOS>MOLECULE
2ycs_NXP_1_ligand
   44    46     1     0     0
SMALL
NO_CHARGES


@<TRIPOS>ATOM
      1 NAB       -36.8530   33.1920    9.3580 N.am      1 NXP600      0.0000 
      2 CAP       -36.1900   33.8100   10.4610 C.ar      1 NXP600      0.0000 
      3 CAU       -36.0290   32.9970   11.5890 C.ar      1 NXP600      0.0000 
      4 CAT       -35.4230   33.4590   12.7590 C.ar      1 NXP600      0.0000 
      5 CAS       -34.9230   34.7600   12.8140 C.ar      1 NXP600      0.0000 
      6 CAR       -35.0950   35.5780   11.6860 C.ar      1 NXP600      0.0000 
      7 CAQ       -35.6920   35.1170   10.5210 C.ar      1 NXP600      0.0000 
      8 CAV       -34.2680   35.3010   14.0690 C.2       1 NXP600      0.0000 
      9 CAW       -33.3690   36.5220   14.0880 C.3       1 NXP600      0.0000 
     10 NAC       -34.4920   34.7090   15.2450 N.2       1 NXP600      0.0000 
     11 NAD       -33.9980   35.1470   16.3210 N.pl3     1 NXP600      0.0000 
     12 CAX       -34.3020   34.5030   17.4480 C.cat     1 NXP600      0.0000 
     13 NAF       -35.1050   33.4640   17.3830 N.pl3     1 NXP600      0.0000 
     14 NAE       -33.8210   34.8590   18.6310 N.pl3     1 NXP600      0.0000 
     15 OAY       -36.9110   34.5820    7.5730 O.2       1 NXP600      0.0000 
     16 CAO       -37.1830   33.5090    8.1120 C.2       1 NXP600      0.0000 
     17 CAN       -37.9070   32.3260    7.5060 C.2       1 NXP600      0.0000 
     18 CAM       -38.0300   31.0540    8.0580 C.2       1 NXP600      0.0000 
     19 NAA       -38.7540   30.2930    7.1970 N.pl3     1 NXP600      0.0000 
     20 CAJ       -39.1050   31.0250    6.1170 C.ar      1 NXP600      0.0000 
     21 CAI       -39.8460   30.6780    4.9860 C.ar      1 NXP600      0.0000 
     22 CAH       -40.0610   31.6360    4.0030 C.ar      1 NXP600      0.0000 
     23 CAG       -39.5450   32.9200    4.1670 C.ar      1 NXP600      0.0000 
     24 CAL       -38.8020   33.2700    5.3080 C.ar      1 NXP600      0.0000 
     25 CAK       -38.5850   32.3140    6.2850 C.ar      1 NXP600      0.0000 
     26 H         -37.1824   32.1222    9.6612 H         1 NXP600      0.0000 
     27 H         -36.3732   32.0148   11.5529 H         1 NXP600      0.0000 
     28 H         -35.3460   32.8432   13.5752 H         1 NXP600      0.0000 
     29 H         -34.7606   36.5643   11.7318 H         1 NXP600      0.0000 
     30 H         -35.7709   35.7298    9.7009 H         1 NXP600      0.0000 
     31 H         -33.3705   35.9807   16.3630 H         1 NXP600      0.0000 
     32 H         -35.2734   32.9835   18.2437 H         1 NXP600      0.0000 
     33 H         -35.4741   33.2490   16.4788 H         1 NXP600      0.0000 
     34 H         -34.0867   34.2843   19.4051 H         1 NXP600      0.0000 
     35 H         -33.2360   35.6700   18.6422 H         1 NXP600      0.0000 
     36 H         -37.6632   30.7841    8.8947 H         1 NXP600      0.0000 
     37 H         -38.9841   29.3579    7.3406 H         1 NXP600      0.0000 
     38 H         -40.2224   29.7351    4.8856 H         1 NXP600      0.0000 
     39 H         -40.5964   31.4013    3.1604 H         1 NXP600      0.0000 
     40 H         -39.7092   33.6347    3.4366 H         1 NXP600      0.0000 
     41 H         -38.4332   34.2154    5.4049 H         1 NXP600      0.0000 
     42 H         -33.0297   36.7191   15.0078 H         1 NXP600      0.0000 
     43 H         -32.5691   36.4035   13.4997 H         1 NXP600      0.0000 
     44 H         -33.8476   37.3406   13.7705 H         1 NXP600      0.0000 
@<TRIPOS>BOND
     1    2    1 1    
     2   16    1 am   
     3   26    1 1    
     4    3    2 ar   
     5    7    2 ar   
     6    4    3 ar   
     7   27    3 1    
     8    5    4 ar   
     9   28    4 1    
    10    6    5 ar   
    11    8    5 1    
    12    7    6 ar   
    13   29    6 1    
    14   30    7 1    
    15    9    8 1    
    16   10    8 2    
    17   42    9 1    
    18   43    9 1    
    19   44    9 1    
    20   11   10 1    
    21   12   11 ar   
    22   31   11 1    
    23   13   12 ar   
    24   14   12 ar   
    25   32   13 1    
    26   33   13 1    
    27   34   14 1    
    28   35   14 1    
    29   16   15 2    
    30   17   16 1    
    31   18   17 2    
    32   25   17 1    
    33   19   18 1    
    34   36   18 1    
    35   20   19 1    
    36   37   19 1    
    37   21   20 ar   
    38   25   20 ar   
    39   22   21 ar   
    40   38   21 1    
    41   23   22 ar   
    42   39   22 1    
    43   24   23 ar   
    44   40   23 1    
    45   25   24 ar   
    46   41   24 1    
@<TRIPOS>SUBSTRUCTURE
     1 NXP600      1 GROUP   
@<TRIPOS>SET

