#    Name: 1uyk_PUX_1_INTS_M
#    Modification time : Tue Mar 25 07:20:01 2014

@<TRIPOS>MOLECULE
1uyk_PUX_1_INTS_M
   50     0     6     0     0
SMALL
NO_CHARGES


@<TRIPOS>ATOM
      1 CA          2.8295   10.8785   27.2080 C.3       2 GLC5        0.0000 
      2 CA          3.2200    9.2470   26.2410 C.3       6 GLL5        0.0000 
      3 CA          2.4390   12.5100   28.1750 C.3       4 GLP5        0.0000 
      4 CA         -0.1670   10.0175   23.0400 C.3       2 GLC5        0.0000 
      5 CA          0.0060   10.6760   25.1210 C.3       6 GLL5        0.0000 
      6 CA         -0.3400    9.3590   20.9590 C.3       4 GLP5        0.0000 
      7 CA         -2.4695    9.3405   25.9135 C.3       2 GLC5        0.0000 
      8 CA         -1.3120   10.8640   25.4670 C.3       6 GLL5        0.0000 
      9 CA         -3.6270    7.8170   26.3600 C.3       4 GLP5        0.0000 
     10 CA         -1.5250   12.7405   25.9470 C.3       2 GLC5        0.0000 
     11 CA         -1.7380   14.6170   26.4270 C.3       4 GLP5        0.0000 
     12 O          -3.6585   11.6935   24.5340 O.2       1 ALC1        0.0000 
     13 O          -2.1950   11.5520   24.6520 O.2       5 ALL1        0.0000 
     14 O          -5.1220   11.8350   24.4160 O.2       3 ALP1        0.0000 
     15 CA          5.0490   15.7810   27.7280 C.3       2 GLC5        0.0000 
     16 CA          5.3560   15.8990   25.8170 C.3       6 GLL5        0.0000 
     17 CA          4.7420   15.6630   29.6390 C.3       4 GLP5        0.0000 
     18 CA          4.9410   16.2810   23.7580 C.3       2 GLC5        0.0000 
     19 CA          4.5260   16.6630   21.6990 C.3       4 GLP5        0.0000 
     20 CA          3.5820   17.0990   25.1310 C.3       2 GLC5        0.0000 
     21 CA          1.8080   18.2990   24.4450 C.3       4 GLP5        0.0000 
     22 CA          6.3335   17.2645   25.9585 C.3       2 GLC5        0.0000 
     23 CA          7.3110   18.6300   26.1000 C.3       4 GLP5        0.0000 
     24 CA          5.3320    8.2085   26.3148 C.3       2 GLC5        0.0000 
     25 CA          4.0100    7.1350   24.8390 C.3       6 GLL5        0.0000 
     26 CA          5.9620    9.0200   27.9760 C.3       4 GLP5        0.0000 
     27 CA          4.6333    8.7527   27.0790 C.3       2 GLC5        0.0000 
     28 CA          3.3890    7.7240   26.1230 C.3       6 GLL5        0.0000 
     29 CA          1.4272   11.4258   26.8807 C.3       2 GLC5        0.0000 
     30 CA          0.8250   10.0070   26.0520 C.3       6 GLL5        0.0000 
     31 CA         -2.5157    8.6760   27.3390 C.3       2 GLC5        0.0000 
     32 CA         -0.9760    9.6780   27.6180 C.3       6 GLL5        0.0000 
     33 CA         -1.9828    8.3060   29.3745 C.3       2 GLC5        0.0000 
     34 CA         -2.5610    7.0770   30.4310 C.3       4 GLP5        0.0000 
     35 CA         -2.0777   10.4310   29.6825 C.3       2 GLC5        0.0000 
     36 CA         -1.8330    9.3920   29.0180 C.3       6 GLL5        0.0000 
     37 CA         -2.7510   11.3270   31.0470 C.3       4 GLP5        0.0000 
     38 CA          0.1437   10.6370   28.9445 C.3       2 GLC5        0.0000 
     39 CA          1.6920   11.7390   29.5710 C.3       4 GLP5        0.0000 
     40 CA          4.3247   11.9877   22.0637 C.3       2 GLC5        0.0000 
     41 CA          3.3060   10.7450   23.2830 C.3       6 GLL5        0.0000 
     42 CA          4.9240   12.6490   20.5870 C.3       4 GLP5        0.0000 
     43 CA          3.2098   13.0262   26.3735 C.3       2 GLC5        0.0000 
     44 CA          3.5400   13.0490   24.3440 C.3       6 GLL5        0.0000 
     45 CA          5.4530   12.7432   26.3697 C.3       2 GLC5        0.0000 
     46 CA          4.4210   14.0360   24.8000 C.3       6 GLL5        0.0000 
     47 CA          5.8070   11.5180   27.9700 C.3       4 GLP5        0.0000 
     48 CA          5.8918   11.8953   25.9877 C.3       2 GLC5        0.0000 
     49 CA          6.4250   12.7800   24.2490 C.3       6 GLL5        0.0000 
     50 CA          5.1758   12.8231   22.4588 C.3       2 GLC5        0.0000 
@<TRIPOS>BOND
@<TRIPOS>SUBSTRUCTURE
     1 ALC1       12 GROUP        1 X    ALC  0     ROOT ALC X 1
     2 GLC5        1 GROUP        1 X    GLC  0     **** GLC X 6
     3 ALP1       14 GROUP        1 Y    ALP  0     ROOT ALP Y 8
     4 GLP5        3 GROUP        1 Y    GLP  0     **** GLP Y 13
     5 ALL1       13 GROUP        1 Z    ALL  0     ROOT ALL Z 15
     6 GLL5        2 GROUP        1 Z    GLL  0     **** GLL Z 20
@<TRIPOS>SET

