#    Name: 1uyk_PUX_1_ligand
#    Modification time : Tue Mar 25 07:20:01 2014

@<TRIPOS>MOLECULE
1uyk_PUX_1_ligand
   43    46     1     0     0
SMALL
NO_CHARGES


@<TRIPOS>ATOM
      1 C18         5.3940    7.6590   24.4680 C.3       1 PUX1224     0.0000 
      2 C17         4.0100    7.1350   24.8390 C.3       1 PUX1224     0.0000 
      3 C16         3.3890    7.7240   26.1230 C.3       1 PUX1224     0.0000 
      4 C15         3.2200    9.2470   26.2410 C.3       1 PUX1224     0.0000 
      5 N2          2.0930    9.8900   25.5500 N.pl3     1 PUX1224     0.0000 
      6 C12         0.8250   10.0070   26.0520 C.ar      1 PUX1224     0.0000 
      7 N4          0.3140    9.5400   27.2570 N.ar      1 PUX1224     0.0000 
      8 C14        -0.9760    9.6780   27.6180 C.ar      1 PUX1224     0.0000 
      9 N3         -1.7200   10.3440   26.6920 N.ar      1 PUX1224     0.0000 
     10 C11         0.0060   10.6760   25.1210 C.ar      1 PUX1224     0.0000 
     11 C13        -1.3120   10.8640   25.4670 C.ar      1 PUX1224     0.0000 
     12 N5         -2.1950   11.5520   24.6520 N.pl3     1 PUX1224     0.0000 
     13 N1          0.7570   10.9790   24.0390 N.2       1 PUX1224     0.0000 
     14 C10         2.0730   10.5310   24.2650 C.2       1 PUX1224     0.0000 
     15 C9          3.3060   10.7450   23.2830 C.3       1 PUX1224     0.0000 
     16 C1          4.1450   11.9080   23.7980 C.ar      1 PUX1224     0.0000 
     17 C6          3.5400   13.0490   24.3440 C.ar      1 PUX1224     0.0000 
     18 C5          4.4210   14.0360   24.8000 C.ar      1 PUX1224     0.0000 
     19 C2          5.5280   11.7650   23.7620 C.ar      1 PUX1224     0.0000 
     20 O3          4.1730   15.2730   25.3690 O.3       1 PUX1224     0.0000 
     21 C3          6.4250   12.7800   24.2490 C.ar      1 PUX1224     0.0000 
     22 C4          5.7770   13.9010   24.7390 C.ar      1 PUX1224     0.0000 
     23 O1          6.3090   14.9930   25.2870 O.3       1 PUX1224     0.0000 
     24 C7          5.3560   15.8990   25.8170 C.3       1 PUX1224     0.0000 
     25 F          -1.8330    9.3920   29.0180 F         1 PUX1224     0.0000 
     26 H           4.0596    6.0322   24.9503 H         1 PUX1224     0.0000 
     27 H           3.3140    7.3259   23.9962 H         1 PUX1224     0.0000 
     28 H           3.9969    7.3682   26.9982 H         1 PUX1224     0.0000 
     29 H           2.3841    7.2453   26.2745 H         1 PUX1224     0.0000 
     30 H           4.1910    9.7165   25.9042 H         1 PUX1224     0.0000 
     31 H           3.1812    9.4929   27.3431 H         1 PUX1224     0.0000 
     32 H          -3.1389   11.6111   24.9769 H         1 PUX1224     0.0000 
     33 H          -1.8123   11.9302   23.8091 H         1 PUX1224     0.0000 
     34 H           2.9155   10.9650   22.3073 H         1 PUX1224     0.0000 
     35 H           3.8821    9.8389   23.2755 H         1 PUX1224     0.0000 
     36 H           2.5538   13.1486   24.4025 H         1 PUX1224     0.0000 
     37 H           5.9499   10.8994   23.3723 H         1 PUX1224     0.0000 
     38 H           7.3937   12.6622   24.2238 H         1 PUX1224     0.0000 
     39 H           5.4027   15.9275   26.8858 H         1 PUX1224     0.0000 
     40 H           5.4692   16.8732   25.3887 H         1 PUX1224     0.0000 
     41 H           6.0659    7.4735   25.1850 H         1 PUX1224     0.0000 
     42 H           5.7376    7.2383   23.6284 H         1 PUX1224     0.0000 
     43 H           5.3892    8.6479   24.3196 H         1 PUX1224     0.0000 
@<TRIPOS>BOND
     1    2    1 1    
     2   41    1 1    
     3   42    1 1    
     4   43    1 1    
     5    3    2 1    
     6   26    2 1    
     7   27    2 1    
     8    4    3 1    
     9   28    3 1    
    10   29    3 1    
    11    5    4 1    
    12   30    4 1    
    13   31    4 1    
    14    6    5 1    
    15   14    5 1    
    16    7    6 ar   
    17   10    6 ar   
    18    8    7 ar   
    19    9    8 ar   
    20   25    8 1    
    21   11    9 ar   
    22   11   10 ar   
    23   13   10 1    
    24   12   11 1    
    25   32   12 1    
    26   33   12 1    
    27   14   13 2    
    28   15   14 1    
    29   16   15 1    
    30   34   15 1    
    31   35   15 1    
    32   17   16 ar   
    33   19   16 ar   
    34   18   17 ar   
    35   36   17 1    
    36   20   18 1    
    37   22   18 ar   
    38   21   19 ar   
    39   37   19 1    
    40   24   20 1    
    41   22   21 ar   
    42   38   21 1    
    43   23   22 1    
    44   24   23 1    
    45   39   24 1    
    46   40   24 1    
@<TRIPOS>SUBSTRUCTURE
     1 PUX1224     1 GROUP   
@<TRIPOS>SET

