#    Name: 2r7m_AMP_1_INTS_M
#    Modification time : Mon Mar 24 23:18:55 2014

@<TRIPOS>MOLECULE
2r7m_AMP_1_INTS_M
   60     0    12     0     0
SMALL
NO_CHARGES


@<TRIPOS>ATOM
      1 NZ         14.5320   12.7170   36.6770 N.4       3 LYC4        0.0000 
      2 NZ         14.9680   11.8430   35.6620 N.4      11 LYL4        0.0000 
      3 NZ         14.0960   13.5910   37.6920 N.4       7 LYP4        0.0000 
      4 N          14.5320   12.7170   36.6770 N.am      2 SEC2        0.0000 
      5 N          14.9680   11.8430   35.6620 N.am     10 SEL2        0.0000 
      6 N          14.0960   13.5910   37.6920 N.am      6 SEP2        0.0000 
      7 CA         14.8850    8.6665   37.7060 C.3       4 GLC5        0.0000 
      8 CA         13.7620    8.3020   35.9640 C.3      12 GLL5        0.0000 
      9 CA         16.0080    9.0310   39.4480 C.3       8 GLP5        0.0000 
     10 CA         13.7065    6.5320   37.1110 C.3       4 GLC5        0.0000 
     11 CA         13.6510    4.7620   38.2580 C.3       8 GLP5        0.0000 
     12 CA         11.8160    6.6605   37.6815 C.3       4 GLC5        0.0000 
     13 CA         12.3020    8.0180   36.2630 C.3      12 GLL5        0.0000 
     14 CA         11.3300    5.3030   39.1000 C.3       8 GLP5        0.0000 
     15 CA         11.2450   10.3260   34.3980 C.3       4 GLC5        0.0000 
     16 CA         11.3830    8.7560   35.2970 C.3      12 GLL5        0.0000 
     17 CA         11.1070   11.8960   33.4990 C.3       8 GLP5        0.0000 
     18 O          10.7335    6.4940   34.7135 O.2       1 ALC1        0.0000 
     19 O          11.1460    8.0470   34.0740 O.2       9 ALL1        0.0000 
     20 O          10.3210    4.9410   35.3530 O.2       5 ALP1        0.0000 
     21 O          11.4920    6.8105   33.9855 O.2       1 ALC1        0.0000 
     22 O          11.8380    5.5740   33.8970 O.2       5 ALP1        0.0000 
     23 CA          9.9540   10.2770   34.6545 C.3       4 GLC5        0.0000 
     24 CA         10.1230    8.9350   36.1190 C.3      12 GLL5        0.0000 
     25 CA          9.7850   11.6190   33.1900 C.3       8 GLP5        0.0000 
     26 O           9.7970    6.3685   35.6655 O.2       1 ALC1        0.0000 
     27 O           9.2730    7.7960   35.9780 O.2       9 ALL1        0.0000 
     28 CA         11.3340    9.5465   39.4035 C.3       4 GLC5        0.0000 
     29 CA         10.6360    9.0500   37.5550 C.3      12 GLL5        0.0000 
     30 CA         12.0320   10.0430   41.2520 C.3       8 GLP5        0.0000 
     31 CA         10.9830    7.1765   38.3275 C.3       4 GLC5        0.0000 
     32 N          12.7710   13.0935   37.7775 N.am      2 SEC2        0.0000 
     33 N          11.4460   12.5960   37.8630 N.am     10 SEL2        0.0000 
     34 CA         12.4380   12.6090   38.6420 C.3       4 GLC5        0.0000 
     35 CA         10.2860   12.5830   38.5520 C.3      12 GLL5        0.0000 
     36 CA         14.5900   12.6350   38.7320 C.3       8 GLP5        0.0000 
     37 CA          8.5580   13.9745   41.2315 C.3       4 GLC5        0.0000 
     38 CA          9.4720   13.5830   39.2740 C.3      12 GLL5        0.0000 
     39 CA          7.6440   14.3660   43.1890 C.3       8 GLP5        0.0000 
     40 O          11.1740   15.2940   39.1640 O.2       1 ALC1        0.0000 
     41 O           9.8480   14.8830   39.3220 O.2       9 ALL1        0.0000 
     42 O          12.5000   15.7050   39.0060 O.2       5 ALP1        0.0000 
     43 O           9.5465   15.5605   40.6295 O.2       1 ALC1        0.0000 
     44 O           9.2450   16.2380   41.9370 O.2       5 ALP1        0.0000 
     45 N           7.3305   13.9310   40.5045 N.am      2 SEC2        0.0000 
     46 N           8.3270   13.1610   39.8470 N.am     10 SEL2        0.0000 
     47 N           6.3340   14.7010   41.1620 N.am      6 SEP2        0.0000 
     48 CA          7.7875   13.1190   41.4885 C.3       4 GLC5        0.0000 
     49 CA          7.9310   11.8720   39.7880 C.3      12 GLL5        0.0000 
     50 CA          6.5205   13.4345   40.1035 C.3       4 GLC5        0.0000 
     51 CA          5.1100   14.9970   40.4190 C.3       8 GLP5        0.0000 
     52 CA          7.1705   12.3620   38.1795 C.3       4 GLC5        0.0000 
     53 CA          6.4100   12.8520   36.5710 C.3       8 GLP5        0.0000 
     54 CA         10.9100   10.6205   39.8910 C.3       4 GLC5        0.0000 
     55 CA          9.7880   11.1980   38.5300 C.3      12 GLL5        0.0000 
     56 CA         10.8825   13.0335   40.5015 C.3       4 GLC5        0.0000 
     57 CA         11.8860   12.9840   42.0900 C.3       8 GLP5        0.0000 
     58 CA         10.3405   14.1515   37.1060 C.3       4 GLC5        0.0000 
     59 CA         10.8020   15.2200   35.2990 C.3       8 GLP5        0.0000 
     60 CA          8.1217   12.4962   37.6462 C.3       4 GLC5        0.0000 
@<TRIPOS>BOND
@<TRIPOS>SUBSTRUCTURE
     1 ALC1       18 GROUP        1 X    ALC  0     ROOT ALC X 1
     2 SEC2        4 GROUP        1 X    SEC  0     **** SEC X 2
     3 LYC4        1 GROUP        1 X    LYC  0     **** LYC X 4
     4 GLC5        7 GROUP        1 X    GLC  0     **** GLC X 6
     5 ALP1       20 GROUP        1 Y    ALP  0     ROOT ALP Y 8
     6 SEP2        6 GROUP        1 Y    SEP  0     **** SEP Y 9
     7 LYP4        3 GROUP        1 Y    LYP  0     **** LYP Y 11
     8 GLP5        9 GROUP        1 Y    GLP  0     **** GLP Y 13
     9 ALL1       19 GROUP        1 Z    ALL  0     ROOT ALL Z 15
    10 SEL2        5 GROUP        1 Z    SEL  0     **** SEL Z 16
    11 LYL4        2 GROUP        1 Z    LYL  0     **** LYL Z 18
    12 GLL5        8 GROUP        1 Z    GLL  0     **** GLL Z 20
@<TRIPOS>SET

