#    Name: 2r7m_AMP_1_ligand
#    Modification time : Mon Mar 24 23:18:55 2014

@<TRIPOS>MOLECULE
2r7m_AMP_1_ligand
   35    37     1     0     0
SMALL
NO_CHARGES


@<TRIPOS>ATOM
      1 P          15.0930   10.4330   35.1380 P.3       1 AMP400      0.0000 
      2 O1P        14.8270   10.3400   33.6550 O.co2     1 AMP400      0.0000 
      3 O2P        16.2560    9.6210   35.6340 O.co2     1 AMP400      0.0000 
      4 O3P        14.9680   11.8430   35.6620 O.co2     1 AMP400      0.0000 
      5 O5'        13.8510    9.7150   35.8580 O.3       1 AMP400      0.0000 
      6 C5'        13.7620    8.3020   35.9640 C.3       1 AMP400      0.0000 
      7 C4'        12.3020    8.0180   36.2630 C.3       1 AMP400      0.0000 
      8 O4'        11.9620    8.5240   37.5620 O.3       1 AMP400      0.0000 
      9 C3'        11.3830    8.7560   35.2970 C.3       1 AMP400      0.0000 
     10 O3'        11.1460    8.0470   34.0740 O.3       1 AMP400      0.0000 
     11 C2'        10.1230    8.9350   36.1190 C.3       1 AMP400      0.0000 
     12 O2'         9.2730    7.7960   35.9780 O.3       1 AMP400      0.0000 
     13 C1'        10.6360    9.0500   37.5550 C.3       1 AMP400      0.0000 
     14 N9         10.7010   10.4940   37.8610 N.pl3     1 AMP400      0.0000 
     15 C8         11.6840   11.3250   37.4610 C.2       1 AMP400      0.0000 
     16 N7         11.4460   12.5960   37.8630 N.2       1 AMP400      0.0000 
     17 C5         10.2860   12.5830   38.5520 C.ar      1 AMP400      0.0000 
     18 C6          9.4720   13.5830   39.2740 C.ar      1 AMP400      0.0000 
     19 N6          9.8480   14.8830   39.3220 N.pl3     1 AMP400      0.0000 
     20 N1          8.3270   13.1610   39.8470 N.ar      1 AMP400      0.0000 
     21 C2          7.9310   11.8720   39.7880 C.ar      1 AMP400      0.0000 
     22 N3          8.6260   10.9080   39.1600 N.ar      1 AMP400      0.0000 
     23 C4          9.7880   11.1980   38.5300 C.ar      1 AMP400      0.0000 
     24 H          14.3563    7.9141   36.7779 H         1 AMP400      0.0000 
     25 H          14.0219    7.8049   35.0412 H         1 AMP400      0.0000 
     26 H          12.1070    6.9768   36.1921 H         1 AMP400      0.0000 
     27 H          11.8046    9.7367   35.1426 H         1 AMP400      0.0000 
     28 H           9.6661    9.8468   35.8513 H         1 AMP400      0.0000 
     29 H           9.9865    8.5510   38.1947 H         1 AMP400      0.0000 
     30 H          12.4731   11.0476   36.9441 H         1 AMP400      0.0000 
     31 H          10.7112   15.1084   38.8702 H         1 AMP400      0.0000 
     32 H           9.2292   15.5025   39.8050 H         1 AMP400      0.0000 
     33 H           7.0149   11.6058   40.2673 H         1 AMP400      0.0000 
     34 H          11.5104    7.1293   34.2322 H         1 AMP400      0.0000 
     35 H           9.8937    7.0127   35.9433 H         1 AMP400      0.0000 
@<TRIPOS>BOND
     1    2    1 ar   
     2    3    1 ar   
     3    4    1 ar   
     4    5    1 1    
     5    6    5 1    
     6    7    6 1    
     7   24    6 1    
     8   25    6 1    
     9    8    7 1    
    10    9    7 1    
    11   26    7 1    
    12   13    8 1    
    13   10    9 1    
    14   11    9 1    
    15   27    9 1    
    16   34   10 1    
    17   12   11 1    
    18   13   11 1    
    19   28   11 1    
    20   35   12 1    
    21   14   13 1    
    22   29   13 1    
    23   15   14 1    
    24   23   14 1    
    25   16   15 2    
    26   30   15 1    
    27   17   16 1    
    28   18   17 ar   
    29   23   17 ar   
    30   19   18 1    
    31   20   18 ar   
    32   31   19 1    
    33   32   19 1    
    34   21   20 ar   
    35   22   21 ar   
    36   33   21 1    
    37   23   22 ar   
@<TRIPOS>SUBSTRUCTURE
     1 AMP400      1 GROUP   
@<TRIPOS>SET

