#    Name: 2vzm_NRB_2_INTS_M
#    Modification time : Tue Mar 25 03:23:59 2014

@<TRIPOS>MOLECULE
2vzm_NRB_2_INTS_M
   85     0     9     0     0
SMALL
NO_CHARGES


@<TRIPOS>ATOM
      1 CA         22.9655   17.2860   10.2640 C.3       3 GLC5        0.0000 
      2 CA         23.2300   17.9570   11.9710 C.3       9 GLL5        0.0000 
      3 CA         22.7010   16.6150    8.5570 C.3       6 GLP5        0.0000 
      4 CA         21.4570   18.7805   11.8625 C.3       3 GLC5        0.0000 
      5 CA         19.6840   19.6040   11.7540 C.3       6 GLP5        0.0000 
      6 CA         25.6625   17.7685   14.3390 C.3       3 GLC5        0.0000 
      7 CA         24.0240   17.1540   12.9720 C.3       9 GLL5        0.0000 
      8 CA         27.3010   18.3830   15.7060 C.3       6 GLP5        0.0000 
      9 CA         22.8450   14.6480   11.0835 C.3       3 GLC5        0.0000 
     10 CA         20.8890   15.3180   11.5130 C.3       9 GLL5        0.0000 
     11 CA         24.8010   13.9780   10.6540 C.3       6 GLP5        0.0000 
     12 CA         18.2620   15.8685   12.8465 C.3       3 GLC5        0.0000 
     13 CA         19.6720   16.1650   11.2160 C.3       9 GLL5        0.0000 
     14 CA         16.8520   15.5720   14.4770 C.3       6 GLP5        0.0000 
     15 CA         18.2460   15.1660   10.1785 C.3       3 GLC5        0.0000 
     16 CA         18.0740   13.8170   11.5840 C.3       9 GLL5        0.0000 
     17 CA         18.4180   16.5150    8.7730 C.3       6 GLP5        0.0000 
     18 CA         13.5655   10.5675   11.5435 C.3       3 GLC5        0.0000 
     19 CA         15.2460   10.6360   12.6480 C.3       9 GLL5        0.0000 
     20 CA         11.8850   10.4990   10.4390 C.3       6 GLP5        0.0000 
     21 CA         14.5650   11.3305   14.5025 C.3       3 GLC5        0.0000 
     22 CA         13.8840   12.0250   16.3570 C.3       6 GLP5        0.0000 
     23 CA         14.1135    9.2160   13.0215 C.3       3 GLC5        0.0000 
     24 CA         12.9810    7.7960   13.3950 C.3       6 GLP5        0.0000 
     25 CA         14.2905   12.4460   11.9370 C.3       3 GLC5        0.0000 
     26 CA         13.3350   14.2560   11.2260 C.3       6 GLP5        0.0000 
     27 OD1        18.0115   10.5075    7.4890 O.co2     2 ASC3        0.0000 
     28 OD1        17.8040    9.3810    8.4640 O.co2     8 ASL3        0.0000 
     29 OD1        18.2190   11.6340    6.5140 O.co2     5 ASP3        0.0000 
     30 OD1        18.8510    9.8020    7.6625 O.co2     2 ASC3        0.0000 
     31 OD1        19.8980   10.2230    6.8610 O.co2     5 ASP3        0.0000 
     32 O          18.0115   10.5075    7.4890 O.2       1 ALC1        0.0000 
     33 O          17.8040    9.3810    8.4640 O.2       7 ALL1        0.0000 
     34 O          18.2190   11.6340    6.5140 O.2       4 ALP1        0.0000 
     35 O          18.8510    9.8020    7.6625 O.2       1 ALC1        0.0000 
     36 O          19.8980   10.2230    6.8610 O.2       4 ALP1        0.0000 
     37 CA         20.1455    7.3140    7.8370 C.3       3 GLC5        0.0000 
     38 CA         18.6050    8.1930    8.7730 C.3       9 GLL5        0.0000 
     39 CA         21.6860    6.4350    6.9010 C.3       6 GLP5        0.0000 
     40 CA         18.1940    6.8520    7.2890 C.3       3 GLC5        0.0000 
     41 CA         17.7830    5.5110    5.8050 C.3       6 GLP5        0.0000 
     42 CA         17.2165    6.6865    9.3885 C.3       3 GLC5        0.0000 
     43 CA         15.8280    5.1800   10.0040 C.3       6 GLP5        0.0000 
     44 CA         17.1485    7.2795    6.8355 C.3       3 GLC5        0.0000 
     45 CA         16.5140    9.0480    7.8660 C.3       9 GLL5        0.0000 
     46 CA         15.9465    7.1685    8.2160 C.3       3 GLC5        0.0000 
     47 CA         15.3790    5.2890    8.5660 C.3       6 GLP5        0.0000 
     48 CA         14.6135    9.9405    7.9810 C.3       3 GLC5        0.0000 
     49 CA         12.7130   10.8330    8.0960 C.3       6 GLP5        0.0000 
     50 CA         16.4050    9.2100    6.0145 C.3       3 GLC5        0.0000 
     51 CA         16.2960    9.3720    4.1630 C.3       6 GLP5        0.0000 
     52 CA         17.7200   11.1870   16.6940 C.3       3 GLC5        0.0000 
     53 CA         18.5390   12.0060   15.4000 C.3       9 GLL5        0.0000 
     54 CA         16.9010   10.3680   17.9880 C.3       6 GLP5        0.0000 
     55 CA         23.0720   11.3720   14.4325 C.3       3 GLC5        0.0000 
     56 CA         20.9770   11.5480   14.9360 C.3       9 GLL5        0.0000 
     57 CA         25.1670   11.1960   13.9290 C.3       6 GLP5        0.0000 
     58 CA         23.8420   10.9320   15.3145 C.3       3 GLC5        0.0000 
     59 CA         22.5170   10.6680   16.7000 C.3       9 GLL5        0.0000 
     60 CA         23.9590   12.4600   14.9580 C.3       3 GLC5        0.0000 
     61 CA         22.7510   13.7240   15.9870 C.3       9 GLL5        0.0000 
     62 CA         23.6070   13.9525   17.5340 C.3       3 GLC5        0.0000 
     63 CA         24.4630   14.1810   19.0810 C.3       6 GLP5        0.0000 
     64 CA         25.5380   17.1175   15.4370 C.3       3 GLC5        0.0000 
     65 CA         23.7750   15.8520   15.1680 C.3       9 GLL5        0.0000 
     66 CA         26.8710   15.7750   14.7700 C.3       3 GLC5        0.0000 
     67 CA         25.0020   15.0290   14.8150 C.3       9 GLL5        0.0000 
     68 CA         28.7400   16.5210   14.7250 C.3       6 GLP5        0.0000 
     69 CA         24.9015   14.5035   12.7345 C.3       3 GLC5        0.0000 
     70 CA         25.6530   13.4390   15.0110 C.3       3 GLC5        0.0000 
     71 CA         26.3040   11.8490   15.2070 C.3       6 GLP5        0.0000 
     72 CA         24.0812   15.4721   11.9234 C.3       3 GLC5        0.0000 
     73 CA         23.0960   16.3770   13.9140 C.3       9 GLL5        0.0000 
     74 CA         21.4908   16.1782    9.9608 C.3       3 GLC5        0.0000 
     75 CA         19.3493   16.1283   10.0687 C.3       3 GLC5        0.0000 
     76 CA         19.9823   17.6728   11.5592 C.3       3 GLC5        0.0000 
     77 CA         17.7820   14.6558   13.2380 C.3       3 GLC5        0.0000 
     78 CA         19.3500   13.6620   12.4140 C.3       9 GLL5        0.0000 
     79 CA         17.9535   13.8931   14.5704 C.3       3 GLC5        0.0000 
     80 CA         19.3540   12.3970   13.2040 C.3       9 GLL5        0.0000 
     81 CA         23.7308   17.8614   15.4558 C.3       3 GLC5        0.0000 
     82 CA         23.7940   19.4140   16.6060 C.3       6 GLP5        0.0000 
     83 CA         24.4058   15.4584   16.9986 C.3       3 GLC5        0.0000 
     84 CA         22.7470   15.0570   15.9550 C.3       9 GLL5        0.0000 
     85 CA         24.6800   15.6750   18.8090 C.3       6 GLP5        0.0000 
@<TRIPOS>BOND
@<TRIPOS>SUBSTRUCTURE
     1 ALC1       32 GROUP        1 X    ALC  0     ROOT ALC X 1
     2 ASC3       27 GROUP        1 X    ASC  0     **** ASC X 3
     3 GLC5        1 GROUP        1 X    GLC  0     **** GLC X 6
     4 ALP1       34 GROUP        1 Y    ALP  0     ROOT ALP Y 8
     5 ASP3       29 GROUP        1 Y    ASP  0     **** ASP Y 10
     6 GLP5        3 GROUP        1 Y    GLP  0     **** GLP Y 13
     7 ALL1       33 GROUP        1 Z    ALL  0     ROOT ALL Z 15
     8 ASL3       28 GROUP        1 Z    ASL  0     **** ASL Z 17
     9 GLL5        2 GROUP        1 Z    GLL  0     **** GLL Z 20
@<TRIPOS>SET

