#    Name: 2vzm_NRB_2_ligand
#    Modification time : Tue Mar 25 03:23:59 2014

@<TRIPOS>MOLECULE
2vzm_NRB_2_ligand
   84    85     1     0     0
SMALL
NO_CHARGES


@<TRIPOS>ATOM
      1 C1         23.2300   17.9570   11.9710 C.3       1 NRB1408     0.0000 
      2 C2         24.0240   17.1540   12.9720 C.3       1 NRB1408     0.0000 
      3 C3         23.0960   16.3770   13.9140 C.3       1 NRB1408     0.0000 
      4 O1         22.5960   15.2330   13.2600 O.3       1 NRB1408     0.0000 
      5 C4         21.2370   15.5040   12.9280 C.2       1 NRB1408     0.0000 
      6 O2         20.4250   15.8810   13.7650 O.2       1 NRB1408     0.0000 
      7 C5         20.8890   15.3180   11.5130 C.3       1 NRB1408     0.0000 
      8 C6         19.6720   16.1650   11.2160 C.3       1 NRB1408     0.0000 
      9 C7         20.5270   13.9070   11.5070 C.2       1 NRB1408     0.0000 
     10 O3         21.1190   13.1040   10.8230 O.2       1 NRB1408     0.0000 
     11 C8         19.3500   13.6620   12.4140 C.3       1 NRB1408     0.0000 
     12 C9         18.0740   13.8170   11.5840 C.3       1 NRB1408     0.0000 
     13 C10        19.3540   12.3970   13.2040 C.3       1 NRB1408     0.0000 
     14 O4         19.9120   11.4140   12.3890 O.3       1 NRB1408     0.0000 
     15 C11        18.7240   11.3300   11.5900 C.3       1 NRB1408     0.0000 
     16 O5         17.6000   10.9260   12.3980 O.3       1 NRB1408     0.0000 
     17 C12        16.3810   10.8560   11.6460 C.3       1 NRB1408     0.0000 
     18 C13        15.2460   10.6360   12.6480 C.3       1 NRB1408     0.0000 
     19 C14        16.5190    9.7950   10.5480 C.3       1 NRB1408     0.0000 
     20 C15        17.6020   10.3120    9.5990 C.3       1 NRB1408     0.0000 
     21 N1         17.8040    9.3810    8.4640 N.4       1 NRB1408     0.0000 
     22 C16        18.6050    8.1930    8.7730 C.3       1 NRB1408     0.0000 
     23 C17        16.5140    9.0480    7.8660 C.3       1 NRB1408     0.0000 
     24 C18        18.8820   10.3460   10.4460 C.3       1 NRB1408     0.0000 
     25 O6         20.0530   10.6980    9.7170 O.3       1 NRB1408     0.0000 
     26 C19        19.7880   12.4480   14.6510 C.3       1 NRB1408     0.0000 
     27 C20        18.5390   12.0060   15.4000 C.3       1 NRB1408     0.0000 
     28 C21        20.9770   11.5480   14.9360 C.3       1 NRB1408     0.0000 
     29 C22        21.3430   11.6120   16.4160 C.3       1 NRB1408     0.0000 
     30 C23        22.5170   10.6680   16.7000 C.3       1 NRB1408     0.0000 
     31 C24        21.7110   13.0250   16.7670 C.2       1 NRB1408     0.0000 
     32 O7         21.1500   13.6250   17.6700 O.2       1 NRB1408     0.0000 
     33 C25        22.7510   13.7240   15.9870 C.2       1 NRB1408     0.0000 
     34 C26        22.7470   15.0570   15.9550 C.2       1 NRB1408     0.0000 
     35 C27        23.7750   15.8520   15.1680 C.3       1 NRB1408     0.0000 
     36 C28        25.0020   15.0290   14.8150 C.3       1 NRB1408     0.0000 
     37 H          24.6505   17.8206   13.5666 H         1 NRB1408     0.0000 
     38 H          24.6680   16.4452   12.4494 H         1 NRB1408     0.0000 
     39 H          22.2835   17.0227   14.2170 H         1 NRB1408     0.0000 
     40 H          21.6783   15.5265   10.8984 H         1 NRB1408     0.0000 
     41 H          19.3220   14.5251   13.1401 H         1 NRB1408     0.0000 
     42 H          18.2017   12.1250   13.2529 H         1 NRB1408     0.0000 
     43 H          18.5051   12.3074   11.1418 H         1 NRB1408     0.0000 
     44 H          16.2106   11.8262   11.1615 H         1 NRB1408     0.0000 
     45 H          15.5944    9.7016   10.0224 H         1 NRB1408     0.0000 
     46 H          16.8312    8.8704   10.9811 H         1 NRB1408     0.0000 
     47 H          17.3700   11.2840    9.2897 H         1 NRB1408     0.0000 
     48 H          18.3710    9.9704    7.6746 H         1 NRB1408     0.0000 
     49 H          19.0000    9.3532   10.9036 H         1 NRB1408     0.0000 
     50 H          19.9968   13.4595   14.9122 H         1 NRB1408     0.0000 
     51 H          21.8285   11.8719   14.3424 H         1 NRB1408     0.0000 
     52 H          20.7281   10.5228   14.6729 H         1 NRB1408     0.0000 
     53 H          20.4977   11.3023   16.9954 H         1 NRB1408     0.0000 
     54 H          23.4310   13.1398   15.5043 H         1 NRB1408     0.0000 
     55 H          22.0537   15.6408   16.4564 H         1 NRB1408     0.0000 
     56 H          24.0773   16.7056   15.7655 H         1 NRB1408     0.0000 
     57 H          23.8241   18.4681   11.3499 H         1 NRB1408     0.0000 
     58 H          22.6472   17.3736   11.4053 H         1 NRB1408     0.0000 
     59 H          22.6324   18.6222   12.4187 H         1 NRB1408     0.0000 
     60 H          19.8456   17.1357   11.3822 H         1 NRB1408     0.0000 
     61 H          19.3826   16.0780   10.2628 H         1 NRB1408     0.0000 
     62 H          18.8912   15.9054   11.7843 H         1 NRB1408     0.0000 
     63 H          17.9963   14.7327   11.1898 H         1 NRB1408     0.0000 
     64 H          18.0439   13.1673   10.8244 H         1 NRB1408     0.0000 
     65 H          17.2526   13.6638   12.1335 H         1 NRB1408     0.0000 
     66 H          15.3668    9.7891   13.1659 H         1 NRB1408     0.0000 
     67 H          15.1882   11.3806   13.3130 H         1 NRB1408     0.0000 
     68 H          14.3565   10.5781   12.1948 H         1 NRB1408     0.0000 
     69 H          19.5244    8.4353    9.0829 H         1 NRB1408     0.0000 
     70 H          18.1880    7.6415    9.4955 H         1 NRB1408     0.0000 
     71 H          18.7115    7.5991    7.9755 H         1 NRB1408     0.0000 
     72 H          16.6133    8.4188    7.0951 H         1 NRB1408     0.0000 
     73 H          15.9013    8.6106    8.5243 H         1 NRB1408     0.0000 
     74 H          16.0431    9.8605    7.5224 H         1 NRB1408     0.0000 
     75 H          18.2501   11.0873   15.1308 H         1 NRB1408     0.0000 
     76 H          18.6855   11.9891   16.3891 H         1 NRB1408     0.0000 
     77 H          17.7670   12.6180   15.2285 H         1 NRB1408     0.0000 
     78 H          23.3280   10.9138   16.1691 H         1 NRB1408     0.0000 
     79 H          22.7818   10.6843   17.6642 H         1 NRB1408     0.0000 
     80 H          22.2944    9.7198   16.4732 H         1 NRB1408     0.0000 
     81 H          25.6751   15.5654   14.3059 H         1 NRB1408     0.0000 
     82 H          25.4623   14.6797   15.6312 H         1 NRB1408     0.0000 
     83 H          24.7686   14.2383   14.2491 H         1 NRB1408     0.0000 
     84 H          20.3749   11.5459   10.1383 H         1 NRB1408     0.0000 
@<TRIPOS>BOND
     1    2    1 1    
     2   57    1 1    
     3   58    1 1    
     4   59    1 1    
     5    3    2 1    
     6   37    2 1    
     7   38    2 1    
     8    4    3 1    
     9   35    3 1    
    10   39    3 1    
    11    5    4 1    
    12    6    5 2    
    13    7    5 1    
    14    8    7 1    
    15    9    7 1    
    16   40    7 1    
    17   60    8 1    
    18   61    8 1    
    19   62    8 1    
    20   10    9 2    
    21   11    9 1    
    22   12   11 1    
    23   13   11 1    
    24   41   11 1    
    25   63   12 1    
    26   64   12 1    
    27   65   12 1    
    28   14   13 1    
    29   26   13 1    
    30   42   13 1    
    31   15   14 1    
    32   16   15 1    
    33   24   15 1    
    34   43   15 1    
    35   17   16 1    
    36   18   17 1    
    37   19   17 1    
    38   44   17 1    
    39   66   18 1    
    40   67   18 1    
    41   68   18 1    
    42   20   19 1    
    43   45   19 1    
    44   46   19 1    
    45   21   20 1    
    46   24   20 1    
    47   47   20 1    
    48   22   21 1    
    49   23   21 1    
    50   48   21 1    
    51   69   22 1    
    52   70   22 1    
    53   71   22 1    
    54   72   23 1    
    55   73   23 1    
    56   74   23 1    
    57   25   24 1    
    58   49   24 1    
    59   84   25 1    
    60   27   26 1    
    61   28   26 1    
    62   50   26 1    
    63   75   27 1    
    64   76   27 1    
    65   77   27 1    
    66   29   28 1    
    67   51   28 1    
    68   52   28 1    
    69   30   29 1    
    70   31   29 1    
    71   53   29 1    
    72   78   30 1    
    73   79   30 1    
    74   80   30 1    
    75   32   31 2    
    76   33   31 1    
    77   34   33 2    
    78   54   33 1    
    79   35   34 1    
    80   55   34 1    
    81   36   35 1    
    82   56   35 1    
    83   81   36 1    
    84   82   36 1    
    85   83   36 1    
@<TRIPOS>SUBSTRUCTURE
     1 NRB1408     1 GROUP   
@<TRIPOS>SET

