#    Name: 1AHG_1_CAVITY_N1_ALL.mol2
#    Modification time : Mon Mar 10 13:11:27 2014

@<TRIPOS>MOLECULE
1AHG_1_CAVITY_N1_ALL.mol2
   66     0     7     0     0
SMALL
NO_CHARGES


@<TRIPOS>ATOM
      1 NZ         -5.0731   59.0046   26.6123 N.2       4 LYS4        0.0000 
      2 O          -6.2921   58.3268   26.0602 O.2       2 ALA2        0.0000 
      3 O          -8.7300   56.9713   24.9560 O.2       2 ALA2        0.0000 
      4 OG         -9.4964   56.6149   23.0103 O.2       1 SER1        0.0000 
      5 O          -9.9489   56.2935   24.4039 O.2       2 ALA2        0.0000 
      6 O         -10.4014   55.9722   25.7974 O.2       2 ALA2        0.0000 
      7 CA        -11.1679   55.6158   23.8518 C.3       6 GLY6        0.0000 
      8 CA        -11.6204   55.2944   25.2453 C.3       6 GLY6        0.0000 
      9 NZ         -4.3252   57.7056   26.5556 N.2       4 LYS4        0.0000 
     10 CA         -5.0916   57.3492   24.6100 C.3       6 GLY6        0.0000 
     11 CZ         -5.5442   57.0278   26.0035 C.ar      5 PHE5        0.0000 
     12 OG         -6.3106   56.6714   24.0579 O.2       1 SER1        0.0000 
     13 CZ         -6.7631   56.3501   25.4514 C.ar      5 PHE5        0.0000 
     14 OD1        -7.5295   55.9937   23.5058 O.3       3 ASP3        0.0000 
     15 O          -7.9820   55.6723   24.8993 O.2       2 ALA2        0.0000 
     16 OD1        -8.7485   55.3159   22.9536 O.3       3 ASP3        0.0000 
     17 O          -9.2010   54.9946   24.3472 O.2       2 ALA2        0.0000 
     18 CZ         -9.9674   54.6382   22.4015 C.ar      5 PHE5        0.0000 
     19 DU        -10.4199   54.3168   23.7951 H         7 CUB7        0.0000 
     20 O         -10.8724   53.9954   25.1886 O.2       2 ALA2        0.0000 
     21 CA        -11.3249   53.6741   26.5822 C.3       6 GLY6        0.0000 
     22 CA        -11.6389   53.6390   23.2430 C.3       6 GLY6        0.0000 
     23 CA        -12.0914   53.3177   24.6365 C.3       6 GLY6        0.0000 
     24 NZ         -3.5773   56.4066   26.4989 N.2       4 LYS4        0.0000 
     25 CA         -4.3437   56.0502   24.5533 C.3       6 GLY6        0.0000 
     26 CZ         -4.7962   55.7288   25.9468 C.ar      5 PHE5        0.0000 
     27 OD1        -5.5627   55.3724   24.0012 O.3       3 ASP3        0.0000 
     28 CZ         -6.0152   55.0511   25.3947 C.ar      5 PHE5        0.0000 
     29 OD1        -6.7816   54.6947   23.4491 O.3       3 ASP3        0.0000 
     30 CZ         -7.2341   54.3733   24.8426 C.ar      5 PHE5        0.0000 
     31 OG         -8.0005   54.0169   22.8970 O.2       1 SER1        0.0000 
     32 OG         -8.4531   53.6956   24.2905 O.2       1 SER1        0.0000 
     33 CZ         -8.9056   53.3742   25.6840 C.ar      5 PHE5        0.0000 
     34 CZ         -9.2195   53.3392   22.3448 C.ar      5 PHE5        0.0000 
     35 DU         -9.6720   53.0178   23.7384 H         7 CUB7        0.0000 
     36 DU        -10.1245   52.6965   25.1319 H         7 CUB7        0.0000 
     37 O         -10.5770   52.3751   26.5255 O.2       2 ALA2        0.0000 
     38 CA        -10.8909   52.3401   23.1863 C.3       6 GLY6        0.0000 
     39 CA        -11.3434   52.0187   24.5798 C.3       6 GLY6        0.0000 
     40 CA        -11.7960   51.6973   25.9734 C.3       6 GLY6        0.0000 
     41 CA         -2.3768   55.4290   25.0487 C.3       6 GLY6        0.0000 
     42 NZ         -2.8293   55.1076   26.4422 N.2       4 LYS4        0.0000 
     43 OG         -3.1433   55.0726   23.1030 O.2       1 SER1        0.0000 
     44 CA         -3.5958   54.7512   24.4966 C.3       6 GLY6        0.0000 
     45 CZ         -4.0483   54.4298   25.8901 C.ar      5 PHE5        0.0000 
     46 OD1        -4.3622   54.3948   22.5509 O.3       3 ASP3        0.0000 
     47 OD1        -4.8147   54.0734   23.9445 O.3       3 ASP3        0.0000 
     48 CZ         -5.2672   53.7521   25.3380 C.ar      5 PHE5        0.0000 
     49 OG         -6.0337   53.3957   23.3924 O.2       1 SER1        0.0000 
     50 CZ         -6.4862   53.0743   24.7859 C.ar      5 PHE5        0.0000 
     51 OG         -7.7051   52.3966   24.2338 O.2       1 SER1        0.0000 
     52 CZ         -8.1576   52.0752   25.6274 C.ar      5 PHE5        0.0000 
     53 CZ         -8.9241   51.7188   23.6817 C.ar      5 PHE5        0.0000 
     54 CA         -9.3766   51.3975   25.0752 C.3       6 GLY6        0.0000 
     55 CA         -9.8291   51.0761   26.4688 C.3       6 GLY6        0.0000 
     56 CA        -10.1430   51.0411   23.1296 C.3       6 GLY6        0.0000 
     57 CA         -2.8478   53.4522   24.4399 C.3       6 GLY6        0.0000 
     58 O          -3.3003   53.1309   25.8334 O.2       2 ALA2        0.0000 
     59 OG         -3.6143   53.0958   22.4942 O.2       1 SER1        0.0000 
     60 OG         -4.0668   52.7745   23.8878 O.2       1 SER1        0.0000 
     61 OG         -5.2857   52.0967   23.3357 O.2       1 SER1        0.0000 
     62 OG         -5.7382   51.7753   24.7292 O.2       1 SER1        0.0000 
     63 OG         -6.9572   51.0976   24.1771 O.2       1 SER1        0.0000 
     64 OG         -7.8622   50.4549   26.9642 O.2       1 SER1        0.0000 
     65 CZ         -8.1761   50.4198   23.6250 C.ar      5 PHE5        0.0000 
     66 OG         -9.0811   49.7771   26.4121 O.2       1 SER1        0.0000 
@<TRIPOS>BOND
@<TRIPOS>SUBSTRUCTURE
     1 SER1        4 GROUP   
     2 ALA2        2 GROUP   
     3 ASP3       14 GROUP   
     4 LYS4        1 GROUP   
     5 PHE5       11 GROUP   
     6 GLY6        7 GROUP   
     7 CUB7       19 GROUP   
@<TRIPOS>SET

