#    Name: 1ahg_TYR_PLP_1_INTS_M
#    Modification time : Mon Mar 24 18:24:46 2014

@<TRIPOS>MOLECULE
1ahg_TYR_PLP_1_INTS_M
   83     0    12     0     0
SMALL
NO_CHARGES


@<TRIPOS>ATOM
      1 CA         -8.1295   55.9460   21.7935 C.3       4 GLC5        0.0000 
      2 CA         -9.2740   55.5060   23.5690 C.3      12 GLL5        0.0000 
      3 CA         -6.9850   56.3860   20.0180 C.3       8 GLP5        0.0000 
      4 N          -9.4265   58.1885   26.0490 N.am      2 SEC2        0.0000 
      5 N         -10.0190   56.9380   25.2460 N.am     10 SEL2        0.0000 
      6 N          -8.8340   59.4390   26.8520 N.am      6 SEP2        0.0000 
      7 N         -11.1575   58.0590   25.3515 N.am      2 SEC2        0.0000 
      8 N         -12.2960   59.1800   25.4570 N.am      6 SEP2        0.0000 
      9 CA         -9.3635   53.1790   21.4925 C.3       4 GLC5        0.0000 
     10 CA         -9.7740   54.1670   23.1030 C.3      12 GLL5        0.0000 
     11 CA         -8.9530   52.1910   19.8820 C.3       8 GLP5        0.0000 
     12 CA        -12.7605   53.7715   24.9815 C.3       4 GLC5        0.0000 
     13 CA        -11.0490   53.1770   25.0420 C.3      12 GLL5        0.0000 
     14 CA        -14.4720   54.3660   24.9210 C.3       8 GLP5        0.0000 
     15 CA        -12.8870   53.1370   26.2375 C.3       4 GLC5        0.0000 
     16 CA        -11.2040   52.2520   26.0760 C.3      12 GLL5        0.0000 
     17 CA        -14.5700   54.0220   26.3990 C.3       8 GLP5        0.0000 
     18 CA         -7.9540   49.3645   25.8215 C.3       4 GLC5        0.0000 
     19 CA         -9.1000   51.2430   25.4500 C.3      12 GLL5        0.0000 
     20 CA         -6.8080   47.4860   26.1930 C.3       8 GLP5        0.0000 
     21 O         -11.3950   50.0220   28.0700 O.2       1 ALC1        0.0000 
     22 O         -10.3610   50.3780   27.3210 O.2       9 ALL1        0.0000 
     23 O         -12.4290   49.6660   28.8190 O.2       5 ALP1        0.0000 
     24 N         -12.1100   56.5600   22.1885 N.am      2 SEC2        0.0000 
     25 N         -11.4920   56.3830   23.6820 N.am     10 SEL2        0.0000 
     26 N         -12.7280   56.7370   20.6950 N.am      6 SEP2        0.0000 
     27 N         -11.8940   57.7815   24.5695 N.am      2 SEC2        0.0000 
     28 N         -12.7825   57.1870   24.0855 N.am      2 SEC2        0.0000 
     29 N         -14.0730   57.9910   24.4890 N.am      6 SEP2        0.0000 
     30 N          -3.1670   57.3955   27.7355 N.am      2 SEC2        0.0000 
     31 N          -4.0570   56.9580   26.8580 N.am     10 SEL2        0.0000 
     32 N          -2.2770   57.8330   28.6130 N.am      6 SEP2        0.0000 
     33 CA         -3.7265   57.8260   25.0140 C.3       4 GLC5        0.0000 
     34 CA         -5.2410   57.5360   26.5730 C.3      12 GLL5        0.0000 
     35 CA         -2.2120   58.1160   23.4550 C.3       8 GLP5        0.0000 
     36 CA         -6.8380   60.2660   26.9510 C.3       4 GLC5        0.0000 
     37 CA         -5.5680   58.8450   27.2250 C.3      12 GLL5        0.0000 
     38 CA         -8.1080   61.6870   26.6770 C.3       8 GLP5        0.0000 
     39 N          -8.0510   58.4655   26.1385 N.am      2 SEC2        0.0000 
     40 N          -7.2680   57.4920   25.4250 N.am     10 SEL2        0.0000 
     41 CA         -6.9770   54.3560   26.1625 C.3       4 GLC5        0.0000 
     42 CA         -6.7310   55.0810   24.1870 C.3      12 GLL5        0.0000 
     43 CA         -7.2230   53.6310   28.1380 C.3       8 GLP5        0.0000 
     44 CA         -6.8580   55.7335   22.1025 C.3       4 GLC5        0.0000 
     45 CA         -2.1165   53.0610   24.9270 C.3       4 GLC5        0.0000 
     46 CA         -3.9760   53.8060   24.8910 C.3      12 GLL5        0.0000 
     47 CA         -0.2570   52.3160   24.9630 C.3       8 GLP5        0.0000 
     48 CA         -4.9740   53.6290   26.7750 C.3       4 GLC5        0.0000 
     49 CA         -5.9720   53.4520   28.6590 C.3       8 GLP5        0.0000 
     50 N          -1.6290   52.0160   23.1015 N.am      2 SEC2        0.0000 
     51 N          -2.6890   52.6970   22.2770 N.am     10 SEL2        0.0000 
     52 N          -0.5690   51.3350   23.9260 N.am      6 SEP2        0.0000 
     53 N          -2.0430   53.6495   21.6300 N.am      2 SEC2        0.0000 
     54 N          -1.3970   54.6020   20.9830 N.am      6 SEP2        0.0000 
     55 NZ         -4.7790   50.2340   21.5405 N.4       3 LYC4        0.0000 
     56 NZ         -4.9810   51.6080   21.9250 N.4      11 LYL4        0.0000 
     57 NZ         -4.2380   47.8870   21.9720 N.4       7 LYP4        0.0000 
     58 N          -4.2300   51.7775   20.4580 N.am      2 SEC2        0.0000 
     59 N          -4.9810   51.6080   21.9250 N.am     10 SEL2        0.0000 
     60 N          -3.4790   51.9470   18.9910 N.am      6 SEP2        0.0000 
     61 N          -4.7790   50.2340   21.5405 N.am      2 SEC2        0.0000 
     62 N          -4.5770   48.8600   21.1560 N.am      6 SEP2        0.0000 
     63 N          -5.8960   52.0785   21.4310 N.am      2 SEC2        0.0000 
     64 N          -6.8110   52.5490   20.9370 N.am      6 SEP2        0.0000 
     65 NZ         -3.7820   49.6345   23.5670 N.4       3 LYC4        0.0000 
     66 NZ         -3.5440   51.0960   23.8780 N.4      11 LYL4        0.0000 
     67 N          -2.0565   51.2155   23.9020 N.am      2 SEC2        0.0000 
     68 N          -3.5440   51.0960   23.8780 N.am     10 SEL2        0.0000 
     69 N          -2.6505   50.9965   25.0210 N.am      2 SEC2        0.0000 
     70 N          -1.7570   50.8970   26.1640 N.am      6 SEP2        0.0000 
     71 N          -3.9295   50.6775   25.1445 N.am      2 SEC2        0.0000 
     72 N          -4.3150   50.2590   26.4110 N.am      6 SEP2        0.0000 
     73 N          -3.7820   49.6345   23.5670 N.am      2 SEC2        0.0000 
     74 N          -4.0200   48.1730   23.2560 N.am      6 SEP2        0.0000 
     75 CA        -11.5508   50.8023   25.4540 C.3       4 GLC5        0.0000 
     76 CA        -11.9750   48.8900   25.3490 C.3       8 GLP5        0.0000 
     77 CA        -11.6431   52.7855   22.7876 C.3       4 GLC5        0.0000 
     78 CA        -12.8380   52.1480   21.2240 C.3       8 GLP5        0.0000 
     79 CA        -10.8165   50.0783   25.6093 C.3       4 GLC5        0.0000 
     80 CA         -6.7348   58.2183   28.4055 C.3       4 GLC5        0.0000 
     81 CA         -8.0650   58.2460   29.9120 C.3       8 GLP5        0.0000 
     82 CA         -3.1545   56.7942   24.6612 C.3       4 GLC5        0.0000 
     83 CA         -3.6800   55.7930   26.3140 C.3      12 GLL5        0.0000 
@<TRIPOS>BOND
@<TRIPOS>SUBSTRUCTURE
     1 ALC1       21 GROUP        1 X    ALC  0     ROOT ALC X 1
     2 SEC2        4 GROUP        1 X    SEC  0     **** SEC X 2
     3 LYC4       55 GROUP        1 X    LYC  0     **** LYC X 4
     4 GLC5        1 GROUP        1 X    GLC  0     **** GLC X 6
     5 ALP1       23 GROUP        1 Y    ALP  0     ROOT ALP Y 8
     6 SEP2        6 GROUP        1 Y    SEP  0     **** SEP Y 9
     7 LYP4       57 GROUP        1 Y    LYP  0     **** LYP Y 11
     8 GLP5        3 GROUP        1 Y    GLP  0     **** GLP Y 13
     9 ALL1       22 GROUP        1 Z    ALL  0     ROOT ALL Z 15
    10 SEL2        5 GROUP        1 Z    SEL  0     **** SEL Z 16
    11 LYL4       56 GROUP        1 Z    LYL  0     **** LYL Z 18
    12 GLL5        2 GROUP        1 Z    GLL  0     **** GLL Z 20
@<TRIPOS>SET

