#    Name: 1ahg_TYR_PLP_1_ligand
#    Modification time : Mon Mar 24 18:24:46 2014

@<TRIPOS>MOLECULE
1ahg_TYR_PLP_1_ligand
   46    47     2     0     0
SMALL
NO_CHARGES


@<TRIPOS>ATOM
      1 N          -8.1450   55.4200   24.5630 N.am      1 TYR411      0.0000
      2 CA         -9.2740   55.5060   23.5690 C.3       1 TYR411      0.0000
      3 C         -10.3450   56.3130   24.2070 C.2       1 TYR411      0.0000
      4 O         -10.0190   56.9380   25.2460 O.2       1 TYR411      0.0000
      5 CB         -9.7740   54.1670   23.1030 C.3       1 TYR411      0.0000
      6 CG         -9.9210   53.1710   24.2180 C.ar      1 TYR411      0.0000
      7 CD1       -11.0490   53.1770   25.0420 C.ar      1 TYR411      0.0000
      8 CD2        -8.9680   52.1730   24.4200 C.ar      1 TYR411      0.0000
      9 CE1       -11.2040   52.2520   26.0760 C.ar      1 TYR411      0.0000
     10 CE2        -9.1000   51.2430   25.4500 C.ar      1 TYR411      0.0000
     11 CZ        -10.2160   51.2900   26.2890 C.ar      1 TYR411      0.0000
     12 OH        -10.3610   50.3780   27.3210 O.3       1 TYR411      0.0000
     13 OXT       -11.4920   56.3830   23.6820 O.3       1 TYR411      0.0000
     14 HNCA       -8.3539   55.6019   25.5424 H         1 TYR411      0.0000
     15 HA         -8.9047   56.0707   22.7009 H         1 TYR411      0.0000
     16 HB2        -9.0793   53.7642   22.3451 H         1 TYR411      0.0000
     17 HB3       -10.7492   54.2983   22.6021 H         1 TYR411      0.0000
     18 HD1       -11.7891   53.8861   24.8814 H         1 TYR411      0.0000
     19 HD2        -8.1455   52.1220   23.7917 H         1 TYR411      0.0000
     20 HE1       -12.0345   52.2794   26.6720 H         1 TYR411      0.0000
     21 HE2        -8.3810   50.5262   25.5925 H         1 TYR411      0.0000
     22 HH        -11.3272   50.4257   27.5745 H         1 TYR411      0.0000
     23 H         -11.3367   56.7651   22.7710 H         1 TYR411      0.0000
     24 N1         -4.0570   56.9580   26.8580 N.ar      2 PLP410      0.0000
     25 C2         -5.2410   57.5360   26.5730 C.ar      2 PLP410      0.0000
     26 C2A        -5.5680   58.8450   27.2250 C.3       2 PLP410      0.0000
     27 C3         -6.1050   56.8840   25.6700 C.ar      2 PLP410      0.0000
     28 O3         -7.2680   57.4920   25.4250 O.3       2 PLP410      0.0000
     29 C4         -5.7990   55.6860   25.0910 C.ar      2 PLP410      0.0000
     30 C4A        -6.7310   55.0810   24.1870 C.2       2 PLP410      0.0000
     31 C5         -4.5140   55.1520   25.4210 C.ar      2 PLP410      0.0000
     32 C6         -3.6800   55.7930   26.3140 C.ar      2 PLP410      0.0000
     33 C5A        -3.9760   53.8060   24.8910 C.3       2 PLP410      0.0000
     34 O4P        -4.6360   53.2850   23.7500 O.3       2 PLP410      0.0000
     35 P          -3.8980   52.1230   22.9220 P.3       2 PLP410      0.0000
     36 O1P        -2.6890   52.6970   22.2770 O.co2     2 PLP410      0.0000
     37 O2P        -4.9810   51.6080   21.9250 O.co2     2 PLP410      0.0000
     38 O3P        -3.5440   51.0960   23.8780 O.co2     2 PLP410      0.0000
     39 H          -6.5233   54.5399   23.4486 H         2 PLP410      0.0000
     40 H          -2.7681   55.3597   26.5516 H         2 PLP410      0.0000
     41 H          -4.0134   53.0866   25.7510 H         2 PLP410      0.0000
     42 H          -2.8804   53.9533   24.6999 H         2 PLP410      0.0000
     43 H          -5.5766   58.7713   28.2222 H         2 PLP410      0.0000
     44 H          -4.9031   59.5537   26.9892 H         2 PLP410      0.0000
     45 H          -6.4674   59.1833   26.9483 H         2 PLP410      0.0000
     46 H          -7.9439   56.7555   25.3962 H         2 PLP410      0.0000
@<TRIPOS>BOND
     1    2    1 1
     2   14    1 1
     3    3    2 1
     4    5    2 1
     5   15    2 1
     6    4    3 2
     7   13    3 1
     8    6    5 1
     9   16    5 1
    10   17    5 1
    11    7    6 ar
    12    8    6 ar
    13    9    7 ar
    14   18    7 1
    15   10    8 ar
    16   19    8 1
    17   11    9 ar
    18   20    9 1
    19   11   10 ar
    20   21   10 1
    21   12   11 1
    22   22   12 1
    23   23   13 1
    24   25   24 ar
    25   32   24 ar
    26   26   25 1
    27   27   25 ar
    28   43   26 1
    29   44   26 1
    30   45   26 1
    31   28   27 1
    32   29   27 ar
    33   46   28 1
    34   30   29 1
    35   31   29 ar
    36   39   30 1
    37   32   31 ar
    38   33   31 1
    39   40   32 1
    40   34   33 1
    41   41   33 1
    42   42   33 1
    43   35   34 1
    44   36   35 ar
    45   37   35 ar
    46   38   35 ar
    47   30    1 1 
@<TRIPOS>SUBSTRUCTURE
     1 TYR411      1 RESIDUE
     2 PLP410     24 GROUP
@<TRIPOS>SET

