#    Name: 1Z4L_1_CAVITY_N1_ALL.mol2
#    Modification time : Mon Mar 10 21:57:36 2014

@<TRIPOS>MOLECULE
1Z4L_1_CAVITY_N1_ALL.mol2
  133     0     7     0     0
SMALL
NO_CHARGES


@<TRIPOS>ATOM
      1 CA         10.7551   44.3160   18.1529 C.3       6 GLY6        0.0000 
      2 CA          9.8362   45.3228   18.7791 C.3       6 GLY6        0.0000 
      3 DU          9.7660   43.2283   18.4506 H         7 CUB7        0.0000 
      4 CA          8.8471   44.2351   19.0767 C.3       6 GLY6        0.0000 
      5 NZ          7.9283   45.2419   19.7028 N.2       4 LYS4        0.0000 
      6 CA          7.8581   43.1474   19.3743 C.3       6 GLY6        0.0000 
      7 CA          7.7879   41.0528   19.0458 C.3       6 GLY6        0.0000 
      8 CA         12.3277   43.0787   18.8570 C.3       6 GLY6        0.0000 
      9 CA         11.4089   44.0855   19.4831 C.3       6 GLY6        0.0000 
     10 CA         10.4900   45.0923   20.1092 C.3       6 GLY6        0.0000 
     11 NZ          9.5712   46.0991   20.7354 N.2       4 LYS4        0.0000 
     12 DU         11.3387   41.9910   19.1546 H         7 CUB7        0.0000 
     13 DU         10.4198   42.9978   19.7808 H         7 CUB7        0.0000 
     14 DU          9.5010   44.0046   20.4069 H         7 CUB7        0.0000 
     15 CA          8.5821   45.0114   21.0330 C.3       6 GLY6        0.0000 
     16 DU         10.3496   40.9032   19.4523 H         7 CUB7        0.0000 
     17 DU          9.4308   41.9100   20.0784 H         7 CUB7        0.0000 
     18 CA          8.5119   42.9168   20.7045 C.3       6 GLY6        0.0000 
     19 CA          8.4417   40.8223   20.3760 C.3       6 GLY6        0.0000 
     20 O          13.9706   43.9359   19.8895 O.2       2 ALA2        0.0000 
     21 O          12.9815   42.8482   20.1872 O.2       2 ALA2        0.0000 
     22 O          12.0627   43.8550   20.8133 O.2       2 ALA2        0.0000 
     23 CA         11.1438   44.8618   21.4394 C.3       6 GLY6        0.0000 
     24 O          11.9925   41.7604   20.4848 O.2       2 ALA2        0.0000 
     25 DU         11.0736   42.7672   21.1109 H         7 CUB7        0.0000 
     26 O          10.1548   43.7740   21.7371 O.2       2 ALA2        0.0000 
     27 CZ         11.0034   40.6727   20.7824 C.ar      5 PHE5        0.0000 
     28 DU         10.0846   41.6795   21.4086 H         7 CUB7        0.0000 
     29 O           9.1657   42.6863   22.0347 O.2       2 ALA2        0.0000 
     30 CZ         10.0144   39.5849   21.0801 C.ar      5 PHE5        0.0000 
     31 OG          9.0955   40.5917   21.7062 O.2       1 SER1        0.0000 
     32 OG          9.0253   38.4972   21.3777 O.2       1 SER1        0.0000 
     33 O          13.6354   42.6176   21.5174 O.2       2 ALA2        0.0000 
     34 CA         12.7165   43.6245   22.1435 C.3       6 GLY6        0.0000 
     35 O          13.5652   40.5231   21.1889 O.2       2 ALA2        0.0000 
     36 CZ         12.6463   41.5299   21.8150 C.ar      5 PHE5        0.0000 
     37 CA         11.7275   42.5367   22.4411 C.3       6 GLY6        0.0000 
     38 CZ         10.7384   41.4490   22.7387 C.ar      5 PHE5        0.0000 
     39 O           9.8195   42.4558   23.3649 O.2       2 ALA2        0.0000 
     40 CZ          9.7494   40.3612   23.0364 C.ar      5 PHE5        0.0000 
     41 CZ          8.7603   39.2735   23.3340 C.ar      5 PHE5        0.0000 
     42 N          18.9537   39.4476   20.0454 N.2       2 ALA2        0.0000 
     43 O          17.9646   38.3599   20.3430 O.2       2 ALA2        0.0000 
     44 O          17.0458   39.3667   20.9692 O.2       2 ALA2        0.0000 
     45 CA         13.3703   43.3939   23.4737 C.3       6 GLY6        0.0000 
     46 CZ         16.0567   38.2789   21.2668 C.ar      5 PHE5        0.0000 
     47 CZ         15.1378   39.2858   21.8929 C.ar      5 PHE5        0.0000 
     48 O          13.3001   41.2994   23.1452 O.2       2 ALA2        0.0000 
     49 CA         12.3813   42.3062   23.7713 C.3       6 GLY6        0.0000 
     50 CZ         11.3922   41.2184   24.0689 C.ar      5 PHE5        0.0000 
     51 O          10.4734   42.2252   24.6951 O.2       2 ALA2        0.0000 
     52 CZ         10.4032   40.1307   24.3666 C.ar      5 PHE5        0.0000 
     53 CZ          9.4843   41.1375   24.9927 C.ar      5 PHE5        0.0000 
     54 CZ          9.4141   39.0429   24.6642 C.ar      5 PHE5        0.0000 
     55 CZ          8.4953   40.0498   25.2903 C.ar      5 PHE5        0.0000 
     56 O           8.4251   37.9552   24.9618 O.2       2 ALA2        0.0000 
     57 CZ          7.5062   38.9620   25.5879 C.ar      5 PHE5        0.0000 
     58 N          18.6886   40.2239   22.0017 N.2       2 ALA2        0.0000 
     59 O          17.6996   39.1362   22.2993 O.2       2 ALA2        0.0000 
     60 O          14.9430   42.1566   24.1777 O.2       2 ALA2        0.0000 
     61 N          14.0241   43.1634   24.8038 N.2       2 ALA2        0.0000 
     62 O          15.7917   39.0552   23.2231 O.2       2 ALA2        0.0000 
     63 O          14.8728   40.0620   23.8492 O.2       2 ALA2        0.0000 
     64 O          13.9539   41.0688   24.4753 O.2       2 ALA2        0.0000 
     65 CA         13.0351   42.0757   25.1015 C.3       6 GLY6        0.0000 
     66 CA         12.1162   43.0825   25.7276 C.3       6 GLY6        0.0000 
     67 CZ         13.8838   38.9743   24.1469 C.ar      5 PHE5        0.0000 
     68 CZ         12.9649   39.9811   24.7730 C.ar      5 PHE5        0.0000 
     69 DU         12.0460   40.9879   25.3991 H         7 CUB7        0.0000 
     70 CA         11.1272   41.9947   26.0252 C.3       6 GLY6        0.0000 
     71 CZ         10.2083   43.0015   26.6514 C.ar      5 PHE5        0.0000 
     72 CZ         11.9758   38.8934   25.0706 C.ar      5 PHE5        0.0000 
     73 CZ         11.0570   39.9002   25.6967 C.ar      5 PHE5        0.0000 
     74 CZ         10.1381   40.9070   26.3229 C.ar      5 PHE5        0.0000 
     75 CZ         10.9868   37.8056   25.3682 C.ar      5 PHE5        0.0000 
     76 CZ         10.0679   38.8124   25.9944 C.ar      5 PHE5        0.0000 
     77 CZ          9.1491   39.8192   26.6205 C.ar      5 PHE5        0.0000 
     78 O           9.0789   37.7247   26.2920 O.2       2 ALA2        0.0000 
     79 CA          8.1600   38.7315   26.9181 C.3       6 GLY6        0.0000 
     80 CA         17.4345   39.9124   24.2556 C.3       6 GLY6        0.0000 
     81 CA         16.5157   40.9193   24.8818 C.3       6 GLY6        0.0000 
     82 CA         15.5968   41.9261   25.5079 C.3       6 GLY6        0.0000 
     83 N          14.6780   42.9329   26.1340 N.2       2 ALA2        0.0000 
     84 N          13.7591   43.9397   26.7601 N.2       2 ALA2        0.0000 
     85 O          16.4455   38.8247   24.5533 O.2       2 ALA2        0.0000 
     86 CZ         15.5266   39.8315   25.1794 C.ar      5 PHE5        0.0000 
     87 DU         14.6078   40.8383   25.8055 H         7 CUB7        0.0000 
     88 N          13.6889   41.8451   26.4317 N.2       2 ALA2        0.0000 
     89 CA         12.7701   42.8519   27.0578 C.3       6 GLY6        0.0000 
     90 CZ         11.8512   43.8587   27.6839 C.ar      5 PHE5        0.0000 
     91 CZ         13.6187   39.7506   26.1032 C.ar      5 PHE5        0.0000 
     92 CZ         12.6999   40.7574   26.7293 C.ar      5 PHE5        0.0000 
     93 CZ         11.7810   41.7642   27.3554 C.ar      5 PHE5        0.0000 
     94 CZ         11.7108   39.6696   27.0269 C.ar      5 PHE5        0.0000 
     95 CZ         10.7919   40.6764   27.6530 C.ar      5 PHE5        0.0000 
     96 CZ         10.7218   38.5819   27.3246 C.ar      5 PHE5        0.0000 
     97 CZ          9.8029   39.5887   27.9507 C.ar      5 PHE5        0.0000 
     98 N           9.7327   37.4941   27.6222 N.2       2 ALA2        0.0000 
     99 CZ          8.8138   38.5010   28.2483 C.ar      5 PHE5        0.0000 
    100 O          17.0993   38.5942   25.8835 O.2       2 ALA2        0.0000 
    101 CZ         16.1804   39.6010   26.5096 C.ar      5 PHE5        0.0000 
    102 CZ         15.2616   40.6078   27.1357 C.ar      5 PHE5        0.0000 
    103 N          14.3427   41.6146   27.7618 N.2       2 ALA2        0.0000 
    104 NZ         13.4239   42.6214   28.3880 N.2       4 LYS4        0.0000 
    105 CZ         14.2725   39.5200   27.4333 C.ar      5 PHE5        0.0000 
    106 CZ         13.3537   40.5269   28.0595 C.ar      5 PHE5        0.0000 
    107 CZ         12.4348   41.5337   28.6856 C.ar      5 PHE5        0.0000 
    108 CZ         12.3646   39.4391   28.3571 C.ar      5 PHE5        0.0000 
    109 CZ         11.4458   40.4459   28.9832 C.ar      5 PHE5        0.0000 
    110 CZ         11.3756   38.3514   28.6547 C.ar      5 PHE5        0.0000 
    111 CZ         10.4567   39.3582   29.2809 C.ar      5 PHE5        0.0000 
    112 N          10.3865   37.2636   28.9524 N.2       2 ALA2        0.0000 
    113 CZ          9.4677   38.2704   29.5785 C.ar      5 PHE5        0.0000 
    114 OG         17.8233   40.4582   27.5421 O.2       1 SER1        0.0000 
    115 CA         16.9045   41.4650   28.1683 C.3       6 GLY6        0.0000 
    116 N          15.9856   42.4718   28.7944 N.2       2 ALA2        0.0000 
    117 OD1        16.8343   39.3705   27.8398 O.3       3 ASP3        0.0000 
    118 OD1        15.9154   40.3773   28.4659 O.3       3 ASP3        0.0000 
    119 NZ         14.9965   41.3841   29.0920 N.2       4 LYS4        0.0000 
    120 CZ         14.9264   39.2895   28.7635 C.ar      5 PHE5        0.0000 
    121 CA         14.0075   40.2963   29.3896 C.3       6 GLY6        0.0000 
    122 CZ         13.0184   39.2086   29.6873 C.ar      5 PHE5        0.0000 
    123 CA         12.0996   40.2154   30.3134 C.3       6 GLY6        0.0000 
    124 CZ         12.0294   38.1208   29.9849 C.ar      5 PHE5        0.0000 
    125 CZ         11.1105   39.1276   30.6110 C.ar      5 PHE5        0.0000 
    126 NZ         11.0403   37.0331   30.2825 N.2       4 LYS4        0.0000 
    127 NZ         10.1215   38.0399   30.9087 N.2       4 LYS4        0.0000 
    128 O          17.5583   41.2345   29.4984 O.2       2 ALA2        0.0000 
    129 OD1        16.5692   40.1467   29.7961 O.3       3 ASP3        0.0000 
    130 NZ         12.6832   37.8903   31.3151 N.2       4 LYS4        0.0000 
    131 CA         11.7643   38.8971   31.9412 C.3       6 GLY6        0.0000 
    132 NZ         11.6942   36.8026   31.6127 N.2       4 LYS4        0.0000 
    133 NZ         10.7753   37.8094   32.2389 N.2       4 LYS4        0.0000 
@<TRIPOS>BOND
@<TRIPOS>SUBSTRUCTURE
     1 SER1       31 GROUP   
     2 ALA2       20 GROUP   
     3 ASP3      117 GROUP   
     4 LYS4        5 GROUP   
     5 PHE5       27 GROUP   
     6 GLY6        1 GROUP   
     7 CUB7        3 GROUP   
@<TRIPOS>SET

