#    Name: 1z4l_TMP_1_INTS_M
#    Modification time : Mon Apr  7 16:24:56 2014

@<TRIPOS>MOLECULE
1z4l_TMP_1_INTS_M
   57     0    15     0     0
SMALL
NO_CHARGES


@<TRIPOS>ATOM
      1 Zn         15.9405   38.8900   31.0335 Zn        4 ZIC7        0.0000 
      2 Zn         15.9460   39.6190   30.3450 Zn       14 ZIL7        0.0000 
      3 Zn         15.9350   38.1610   31.7220 Zn        9 ZIP7        0.0000 
      4 N          17.5575   39.7910   30.9320 N.am      2 SEC2        0.0000 
      5 N          15.9460   39.6190   30.3450 N.am     12 SEL2        0.0000 
      6 N          19.1690   39.9630   31.5190 N.am      7 SEP2        0.0000 
      7 NZ         18.4970   38.1215   28.3000 N.4       3 LYC4        0.0000 
      8 NZ         17.2140   38.5890   28.2830 N.4      13 LYL4        0.0000 
      9 NZ         19.7800   37.6540   28.3170 N.4       8 LYP4        0.0000 
     10 N          18.4970   38.1215   28.3000 N.am      2 SEC2        0.0000 
     11 N          17.2140   38.5890   28.2830 N.am     12 SEL2        0.0000 
     12 N          19.7800   37.6540   28.3170 N.am      7 SEP2        0.0000 
     13 NZ         18.7895   39.2805   28.7255 N.4       3 LYC4        0.0000 
     14 NZ         17.7990   40.9070   29.1340 N.4      13 LYL4        0.0000 
     15 N          18.4840   40.4350   30.3265 N.am      2 SEC2        0.0000 
     16 N          17.7990   40.9070   29.1340 N.am     12 SEL2        0.0000 
     17 N          18.4905   42.1590   28.5575 N.am      2 SEC2        0.0000 
     18 N          19.1820   43.4110   27.9810 N.am      7 SEP2        0.0000 
     19 CA         14.3365   41.6405   30.1980 C.3       5 GLC5        0.0000 
     20 CA         14.7610   41.4700   28.2950 C.3      15 GLL5        0.0000 
     21 CA         13.9120   41.8110   32.1010 C.3      10 GLP5        0.0000 
     22 CA         12.6905   44.7475   28.6405 C.3       5 GLC5        0.0000 
     23 CA         13.4450   43.2310   27.5760 C.3      15 GLL5        0.0000 
     24 CA         11.9360   46.2640   29.7050 C.3      10 GLP5        0.0000 
     25 O          15.2325   44.3925   26.9840 O.2       1 ALC1        0.0000 
     26 O          13.8540   44.4320   26.8690 O.2      11 ALL1        0.0000 
     27 O          16.6110   44.3530   27.0990 O.2       6 ALP1        0.0000 
     28 CA         11.7040   44.6875   27.8325 C.3       5 GLC5        0.0000 
     29 CA         12.0350   42.8040   27.1710 C.3      15 GLL5        0.0000 
     30 CA         11.3730   46.5710   28.4940 C.3      10 GLP5        0.0000 
     31 N           6.8015   37.8280   24.4560 N.am      2 SEC2        0.0000 
     32 N           8.2110   38.4390   24.8010 N.am     12 SEL2        0.0000 
     33 N           5.3920   37.2170   24.1110 N.am      7 SEP2        0.0000 
     34 CA         10.3215   38.2680   24.5400 C.3       5 GLC5        0.0000 
     35 CA          9.7050   39.2840   26.3110 C.3      15 GLL5        0.0000 
     36 CA         10.9380   37.2520   22.7690 C.3      10 GLP5        0.0000 
     37 CA          7.8355   40.0950   25.7760 C.3       5 GLC5        0.0000 
     38 CA          5.9660   40.9060   25.2410 C.3      10 GLP5        0.0000 
     39 CA          9.0535   36.5670   26.1610 C.3       5 GLC5        0.0000 
     40 CA          9.2840   38.3090   27.4170 C.3      15 GLL5        0.0000 
     41 CA          8.8230   34.8250   24.9050 C.3      10 GLP5        0.0000 
     42 CA          7.6625   37.7905   28.0230 C.3       5 GLC5        0.0000 
     43 CA          6.0410   37.2720   28.6290 C.3      10 GLP5        0.0000 
     44 CA          9.7415   41.1470   27.8405 C.3       5 GLC5        0.0000 
     45 CA         10.7200   40.1720   26.5960 C.3      15 GLL5        0.0000 
     46 CA          8.7630   42.1220   29.0850 C.3      10 GLP5        0.0000 
     47 CA         12.0375   38.4185   26.2590 C.3       5 GLC5        0.0000 
     48 CA         13.3550   36.6650   25.9220 C.3      10 GLP5        0.0000 
     49 CA         16.5028   42.0433   26.7717 C.3       5 GLC5        0.0000 
     50 CA         14.3000   42.1210   27.0040 C.3      15 GLL5        0.0000 
     51 CA         18.4750   42.2910   25.8940 C.3      10 GLP5        0.0000 
     52 CA         11.1635   43.0083   28.5472 C.3       5 GLC5        0.0000 
     53 CA          9.5870   42.9990   29.7210 C.3      10 GLP5        0.0000 
     54 CA         12.0810   43.9416   25.5721 C.3       5 GLC5        0.0000 
     55 CA         11.6470   45.3900   24.5140 C.3      10 GLP5        0.0000 
     56 CA          8.8952   39.9027   28.2895 C.3       5 GLC5        0.0000 
     57 CA          8.2960   41.0090   29.7150 C.3      10 GLP5        0.0000 
@<TRIPOS>BOND
@<TRIPOS>SUBSTRUCTURE
     1 ALC1       25 GROUP        1 X    ALC  0     ROOT ALC X 1
     2 SEC2        4 GROUP        1 X    SEC  0     **** SEC X 2
     3 LYC4        7 GROUP        1 X    LYC  0     **** LYC X 4
     4 ZIC7        1 GROUP        1 X    ZIC  0     **** ZIC X 5
     5 GLC5       19 GROUP        1 X    GLC  0     **** GLC X 6
     6 ALP1       27 GROUP        1 Y    ALP  0     ROOT ALP Y 8
     7 SEP2        6 GROUP        1 Y    SEP  0     **** SEP Y 9
     8 LYP4        9 GROUP        1 Y    LYP  0     **** LYP Y 11
     9 ZIP7        3 GROUP        1 Y    ZIP  0     **** ZIP Y 12
    10 GLP5       21 GROUP        1 Y    GLP  0     **** GLP Y 13
    11 ALL1       26 GROUP        1 Z    ALL  0     ROOT ALL Z 15
    12 SEL2        5 GROUP        1 Z    SEL  0     **** SEL Z 16
    13 LYL4        8 GROUP        1 Z    LYL  0     **** LYL Z 18
    14 ZIL7        2 GROUP        1 Z    ZIL  0     **** ZIL Z 19
    15 GLL5       20 GROUP        1 Z    GLL  0     **** GLL Z 20
@<TRIPOS>SET

