#    Name: 1z4l_TMP_1_ligand
#    Modification time : Mon Apr  7 16:24:57 2014

@<TRIPOS>MOLECULE
1z4l_TMP_1_ligand
   34    35     1     0     0
SMALL
NO_CHARGES


@<TRIPOS>ATOM
      1 P          16.7040   39.8550   28.9810 P.3       1 TMP1001     0.0000 
      2 O1P        15.9460   39.6190   30.3450 O.co2     1 TMP1001     0.0000 
      3 O2P        17.2140   38.5890   28.2830 O.co2     1 TMP1001     0.0000 
      4 O3P        17.7990   40.9070   29.1340 O.co2     1 TMP1001     0.0000 
      5 O5'        15.5580   40.4100   27.9410 O.3       1 TMP1001     0.0000 
      6 C5'        14.7610   41.4700   28.2950 C.3       1 TMP1001     0.0000 
      7 C4'        14.3000   42.1210   27.0040 C.3       1 TMP1001     0.0000 
      8 O4'        13.4430   41.1770   26.2750 O.3       1 TMP1001     0.0000 
      9 C3'        13.4450   43.2310   27.5760 C.3       1 TMP1001     0.0000 
     10 O3'        13.8540   44.4320   26.8690 O.3       1 TMP1001     0.0000 
     11 C2'        12.0350   42.8040   27.1710 C.3       1 TMP1001     0.0000 
     12 C1'        12.2900   41.9690   25.8870 C.3       1 TMP1001     0.0000 
     13 N1         11.1880   41.0380   25.5840 N.am      1 TMP1001     0.0000 
     14 C2         10.6000   40.9890   24.3060 C.2       1 TMP1001     0.0000 
     15 O2         10.9480   41.7570   23.4030 O.2       1 TMP1001     0.0000 
     16 N3          9.5840   40.0930   24.0700 N.am      1 TMP1001     0.0000 
     17 C4          9.1080   39.2400   25.0660 C.2       1 TMP1001     0.0000 
     18 O4          8.2110   38.4390   24.8010 O.2       1 TMP1001     0.0000 
     19 C5          9.7050   39.2840   26.3110 C.2       1 TMP1001     0.0000 
     20 C5M         9.2840   38.3090   27.4170 C.3       1 TMP1001     0.0000 
     21 C6         10.7200   40.1720   26.5960 C.2       1 TMP1001     0.0000 
     22 H          15.2873   42.2319   28.8749 H         1 TMP1001     0.0000 
     23 H          13.8668   41.1728   28.8481 H         1 TMP1001     0.0000 
     24 H          15.0856   42.4943   26.4867 H         1 TMP1001     0.0000 
     25 H          13.5465   43.2684   28.5897 H         1 TMP1001     0.0000 
     26 H          11.4547   43.6479   26.9264 H         1 TMP1001     0.0000 
     27 H          11.6155   42.1833   27.9108 H         1 TMP1001     0.0000 
     28 H          12.5225   42.6103   25.1039 H         1 TMP1001     0.0000 
     29 H           9.1512   40.0431   23.1221 H         1 TMP1001     0.0000 
     30 H          11.1402   40.2148   27.5275 H         1 TMP1001     0.0000 
     31 H           9.4288   37.3569   27.1477 H         1 TMP1001     0.0000 
     32 H           9.8017   38.4572   28.2596 H         1 TMP1001     0.0000 
     33 H           8.3156   38.4044   27.6474 H         1 TMP1001     0.0000 
     34 H          14.8514   44.4467   26.9396 H         1 TMP1001     0.0000 
@<TRIPOS>BOND
     1    2    1 ar   
     2    3    1 ar   
     3    4    1 ar   
     4    5    1 1    
     5    6    5 1    
     6    7    6 1    
     7   22    6 1    
     8   23    6 1    
     9    8    7 1    
    10    9    7 1    
    11   24    7 1    
    12   12    8 1    
    13   10    9 1    
    14   11    9 1    
    15   25    9 1    
    16   34   10 1    
    17   12   11 1    
    18   26   11 1    
    19   27   11 1    
    20   13   12 1    
    21   28   12 1    
    22   14   13 am   
    23   21   13 1    
    24   15   14 2    
    25   16   14 1    
    26   17   16 am   
    27   29   16 1    
    28   18   17 2    
    29   19   17 1    
    30   20   19 1    
    31   21   19 2    
    32   31   20 1    
    33   32   20 1    
    34   33   20 1    
    35   30   21 1    
@<TRIPOS>SUBSTRUCTURE
     1 TMP1001     1 GROUP   
@<TRIPOS>SET

