#    Name: 1t4e_DIZ_2_INTS_M
#    Modification time : Tue Mar 25 04:22:07 2014

@<TRIPOS>MOLECULE
1t4e_DIZ_2_INTS_M
   70     0     3     0     0
SMALL
NO_CHARGES


@<TRIPOS>ATOM
      1 CA         51.3200  -15.8145   19.7915 C.3       1 GLC5        0.0000 
      2 CA         53.1300  -16.2250   19.9150 C.3       3 GLL5        0.0000 
      3 CA         49.5100  -15.4040   19.6680 C.3       2 GLP5        0.0000 
      4 CA         53.0440  -14.2880   19.5780 C.3       1 GLC5        0.0000 
      5 CA         52.9580  -12.3510   19.2410 C.3       2 GLP5        0.0000 
      6 CA         53.6375  -16.8770   18.3340 C.3       1 GLC5        0.0000 
      7 CA         54.1450  -17.5290   16.7530 C.3       2 GLP5        0.0000 
      8 CA         51.5970  -17.1485   21.3040 C.3       1 GLC5        0.0000 
      9 CA         53.5860  -16.8580   21.4350 C.3       3 GLL5        0.0000 
     10 CA         49.6080  -17.4390   21.1730 C.3       2 GLP5        0.0000 
     11 CA         55.7805  -17.8830   20.0855 C.3       1 GLC5        0.0000 
     12 CA         54.6270  -17.7960   21.5000 C.3       3 GLL5        0.0000 
     13 CA         56.9340  -17.9700   18.6710 C.3       2 GLP5        0.0000 
     14 CA         56.0860  -17.0275   21.2710 C.3       1 GLC5        0.0000 
     15 CA         55.0330  -18.3080   22.7470 C.3       3 GLL5        0.0000 
     16 CA         57.1390  -15.7470   19.7950 C.3       2 GLP5        0.0000 
     17 CA         52.8540  -15.1655   25.0810 C.3       1 GLC5        0.0000 
     18 CA         53.3240  -16.9330   23.8690 C.3       3 GLL5        0.0000 
     19 CA         52.3840  -13.3980   26.2930 C.3       2 GLP5        0.0000 
     20 CA         52.7360  -14.4335   22.1785 C.3       1 GLC5        0.0000 
     21 CA         52.9280  -16.4270   22.6090 C.3       3 GLL5        0.0000 
     22 CA         52.5440  -12.4400   21.7480 C.3       2 GLP5        0.0000 
     23 CA         55.9755  -10.7065   31.1535 C.3       1 GLC5        0.0000 
     24 CA         55.4530  -12.2320   30.0590 C.3       3 GLL5        0.0000 
     25 CA         56.4980   -9.1810   32.2480 C.3       2 GLP5        0.0000 
     26 CA         55.3960  -10.7080   28.6065 C.3       1 GLC5        0.0000 
     27 CA         55.3390   -9.1840   27.1540 C.3       2 GLP5        0.0000 
     28 CA         54.4765  -12.3030   28.2405 C.3       1 GLC5        0.0000 
     29 CA         53.5000  -12.3740   26.4220 C.3       2 GLP5        0.0000 
     30 CA         54.2500  -13.0650   22.4745 C.3       1 GLC5        0.0000 
     31 CA         55.9560  -13.6900   23.2010 C.3       3 GLL5        0.0000 
     32 CA         59.1430  -11.4625   21.2455 C.3       1 GLC5        0.0000 
     33 CA         57.1620  -11.6220   22.0020 C.3       3 GLL5        0.0000 
     34 CA         61.1240  -11.3030   20.4890 C.3       2 GLP5        0.0000 
     35 CA         57.7535  -11.1455   23.6670 C.3       1 GLC5        0.0000 
     36 CA         58.3450  -10.6690   25.3320 C.3       2 GLP5        0.0000 
     37 CA         56.8160  -10.0355   20.8365 C.3       1 GLC5        0.0000 
     38 CA         56.4700   -8.4490   19.6710 C.3       2 GLP5        0.0000 
     39 CA         56.2600  -10.1620   22.7155 C.3       1 GLC5        0.0000 
     40 CA         55.3580   -8.7020   23.4290 C.3       2 GLP5        0.0000 
     41 CA         59.8820  -13.1855   22.1950 C.3       1 GLC5        0.0000 
     42 CA         58.3970  -13.7170   23.2290 C.3       3 GLL5        0.0000 
     43 CA         61.3670  -12.6540   21.1610 C.3       2 GLP5        0.0000 
     44 CA         55.2485  -16.1442   20.2350 C.3       1 GLC5        0.0000 
     45 CA         54.8485  -19.3245   20.6597 C.3       1 GLC5        0.0000 
     46 CA         54.8670  -20.5970   19.1960 C.3       2 GLP5        0.0000 
     47 CA         51.3565  -16.7445   22.8050 C.3       1 GLC5        0.0000 
     48 CA         49.5870  -16.8090   22.3710 C.3       2 GLP5        0.0000 
     49 CA         54.8372  -13.2825   27.5977 C.3       1 GLC5        0.0000 
     50 CA         55.8190  -14.7080   28.4700 C.3       3 GLL5        0.0000 
     51 CA         58.5292  -14.3403   30.2950 C.3       1 GLC5        0.0000 
     52 CA         57.9470  -13.6290   29.0110 C.3       3 GLL5        0.0000 
     53 CA         59.8200  -15.0290   31.5460 C.3       2 GLP5        0.0000 
     54 CA         59.7870  -14.8407   26.6717 C.3       1 GLC5        0.0000 
     55 CA         58.6400  -14.6610   28.3130 C.3       3 GLL5        0.0000 
     56 CA         61.2950  -14.4870   25.3420 C.3       2 GLP5        0.0000 
     57 CA         58.5101  -12.1706   28.4737 C.3       1 GLC5        0.0000 
     58 CA         59.0810  -10.1850   28.2690 C.3       2 GLP5        0.0000 
     59 CA         59.0495  -15.1117   29.7737 C.3       1 GLC5        0.0000 
     60 CA         56.8383  -15.5043   21.9398 C.3       1 GLC5        0.0000 
     61 CA         57.1320  -15.6030   24.2770 C.3       3 GLL5        0.0000 
     62 CA         54.7248  -13.3395   24.9843 C.3       1 GLC5        0.0000 
     63 CA         55.9430  -14.9200   23.8920 C.3       3 GLL5        0.0000 
     64 CA         56.8520  -14.5695   21.4143 C.3       1 GLC5        0.0000 
     65 CA         55.8130  -12.3895   20.9220 C.3       1 GLC5        0.0000 
     66 CA         57.1740  -13.0940   22.8660 C.3       3 GLL5        0.0000 
     67 CA         54.4580  -12.4210   19.4100 C.3       2 GLP5        0.0000 
     68 CA         57.7625  -15.0427   21.6875 C.3       1 GLC5        0.0000 
     69 CA         59.6851  -14.4931   24.5042 C.3       1 GLC5        0.0000 
     70 CA         57.9130  -12.1118   24.2316 C.3       1 GLC5        0.0000 
@<TRIPOS>BOND
@<TRIPOS>SUBSTRUCTURE
     1 GLC5        1 GROUP        1 X    GLC  0     ROOT GLC X 6
     2 GLP5        3 GROUP        1 Y    GLP  0     ROOT GLP Y 13
     3 GLL5        2 GROUP        1 Z    GLL  0     ROOT GLL Z 20
@<TRIPOS>SET

