#    Name: 1t4e_DIZ_2_ligand
#    Modification time : Tue Mar 25 04:22:07 2014

@<TRIPOS>MOLECULE
1t4e_DIZ_2_ligand
   46    49     1     0     0
SMALL
NO_CHARGES


@<TRIPOS>ATOM
      1 CL1        53.1300  -16.2250   19.9150 Cl        1 DIZ112      0.0000 
      2 C1         53.5860  -16.8580   21.4350 C.ar      1 DIZ112      0.0000 
      3 C2         54.6270  -17.7960   21.5000 C.ar      1 DIZ112      0.0000 
      4 C3         55.0330  -18.3080   22.7470 C.ar      1 DIZ112      0.0000 
      5 C4         54.3910  -17.8780   23.9660 C.ar      1 DIZ112      0.0000 
      6 C5         53.3240  -16.9330   23.8690 C.ar      1 DIZ112      0.0000 
      7 C6         52.9280  -16.4270   22.6090 C.ar      1 DIZ112      0.0000 
      8 C7         54.8520  -18.3690   25.3590 C.3       1 DIZ112      0.0000 
      9 C8         55.3510  -19.8410   25.4020 C.2       1 DIZ112      0.0000 
     10 O1         54.7940  -20.8070   24.8860 O.co2     1 DIZ112      0.0000 
     11 O2         56.5090  -20.0140   26.0800 O.co2     1 DIZ112      0.0000 
     12 N1         55.8780  -17.3340   25.8990 N.am      1 DIZ112      0.0000 
     13 C9         55.6000  -16.7670   27.1590 C.2       1 DIZ112      0.0000 
     14 O3         54.5900  -17.0880   27.8110 O.2       1 DIZ112      0.0000 
     15 C10        56.4900  -15.7400   27.7760 C.ar      1 DIZ112      0.0000 
     16 C11        55.8190  -14.7080   28.4700 C.ar      1 DIZ112      0.0000 
     17 C12        56.5300  -13.6740   29.0770 C.ar      1 DIZ112      0.0000 
     18 I1         55.4530  -12.2320   30.0590 I         1 DIZ112      0.0000 
     19 C13        57.9470  -13.6290   29.0110 C.ar      1 DIZ112      0.0000 
     20 C14        58.6400  -14.6610   28.3130 C.ar      1 DIZ112      0.0000 
     21 C15        57.9180  -15.7280   27.6900 C.ar      1 DIZ112      0.0000 
     22 N2         58.6830  -16.6990   27.0200 N.am      1 DIZ112      0.0000 
     23 C16        58.3920  -17.3290   25.8260 C.2       1 DIZ112      0.0000 
     24 O4         59.1850  -18.1620   25.3940 O.2       1 DIZ112      0.0000 
     25 C17        57.0800  -17.0040   25.0220 C.3       1 DIZ112      0.0000 
     26 C18        57.1320  -15.6030   24.2770 C.ar      1 DIZ112      0.0000 
     27 C19        55.9430  -14.9200   23.8920 C.ar      1 DIZ112      0.0000 
     28 C20        55.9560  -13.6900   23.2010 C.ar      1 DIZ112      0.0000 
     29 C21        57.1740  -13.0940   22.8660 C.ar      1 DIZ112      0.0000 
     30 CL2        57.1620  -11.6220   22.0020 Cl        1 DIZ112      0.0000 
     31 C22        58.3970  -13.7170   23.2290 C.ar      1 DIZ112      0.0000 
     32 C23        58.3750  -14.9600   23.9310 C.ar      1 DIZ112      0.0000 
     33 H          55.0916  -18.1088   20.6445 H         1 DIZ112      0.0000 
     34 H          55.7897  -18.9928   22.8060 H         1 DIZ112      0.0000 
     35 H          52.8483  -16.6249   24.7182 H         1 DIZ112      0.0000 
     36 H          52.1663  -15.7500   22.5482 H         1 DIZ112      0.0000 
     37 H          53.9634  -18.2906   26.0252 H         1 DIZ112      0.0000 
     38 H          54.7903  -14.7276   28.5234 H         1 DIZ112      0.0000 
     39 H          58.4599  -12.8777   29.4514 H         1 DIZ112      0.0000 
     40 H          59.6575  -14.6408   28.2559 H         1 DIZ112      0.0000 
     41 H          59.6092  -16.9802   27.5055 H         1 DIZ112      0.0000 
     42 H          57.0845  -17.7920   24.1878 H         1 DIZ112      0.0000 
     43 H          55.0280  -15.3513   24.1333 H         1 DIZ112      0.0000 
     44 H          55.0724  -13.2409   22.9488 H         1 DIZ112      0.0000 
     45 H          59.2837  -13.2841   22.9925 H         1 DIZ112      0.0000 
     46 H          59.2556  -15.4080   24.1964 H         1 DIZ112      0.0000 
@<TRIPOS>BOND
     1    2    1 1    
     2    3    2 ar   
     3    7    2 ar   
     4    4    3 ar   
     5   33    3 1    
     6    5    4 ar   
     7   34    4 1    
     8    6    5 ar   
     9    8    5 1    
    10    7    6 ar   
    11   35    6 1    
    12   36    7 1    
    13    9    8 1    
    14   12    8 1    
    15   37    8 1    
    16   10    9 ar   
    17   11    9 ar   
    18   13   12 am   
    19   25   12 1    
    20   14   13 2    
    21   15   13 1    
    22   16   15 ar   
    23   21   15 ar   
    24   17   16 ar   
    25   38   16 1    
    26   18   17 1    
    27   19   17 ar   
    28   20   19 ar   
    29   39   19 1    
    30   21   20 ar   
    31   40   20 1    
    32   22   21 1    
    33   23   22 am   
    34   41   22 1    
    35   24   23 2    
    36   25   23 1    
    37   26   25 1    
    38   42   25 1    
    39   27   26 ar   
    40   32   26 ar   
    41   28   27 ar   
    42   43   27 1    
    43   29   28 ar   
    44   44   28 1    
    45   30   29 1    
    46   31   29 ar   
    47   32   31 ar   
    48   45   31 1    
    49   46   32 1    
@<TRIPOS>SUBSTRUCTURE
     1 DIZ112      1 GROUP   
@<TRIPOS>SET

