#    Name: 3nbp_JGZ_1_INTS_M
#    Modification time : Tue Mar 25 01:11:51 2014

@<TRIPOS>MOLECULE
3nbp_JGZ_1_INTS_M
   87     0     9     0     0
SMALL
NO_CHARGES


@<TRIPOS>ATOM
      1 CA         48.6580   59.7410   12.0845 C.3       3 GLC5        0.0000 
      2 CA         47.9980   60.8090   13.8520 C.3       9 GLL5        0.0000 
      3 CA         49.3180   58.6730   10.3170 C.3       6 GLP5        0.0000 
      4 N          50.4480   60.7840   12.7240 N.am      2 SEC2        0.0000 
      5 N          49.1870   61.4220   13.5880 N.am      8 SEL2        0.0000 
      6 N          51.7090   60.1460   11.8600 N.am      5 SEP2        0.0000 
      7 CA         51.0900   61.0935   14.7500 C.3       3 GLC5        0.0000 
      8 CA         49.7610   62.2320   14.4940 C.3       9 GLL5        0.0000 
      9 CA         52.4190   59.9550   15.0060 C.3       6 GLP5        0.0000 
     10 CA         47.7135   63.0145   14.1230 C.3       3 GLC5        0.0000 
     11 CA         45.6660   63.7970   13.7520 C.3       6 GLP5        0.0000 
     12 O          51.4625   62.8395   12.9640 O.2       1 ALC1        0.0000 
     13 O          50.9690   62.8810   14.2650 O.2       7 ALL1        0.0000 
     14 O          51.9560   62.7980   11.6630 O.2       4 ALP1        0.0000 
     15 CA         50.5540   65.9380   12.8100 C.3       3 GLC5        0.0000 
     16 CA         50.9560   65.1080   14.6120 C.3       9 GLL5        0.0000 
     17 CA         50.1520   66.7680   11.0080 C.3       6 GLP5        0.0000 
     18 CA         54.3385   68.9525   19.1465 C.3       3 GLC5        0.0000 
     19 CA         54.7020   69.1630   16.9520 C.3       9 GLL5        0.0000 
     20 CA         53.9750   68.7420   21.3410 C.3       6 GLP5        0.0000 
     21 CA         56.6860   68.4820   17.1375 C.3       3 GLC5        0.0000 
     22 CA         58.6700   67.8010   17.3230 C.3       6 GLP5        0.0000 
     23 CA         54.7405   66.5585   18.2130 C.3       3 GLC5        0.0000 
     24 CA         54.2100   67.8910   16.6640 C.3       9 GLL5        0.0000 
     25 CA         55.2710   65.2260   19.7620 C.3       6 GLP5        0.0000 
     26 CA         49.2270   66.8535   17.7360 C.3       3 GLC5        0.0000 
     27 CA         48.8810   65.0680   18.6750 C.3       9 GLL5        0.0000 
     28 CA         49.5730   68.6390   16.7970 C.3       6 GLP5        0.0000 
     29 CA         50.5040   61.5955   18.3105 C.3       3 GLC5        0.0000 
     30 CA         48.6810   62.3830   19.2660 C.3       9 GLL5        0.0000 
     31 CA         52.3270   60.8080   17.3550 C.3       6 GLP5        0.0000 
     32 CA         48.6975   58.9070   19.6165 C.3       3 GLC5        0.0000 
     33 CA         48.5970   60.9130   19.6040 C.3       9 GLL5        0.0000 
     34 CA         48.7980   56.9010   19.6290 C.3       6 GLP5        0.0000 
     35 CA         49.5320   60.1330   18.0730 C.3       3 GLC5        0.0000 
     36 CA         50.4670   59.3530   16.5420 C.3       6 GLP5        0.0000 
     37 CA         47.0980   61.0970   20.5055 C.3       3 GLC5        0.0000 
     38 CA         45.5990   61.2810   21.4070 C.3       6 GLP5        0.0000 
     39 CA         49.0540   60.3905   21.2495 C.3       3 GLC5        0.0000 
     40 CA         49.5110   59.8680   22.8950 C.3       6 GLP5        0.0000 
     41 CA         48.5385   66.7780   16.7120 C.3       3 GLC5        0.0000 
     42 CA         47.5040   64.9170   16.6270 C.3       9 GLL5        0.0000 
     43 CA         46.5850   64.3570   15.1895 C.3       3 GLC5        0.0000 
     44 CA         47.0575   66.4960   15.1920 C.3       3 GLC5        0.0000 
     45 CA         46.6110   68.0750   13.7570 C.3       6 GLP5        0.0000 
     46 CA         48.7680   65.8850   21.5285 C.3       3 GLC5        0.0000 
     47 CA         50.2240   65.4670   20.6550 C.3       9 GLL5        0.0000 
     48 CA         47.3120   66.3030   22.4020 C.3       6 GLP5        0.0000 
     49 CA         50.7125   64.2410   22.1220 C.3       3 GLC5        0.0000 
     50 CA         51.2010   63.0150   23.5890 C.3       6 GLP5        0.0000 
     51 CA         47.1337   59.0517   15.1840 C.3       3 GLC5        0.0000 
     52 CA         47.3230   60.9860   15.0760 C.3       9 GLL5        0.0000 
     53 CA         46.6070   57.2060   15.9040 C.3       6 GLP5        0.0000 
     54 CA         49.1393   60.2288   15.6180 C.3       3 GLC5        0.0000 
     55 CA         46.7387   62.4507   14.2230 C.3       3 GLC5        0.0000 
     56 CA         47.9270   61.8140   15.9960 C.3       9 GLL5        0.0000 
     57 CA         52.2680   62.3182   16.2963 C.3       3 GLC5        0.0000 
     58 CA         51.4520   63.8230   15.2250 C.3       9 GLL5        0.0000 
     59 CA         53.3028   64.0577   17.6068 C.3       3 GLC5        0.0000 
     60 CA         52.9660   63.8340   15.2500 C.3       9 GLL5        0.0000 
     61 CA         53.3590   63.6280   19.6640 C.3       6 GLP5        0.0000 
     62 CA         54.8163   63.8758   15.4908 C.3       3 GLC5        0.0000 
     63 CA         53.5270   65.1410   15.8490 C.3       9 GLL5        0.0000 
     64 CA         56.3860   63.2640   15.4320 C.3       6 GLP5        0.0000 
     65 CA         50.4213   67.1810   15.8688 C.3       3 GLC5        0.0000 
     66 CA         51.5830   66.3380   15.2690 C.3       9 GLL5        0.0000 
     67 CA         52.4138   69.2630   16.0015 C.3       3 GLC5        0.0000 
     68 CA         53.5410   67.6030   15.4520 C.3       9 GLL5        0.0000 
     69 CA         51.3690   70.4010   17.0110 C.3       6 GLP5        0.0000 
     70 CA         55.3282   68.2810   14.3800 C.3       3 GLC5        0.0000 
     71 CA         53.3760   68.6470   14.5320 C.3       9 GLL5        0.0000 
     72 CA         57.1980   68.4370   13.7680 C.3       6 GLP5        0.0000 
     73 CA         52.7867   70.2270   16.2075 C.3       3 GLC5        0.0000 
     74 CA         53.8720   69.9210   14.7950 C.3       9 GLL5        0.0000 
     75 CA         55.7013   69.2450   14.5860 C.3       3 GLC5        0.0000 
     76 CA         54.5370   70.1850   16.0130 C.3       9 GLL5        0.0000 
     77 CA         52.9125   69.4640   16.9095 C.3       3 GLC5        0.0000 
     78 CA         55.8270   68.4820   15.2880 C.3       3 GLC5        0.0000 
     79 CA         47.5799   64.9104   20.0306 C.3       3 GLC5        0.0000 
     80 CA         49.3820   63.2140   20.1290 C.3       9 GLL5        0.0000 
     81 CA         45.8760   65.8060   20.3720 C.3       6 GLP5        0.0000 
     82 CA         46.5071   62.4124   18.8736 C.3       3 GLC5        0.0000 
     83 CA         48.0520   62.8920   18.0910 C.3       9 GLL5        0.0000 
     84 CA         44.6200   61.8420   19.1330 C.3       6 GLP5        0.0000 
     85 CA         46.8409   65.0279   18.8334 C.3       3 GLC5        0.0000 
     86 CA         51.5945   64.1529   19.9899 C.3       3 GLC5        0.0000 
     87 CA         49.4900   64.5630   19.8240 C.3       9 GLL5        0.0000 
@<TRIPOS>BOND
@<TRIPOS>SUBSTRUCTURE
     1 ALC1       12 GROUP        1 X    ALC  0     ROOT ALC X 1
     2 SEC2        4 GROUP        1 X    SEC  0     **** SEC X 2
     3 GLC5        1 GROUP        1 X    GLC  0     **** GLC X 6
     4 ALP1       14 GROUP        1 Y    ALP  0     ROOT ALP Y 8
     5 SEP2        6 GROUP        1 Y    SEP  0     **** SEP Y 9
     6 GLP5        3 GROUP        1 Y    GLP  0     **** GLP Y 13
     7 ALL1       13 GROUP        1 Z    ALL  0     ROOT ALL Z 15
     8 SEL2        5 GROUP        1 Z    SEL  0     **** SEL Z 16
     9 GLL5        2 GROUP        1 Z    GLL  0     **** GLL Z 20
@<TRIPOS>SET

