#    Name: 3nbp_JGZ_1_ligand
#    Modification time : Tue Mar 25 01:11:51 2014

@<TRIPOS>MOLECULE
3nbp_JGZ_1_ligand
   60    63     1     0     0
SMALL
NO_CHARGES


@<TRIPOS>ATOM
      1 C1         47.9270   61.8140   15.9960 C.ar      1 JGZ562      0.0000 
      2 C2         47.3230   60.9860   15.0760 C.ar      1 JGZ562      0.0000 
      3 C3         47.9980   60.8090   13.8520 C.ar      1 JGZ562      0.0000 
      4 N4         49.1870   61.4220   13.5880 N.ar      1 JGZ562      0.0000 
      5 C5         49.7610   62.2320   14.4940 C.ar      1 JGZ562      0.0000 
      6 N6         49.1220   62.3860   15.6530 N.ar      1 JGZ562      0.0000 
      7 O7         47.3490   62.0550   17.1960 O.3       1 JGZ562      0.0000 
      8 C8         48.0520   62.8920   18.0910 C.ar      1 JGZ562      0.0000 
      9 N9         50.9690   62.8810   14.2650 N.pl3     1 JGZ562      0.0000 
     10 C10        51.4520   63.8230   15.2250 C.3       1 JGZ562      0.0000 
     11 C11        52.9660   63.8340   15.2500 C.3       1 JGZ562      0.0000 
     12 C12        53.5270   65.1410   15.8490 C.3       1 JGZ562      0.0000 
     13 N13        53.0250   66.3200   15.1230 N.3       1 JGZ562      0.0000 
     14 C14        51.5830   66.3380   15.2690 C.3       1 JGZ562      0.0000 
     15 C15        50.9560   65.1080   14.6120 C.3       1 JGZ562      0.0000 
     16 C16        53.5410   67.6030   15.4520 C.ar      1 JGZ562      0.0000 
     17 C17        53.3760   68.6470   14.5320 C.ar      1 JGZ562      0.0000 
     18 C18        53.8720   69.9210   14.7950 C.ar      1 JGZ562      0.0000 
     19 C19        54.5370   70.1850   16.0130 C.ar      1 JGZ562      0.0000 
     20 C20        54.7020   69.1630   16.9520 C.ar      1 JGZ562      0.0000 
     21 C21        54.2100   67.8910   16.6640 C.ar      1 JGZ562      0.0000 
     22 C22        48.1630   64.2730   17.8340 C.ar      1 JGZ562      0.0000 
     23 C23        48.8810   65.0680   18.6750 C.ar      1 JGZ562      0.0000 
     24 C24        49.4900   64.5630   19.8240 C.ar      1 JGZ562      0.0000 
     25 C25        49.3820   63.2140   20.1290 C.ar      1 JGZ562      0.0000 
     26 C26        48.6810   62.3830   19.2660 C.ar      1 JGZ562      0.0000 
     27 C27        48.5970   60.9130   19.6040 C.3       1 JGZ562      0.0000 
     28 C28        47.5040   64.9170   16.6270 C.3       1 JGZ562      0.0000 
     29 C29        50.2240   65.4670   20.6550 C.1       1 JGZ562      0.0000 
     30 N30        50.8060   66.1840   21.3120 N.1       1 JGZ562      0.0000 
     31 S31        55.1250   71.8220   16.3470 S.o2      1 JGZ562      0.0000 
     32 N32        54.0780   72.8540   15.5750 N.pl3     1 JGZ562      0.0000 
     33 O33        55.0210   71.9700   17.7410 O.2       1 JGZ562      0.0000 
     34 O34        56.3470   71.9790   15.6550 O.2       1 JGZ562      0.0000 
     35 H          46.4493   60.5264   15.2532 H         1 JGZ562      0.0000 
     36 H          47.5589   60.1863   13.1386 H         1 JGZ562      0.0000 
     37 H          51.5171   62.6991   13.4270 H         1 JGZ562      0.0000 
     38 H          51.0391   63.6964   16.1597 H         1 JGZ562      0.0000 
     39 H          53.3525   63.7236   14.2325 H         1 JGZ562      0.0000 
     40 H          53.3311   62.9929   15.8467 H         1 JGZ562      0.0000 
     41 H          54.6203   65.0921   15.8019 H         1 JGZ562      0.0000 
     42 H          53.2357   65.1813   16.9041 H         1 JGZ562      0.0000 
     43 H          51.1485   67.2306   14.8008 H         1 JGZ562      0.0000 
     44 H          51.2919   66.3421   16.3273 H         1 JGZ562      0.0000 
     45 H          49.8664   65.1691   14.7161 H         1 JGZ562      0.0000 
     46 H          51.1923   65.1206   13.5416 H         1 JGZ562      0.0000 
     47 H          52.8775   68.4644   13.6451 H         1 JGZ562      0.0000 
     48 H          53.7591   70.6748   14.1095 H         1 JGZ562      0.0000 
     49 H          55.1767   69.3473   17.8363 H         1 JGZ562      0.0000 
     50 H          54.3342   67.1261   17.3548 H         1 JGZ562      0.0000 
     51 H          48.9870   66.0866   18.4662 H         1 JGZ562      0.0000 
     52 H          49.8120   62.8372   20.9764 H         1 JGZ562      0.0000 
     53 H          54.2756   73.8301   15.6654 H         1 JGZ562      0.0000 
     54 H          53.3255   72.4248   15.0755 H         1 JGZ562      0.0000 
     55 H          48.9962   60.3433   18.8856 H         1 JGZ562      0.0000 
     56 H          49.0822   60.6985   20.4517 H         1 JGZ562      0.0000 
     57 H          47.6506   60.6130   19.7240 H         1 JGZ562      0.0000 
     58 H          47.6763   65.9014   16.5909 H         1 JGZ562      0.0000 
     59 H          47.8405   64.5289   15.7690 H         1 JGZ562      0.0000 
     60 H          46.5117   64.7932   16.6355 H         1 JGZ562      0.0000 
@<TRIPOS>BOND
     1    2    1 ar   
     2    6    1 ar   
     3    7    1 1    
     4    3    2 ar   
     5   35    2 1    
     6    4    3 ar   
     7   36    3 1    
     8    5    4 ar   
     9    6    5 ar   
    10    9    5 1    
    11    8    7 1    
    12   22    8 ar   
    13   26    8 ar   
    14   10    9 1    
    15   37    9 1    
    16   11   10 1    
    17   15   10 1    
    18   38   10 1    
    19   12   11 1    
    20   39   11 1    
    21   40   11 1    
    22   13   12 1    
    23   41   12 1    
    24   42   12 1    
    25   14   13 1    
    26   16   13 1    
    27   15   14 1    
    28   43   14 1    
    29   44   14 1    
    30   45   15 1    
    31   46   15 1    
    32   17   16 ar   
    33   21   16 ar   
    34   18   17 ar   
    35   47   17 1    
    36   19   18 ar   
    37   48   18 1    
    38   20   19 ar   
    39   31   19 1    
    40   21   20 ar   
    41   49   20 1    
    42   50   21 1    
    43   23   22 ar   
    44   28   22 1    
    45   24   23 ar   
    46   51   23 1    
    47   25   24 ar   
    48   29   24 1    
    49   26   25 ar   
    50   52   25 1    
    51   27   26 1    
    52   55   27 1    
    53   56   27 1    
    54   57   27 1    
    55   58   28 1    
    56   59   28 1    
    57   60   28 1    
    58   30   29 3    
    59   32   31 1    
    60   33   31 2    
    61   34   31 2    
    62   53   32 1    
    63   54   32 1    
@<TRIPOS>SUBSTRUCTURE
     1 JGZ562      1 GROUP   
@<TRIPOS>SET

