#    Name: 1evj_NAD_2_INTS_M
#    Modification time : Tue Mar 25 00:18:35 2014

@<TRIPOS>MOLECULE
1evj_NAD_2_INTS_M
   85     0    12     0     0
SMALL
NO_CHARGES


@<TRIPOS>ATOM
      1 N          71.3160  104.1255   51.2190 N.am      2 SEC2        0.0000 
      2 N          71.4250  105.2340   52.3880 N.am     10 SEL2        0.0000 
      3 N          71.2070  103.0170   50.0500 N.am      6 SEP2        0.0000 
      4 N          70.2475  108.0370   54.3485 N.am      2 SEC2        0.0000 
      5 N          71.0960  107.5810   53.3170 N.am     10 SEL2        0.0000 
      6 N          69.3990  108.4930   55.3800 N.am      6 SEP2        0.0000 
      7 CA         68.0145  108.2240   47.7430 C.3       4 GLC5        0.0000 
      8 CA         69.1890  108.5860   49.5190 C.3      12 GLL5        0.0000 
      9 CA         66.8400  107.8620   45.9670 C.3       8 GLP5        0.0000 
     10 CA         67.5150  109.5565   48.6180 C.3       4 GLC5        0.0000 
     11 CA         65.8410  110.5270   47.7170 C.3       8 GLP5        0.0000 
     12 O          70.3975  109.0445   45.9575 O.2       1 ALC1        0.0000 
     13 O          70.2930  108.3880   47.3240 O.2       9 ALL1        0.0000 
     14 O          70.5020  109.7010   44.5910 O.2       5 ALP1        0.0000 
     15 CA         67.6700  110.6870   48.3315 C.3       4 GLC5        0.0000 
     16 CA         69.4990  110.8470   48.9460 C.3      12 GLL5        0.0000 
     17 CA         68.2095  111.0125   50.5740 C.3       4 GLC5        0.0000 
     18 CA         66.9200  111.1780   52.2020 C.3       8 GLP5        0.0000 
     19 CA         69.5180  112.0345   53.1805 C.3       4 GLC5        0.0000 
     20 CA         71.3870  112.5110   52.8840 C.3      12 GLL5        0.0000 
     21 CA         67.6490  111.5580   53.4770 C.3       8 GLP5        0.0000 
     22 CA         70.7845  112.1715   54.8290 C.3       4 GLC5        0.0000 
     23 CA         70.1820  111.8320   56.7740 C.3       8 GLP5        0.0000 
     24 CA         68.4690  111.7740   51.5875 C.3       4 GLC5        0.0000 
     25 CA         70.0180  112.3700   50.9730 C.3      12 GLL5        0.0000 
     26 N          69.3145  107.2115   54.3855 N.am      2 SEC2        0.0000 
     27 N          69.2300  105.9300   53.3910 N.am     10 SEL2        0.0000 
     28 N          68.7060  102.6310   51.3930 N.am      2 SEC2        0.0000 
     29 N          68.3410  104.0640   51.9800 N.am     10 SEL2        0.0000 
     30 N          69.0710  101.1980   50.8060 N.am      6 SEP2        0.0000 
     31 NZ         69.4330  104.4730   55.8550 N.4       3 LYC4        0.0000 
     32 NZ         68.9270  103.6810   54.4230 N.4      11 LYL4        0.0000 
     33 NZ         68.7840  104.7480   57.6980 N.4       7 LYP4        0.0000 
     34 N          69.4330  104.4730   55.8550 N.am      2 SEC2        0.0000 
     35 N          68.9270  103.6810   54.4230 N.am     10 SEL2        0.0000 
     36 N          69.9390  105.2650   57.2870 N.am      6 SEP2        0.0000 
     37 N          68.4840  103.8530   55.6420 N.am      2 SEC2        0.0000 
     38 N          68.0410  104.0250   56.8610 N.am      6 SEP2        0.0000 
     39 CA         66.6120  106.8125   54.6200 C.3       4 GLC5        0.0000 
     40 CA         66.0570  105.7970   52.9130 C.3      12 GLL5        0.0000 
     41 CA         67.1670  107.8280   56.3270 C.3       8 GLP5        0.0000 
     42 CA         62.5715  105.1180   52.8120 C.3       4 GLC5        0.0000 
     43 CA         64.5550  105.6940   53.2510 C.3      12 GLL5        0.0000 
     44 CA         60.5880  104.5420   52.3730 C.3       8 GLP5        0.0000 
     45 CA         62.2845  107.3280   54.4285 C.3       4 GLC5        0.0000 
     46 CA         64.2000  106.2050   54.6520 C.3      12 GLL5        0.0000 
     47 CA         60.3690  108.4510   54.2050 C.3       8 GLP5        0.0000 
     48 O          62.7995  107.6600   55.8655 O.2       1 ALC1        0.0000 
     49 O          62.9140  106.8240   54.6950 O.2       9 ALL1        0.0000 
     50 O          62.6850  108.4960   57.0360 O.2       5 ALP1        0.0000 
     51 N          62.9580  103.6505   57.5070 N.am      2 SEC2        0.0000 
     52 N          63.4510  105.0370   56.6820 N.am     10 SEL2        0.0000 
     53 N          62.4650  102.2640   58.3320 N.am      6 SEP2        0.0000 
     54 O          62.1540  105.0685   56.5055 O.2       1 ALC1        0.0000 
     55 O          63.4510  105.0370   56.6820 O.2       9 ALL1        0.0000 
     56 O          60.8570  105.1000   56.3290 O.2       5 ALP1        0.0000 
     57 CA         62.4510  103.5660   53.1950 C.3       4 GLC5        0.0000 
     58 CA         63.7220  103.8910   54.5170 C.3      12 GLL5        0.0000 
     59 CA         61.1800  103.2410   51.8730 C.3       8 GLP5        0.0000 
     60 CA         62.2310  102.3455   53.3950 C.3       4 GLC5        0.0000 
     61 CA         63.2820  101.4500   54.9170 C.3      12 GLL5        0.0000 
     62 CA         62.2225  102.1015   56.3455 C.3       4 GLC5        0.0000 
     63 CA         61.1630  102.7530   57.7740 C.3       8 GLP5        0.0000 
     64 N          62.4945   96.7035   55.1910 N.am      2 SEC2        0.0000 
     65 N          63.1890   97.7860   55.1570 N.am     10 SEL2        0.0000 
     66 N          61.8000   95.6210   55.2250 N.am      6 SEP2        0.0000 
     67 N          62.9700   96.5320   56.2270 N.am      2 SEC2        0.0000 
     68 N          62.7510   95.2780   57.2970 N.am      6 SEP2        0.0000 
     69 O          61.0070  100.5770   54.2745 O.2       1 ALC1        0.0000 
     70 O          61.4670   99.1760   54.7520 O.2       9 ALL1        0.0000 
     71 O          60.5470  101.9780   53.7970 O.2       5 ALP1        0.0000 
     72 CA         68.1090  109.7875   51.2290 C.3       4 GLC5        0.0000 
     73 CA         69.4070  108.2080   50.9930 C.3      12 GLL5        0.0000 
     74 CA         70.2712  106.6855   48.7720 C.3       4 GLC5        0.0000 
     75 CA         70.7070  104.7290   48.4280 C.3       8 GLP5        0.0000 
     76 CA         68.8153  112.8210   52.5785 C.3       4 GLC5        0.0000 
     77 CA         69.7160  113.6980   51.1600 C.3      12 GLL5        0.0000 
     78 CA         65.1785  105.0888   51.2550 C.3       4 GLC5        0.0000 
     79 CA         65.0510  104.4320   49.4280 C.3       8 GLP5        0.0000 
     80 CA         65.6958  106.6995   55.7005 C.3       4 GLC5        0.0000 
     81 CA         62.5742  103.5835   56.3903 C.3       4 GLC5        0.0000 
     82 CA         64.2490  104.9370   55.4960 C.3      12 GLL5        0.0000 
     83 CA         66.1676  101.1614   53.2881 C.3       4 GLC5        0.0000 
     84 CA         66.0710  100.9300   55.1700 C.3      12 GLL5        0.0000 
     85 CA         66.7260  100.9970   51.5190 C.3       8 GLP5        0.0000 
@<TRIPOS>BOND
@<TRIPOS>SUBSTRUCTURE
     1 ALC1       12 GROUP        1 X    ALC  0     ROOT ALC X 1
     2 SEC2        1 GROUP        1 X    SEC  0     **** SEC X 2
     3 LYC4       31 GROUP        1 X    LYC  0     **** LYC X 4
     4 GLC5        7 GROUP        1 X    GLC  0     **** GLC X 6
     5 ALP1       14 GROUP        1 Y    ALP  0     ROOT ALP Y 8
     6 SEP2        3 GROUP        1 Y    SEP  0     **** SEP Y 9
     7 LYP4       33 GROUP        1 Y    LYP  0     **** LYP Y 11
     8 GLP5        9 GROUP        1 Y    GLP  0     **** GLP Y 13
     9 ALL1       13 GROUP        1 Z    ALL  0     ROOT ALL Z 15
    10 SEL2        2 GROUP        1 Z    SEL  0     **** SEL Z 16
    11 LYL4       32 GROUP        1 Z    LYL  0     **** LYL Z 18
    12 GLL5        8 GROUP        1 Z    GLL  0     **** GLL Z 20
@<TRIPOS>SET

