#    Name: 1evj_NAD_2_ligand
#    Modification time : Tue Mar 25 00:18:35 2014

@<TRIPOS>MOLECULE
1evj_NAD_2_ligand
   70    74     1     0     0
SMALL
NO_CHARGES


@<TRIPOS>ATOM
      1 PA         70.5460  106.4070   52.6090 P.3       1 NAD501      0.0000 
      2 O1A        71.4250  105.2340   52.3880 O.co2     1 NAD501      0.0000 
      3 O2A        71.0960  107.5810   53.3170 O.co2     1 NAD501      0.0000 
      4 O5B        69.9440  106.8840   51.1890 O.3       1 NAD501      0.0000 
      5 C5B        69.4070  108.2080   50.9930 C.3       1 NAD501      0.0000 
      6 C4B        69.1890  108.5860   49.5190 C.3       1 NAD501      0.0000 
      7 O4B        68.5480  109.8740   49.4230 O.3       1 NAD501      0.0000 
      8 C3B        70.4820  108.6980   48.7130 C.3       1 NAD501      0.0000 
      9 O3B        70.2930  108.3880   47.3240 O.3       1 NAD501      0.0000 
     10 C2B        70.8660  110.1520   48.9290 C.3       1 NAD501      0.0000 
     11 O2B        71.7170  110.6430   47.8880 O.3       1 NAD501      0.0000 
     12 C1B        69.4990  110.8470   48.9460 C.3       1 NAD501      0.0000 
     13 N9A        69.4120  112.0920   49.7680 N.pl3     1 NAD501      0.0000 
     14 C8A        68.6580  113.1870   49.4040 C.2       1 NAD501      0.0000 
     15 N7A        68.8890  114.1710   50.2670 N.2       1 NAD501      0.0000 
     16 C5A        69.7160  113.6980   51.1600 C.ar      1 NAD501      0.0000 
     17 C6A        70.2470  114.4700   52.2000 C.ar      1 NAD501      0.0000 
     18 N6A        69.7460  115.6610   52.5340 N.pl3     1 NAD501      0.0000 
     19 N1A        71.1920  113.8720   53.0000 N.ar      1 NAD501      0.0000 
     20 C2A        71.3870  112.5110   52.8840 C.ar      1 NAD501      0.0000 
     21 N3A        70.7650  111.7320   51.9340 N.ar      1 NAD501      0.0000 
     22 C4A        70.0180  112.3700   50.9730 C.ar      1 NAD501      0.0000 
     23 O3         69.2300  105.9300   53.3910 O.3       1 NAD501      0.0000 
     24 PN         68.3920  104.5700   53.3680 P.3       1 NAD501      0.0000 
     25 O1N        68.3410  104.0640   51.9800 O.co2     1 NAD501      0.0000 
     26 O2N        68.9270  103.6810   54.4230 O.co2     1 NAD501      0.0000 
     27 O5D        66.9290  105.0680   53.8040 O.3       1 NAD501      0.0000 
     28 C5D        66.0570  105.7970   52.9130 C.3       1 NAD501      0.0000 
     29 C4D        64.5550  105.6940   53.2510 C.3       1 NAD501      0.0000 
     30 O4D        64.1180  104.3240   53.1970 O.3       1 NAD501      0.0000 
     31 C3D        64.2000  106.2050   54.6520 C.3       1 NAD501      0.0000 
     32 O3D        62.9140  106.8240   54.6950 O.3       1 NAD501      0.0000 
     33 C2D        64.2490  104.9370   55.4960 C.3       1 NAD501      0.0000 
     34 O2D        63.4510  105.0370   56.6820 O.3       1 NAD501      0.0000 
     35 C1D        63.7220  103.8910   54.5170 C.3       1 NAD501      0.0000 
     36 N1N        64.2210  102.5130   54.7990 N.pl3     1 NAD501      0.0000 
     37 C2N        63.2820  101.4500   54.9170 C.ar      1 NAD501      0.0000 
     38 C3N        63.7250  100.1220   55.0930 C.ar      1 NAD501      0.0000 
     39 C7N        62.7580   98.9240   55.0050 C.2       1 NAD501      0.0000 
     40 O7N        63.1890   97.7860   55.1570 O.2       1 NAD501      0.0000 
     41 N7N        61.4670   99.1760   54.7520 N.am      1 NAD501      0.0000 
     42 C4N        65.1080   99.9090   55.3450 C.ar      1 NAD501      0.0000 
     43 C5N        66.0710  100.9300   55.1700 C.ar      1 NAD501      0.0000 
     44 C6N        65.6290  102.2320   54.8570 C.ar      1 NAD501      0.0000 
     45 H          70.0744  108.9792   51.4365 H         1 NAD501      0.0000 
     46 H          68.4299  108.3233   51.5115 H         1 NAD501      0.0000 
     47 H          68.5676  107.8331   49.0526 H         1 NAD501      0.0000 
     48 H          71.2163  108.0912   49.1927 H         1 NAD501      0.0000 
     49 H          71.2832  110.2388   49.9058 H         1 NAD501      0.0000 
     50 H          69.2488  111.0878   47.9021 H         1 NAD501      0.0000 
     51 H          68.0661  113.2074   48.6403 H         1 NAD501      0.0000 
     52 H          68.9509  115.9665   52.0101 H         1 NAD501      0.0000 
     53 H          70.2107  116.1408   53.2782 H         1 NAD501      0.0000 
     54 H          72.0495  112.0423   53.5611 H         1 NAD501      0.0000 
     55 H          66.1807  105.4504   51.8614 H         1 NAD501      0.0000 
     56 H          66.3161  106.8805   52.8990 H         1 NAD501      0.0000 
     57 H          63.9979  106.2854   52.5320 H         1 NAD501      0.0000 
     58 H          64.9951  106.8410   54.9742 H         1 NAD501      0.0000 
     59 H          65.2765  104.7140   55.6838 H         1 NAD501      0.0000 
     60 H          62.6335  103.9040   54.5853 H         1 NAD501      0.0000 
     61 H          62.2814  101.6555   54.8733 H         1 NAD501      0.0000 
     62 H          60.8617   98.3807   54.7187 H         1 NAD501      0.0000 
     63 H          61.2241  100.1369   54.6190 H         1 NAD501      0.0000 
     64 H          65.4169   98.9755   55.6668 H         1 NAD501      0.0000 
     65 H          67.0578  100.7281   55.2679 H         1 NAD501      0.0000 
     66 H          66.2942  102.9768   54.6713 H         1 NAD501      0.0000 
     67 H          70.5419  109.2246   46.8360 H         1 NAD501      0.0000 
     68 H          71.3631  111.5531   47.6722 H         1 NAD501      0.0000 
     69 H          62.9180  107.3709   55.5322 H         1 NAD501      0.0000 
     70 H          62.5047  105.0218   56.3591 H         1 NAD501      0.0000 
@<TRIPOS>BOND
     1    2    1 ar   
     2    3    1 ar   
     3    4    1 1    
     4   23    1 1    
     5    5    4 1    
     6    6    5 1    
     7   45    5 1    
     8   46    5 1    
     9    7    6 1    
    10    8    6 1    
    11   47    6 1    
    12   12    7 1    
    13    9    8 1    
    14   10    8 1    
    15   48    8 1    
    16   67    9 1    
    17   11   10 1    
    18   12   10 1    
    19   49   10 1    
    20   68   11 1    
    21   13   12 1    
    22   50   12 1    
    23   14   13 1    
    24   22   13 1    
    25   15   14 2    
    26   51   14 1    
    27   16   15 1    
    28   17   16 ar   
    29   22   16 ar   
    30   18   17 1    
    31   19   17 ar   
    32   52   18 1    
    33   53   18 1    
    34   20   19 ar   
    35   21   20 ar   
    36   54   20 1    
    37   22   21 ar   
    38   24   23 1    
    39   25   24 ar   
    40   26   24 ar   
    41   27   24 1    
    42   28   27 1    
    43   29   28 1    
    44   55   28 1    
    45   56   28 1    
    46   30   29 1    
    47   31   29 1    
    48   57   29 1    
    49   35   30 1    
    50   32   31 1    
    51   33   31 1    
    52   58   31 1    
    53   69   32 1    
    54   34   33 1    
    55   35   33 1    
    56   59   33 1    
    57   70   34 1    
    58   36   35 1    
    59   60   35 1    
    60   37   36 ar   
    61   44   36 ar   
    62   38   37 ar   
    63   61   37 1    
    64   39   38 1    
    65   42   38 ar   
    66   40   39 2    
    67   41   39 am   
    68   62   41 1    
    69   63   41 1    
    70   43   42 ar   
    71   64   42 1    
    72   44   43 ar   
    73   65   43 1    
    74   66   44 1    
@<TRIPOS>SUBSTRUCTURE
     1 NAD501      1 GROUP   
@<TRIPOS>SET

