#    Name: 3o64_786_2_INTS_M
#    Modification time : Tue Mar 25 03:17:37 2014

@<TRIPOS>MOLECULE
3o64_786_2_INTS_M
   75     0    12     0     0
SMALL
NO_CHARGES


@<TRIPOS>ATOM
      1 CA         49.9925   36.5920   33.2240 C.3       4 GLC5        0.0000 
      2 CA         50.3740   35.3450   34.7750 C.3      12 GLL5        0.0000 
      3 CA         49.6110   37.8390   31.6730 C.3       8 GLP5        0.0000 
      4 CA         47.0405   35.5105   34.9480 C.3       4 GLC5        0.0000 
      5 CA         49.0530   34.7020   35.2340 C.3      12 GLL5        0.0000 
      6 CA         45.0280   36.3190   34.6620 C.3       8 GLP5        0.0000 
      7 Zn         52.3455   35.4710   39.7080 Zn        3 ZIC7        0.0000 
      8 Zn         52.1250   35.7140   38.5950 Zn       11 ZIL7        0.0000 
      9 Zn         52.5660   35.2280   40.8210 Zn        7 ZIP7        0.0000 
     10 CA         50.8430   35.1570   41.6370 C.3       4 GLC5        0.0000 
     11 CA         50.0500   35.0120   39.6090 C.3      12 GLL5        0.0000 
     12 CA         51.6360   35.3020   43.6650 C.3       8 GLP5        0.0000 
     13 Zn         51.6395   35.4205   40.7570 Zn        3 ZIC7        0.0000 
     14 Zn         50.7130   35.6130   40.6930 Zn       11 ZIL7        0.0000 
     15 O          49.6990   36.0185   41.4705 O.2       1 ALC1        0.0000 
     16 O          50.7130   35.6130   40.6930 O.2       9 ALL1        0.0000 
     17 O          48.6850   36.4240   42.2480 O.2       5 ALP1        0.0000 
     18 N          46.4700   32.6220   40.4895 N.am      2 SEC2        0.0000 
     19 N          47.9420   32.9010   40.4720 N.am     10 SEL2        0.0000 
     20 N          44.9980   32.3430   40.5070 N.am      6 SEP2        0.0000 
     21 N          46.5960   33.9430   40.8015 N.am      2 SEC2        0.0000 
     22 N          45.2500   34.9850   41.1310 N.am      6 SEP2        0.0000 
     23 Zn         52.0750   34.2360   40.5280 Zn        3 ZIC7        0.0000 
     24 Zn         51.5840   33.2440   40.2350 Zn       11 ZIL7        0.0000 
     25 O          52.0965   31.8930   40.2645 O.2       1 ALC1        0.0000 
     26 O          51.5840   33.2440   40.2350 O.2       9 ALL1        0.0000 
     27 O          52.6090   30.5420   40.2940 O.2       5 ALP1        0.0000 
     28 CA         47.0940   30.5360   44.5920 C.3       4 GLC5        0.0000 
     29 CA         48.9270   31.1400   45.4290 C.3      12 GLL5        0.0000 
     30 CA         45.2610   29.9320   43.7550 C.3       8 GLP5        0.0000 
     31 CA         46.9640   31.9935   45.9525 C.3       4 GLC5        0.0000 
     32 CA         45.0010   32.8470   46.4760 C.3       8 GLP5        0.0000 
     33 CA         49.1015   30.9965   48.3700 C.3       4 GLC5        0.0000 
     34 CA         49.6830   30.4070   46.3800 C.3      12 GLL5        0.0000 
     35 CA         48.5200   31.5860   50.3600 C.3       8 GLP5        0.0000 
     36 CA         53.3175   26.4820   47.7650 C.3       4 GLC5        0.0000 
     37 CA         53.3570   28.4400   48.3260 C.3      12 GLL5        0.0000 
     38 CA         53.2780   24.5240   47.2040 C.3       8 GLP5        0.0000 
     39 CA         53.1030   28.0095   50.2690 C.3       4 GLC5        0.0000 
     40 CA         52.8490   27.5790   52.2120 C.3       8 GLP5        0.0000 
     41 CA         51.7245   28.7435   37.9795 C.3       4 GLC5        0.0000 
     42 CA         51.4700   30.2370   36.9190 C.3      12 GLL5        0.0000 
     43 CA         51.9790   27.2500   39.0400 C.3       8 GLP5        0.0000 
     44 CA         46.5850   34.3625   44.6395 C.3       4 GLC5        0.0000 
     45 CA         48.0630   33.5780   43.8260 C.3      12 GLL5        0.0000 
     46 CA         45.1070   35.1470   45.4530 C.3       8 GLP5        0.0000 
     47 CA         54.3930   38.9635   34.8080 C.3       4 GLC5        0.0000 
     48 CA         53.4180   37.2770   34.6170 C.3      12 GLL5        0.0000 
     49 CA         55.3680   40.6500   34.9990 C.3       8 GLP5        0.0000 
     50 CA         47.4243   34.1628   36.7467 C.3       4 GLC5        0.0000 
     51 CA         45.7570   33.6140   37.4790 C.3       8 GLP5        0.0000 
     52 CA         46.4905   32.5667   43.2003 C.3       4 GLC5        0.0000 
     53 CA         48.7390   32.3410   43.1710 C.3      12 GLL5        0.0000 
     54 CA         44.5800   32.1740   42.9020 C.3       8 GLP5        0.0000 
     55 CA         50.0185   34.1307   43.5817 C.3       4 GLC5        0.0000 
     56 CA         48.7260   29.3515   44.6505 C.3       4 GLC5        0.0000 
     57 CA         49.5510   31.5300   44.1850 C.3      12 GLL5        0.0000 
     58 CA         48.2130   27.3680   44.4940 C.3       8 GLP5        0.0000 
     59 CA         50.0290   28.6710   45.3363 C.3       4 GLC5        0.0000 
     60 CA         49.7090   27.1230   44.4200 C.3       8 GLP5        0.0000 
     61 CA         51.3729   32.8390   44.7040 C.3       4 GLC5        0.0000 
     62 CA         51.6340   30.3890   44.9090 C.3      12 GLL5        0.0000 
     63 CA         51.8160   34.8130   44.9200 C.3       8 GLP5        0.0000 
     64 CA         51.5990   29.4032   42.9405 C.3       4 GLC5        0.0000 
     65 CA         50.9000   31.1520   43.9490 C.3      12 GLL5        0.0000 
     66 CA         51.9310   28.0360   41.4520 C.3       8 GLP5        0.0000 
     67 CA         50.4880   28.9468   44.4245 C.3       4 GLC5        0.0000 
     68 CA         54.0480   30.5543   48.5102 C.3       4 GLC5        0.0000 
     69 CA         53.0710   29.3530   47.4110 C.3      12 GLL5        0.0000 
     70 CA         54.8820   32.2120   49.1520 C.3       8 GLP5        0.0000 
     71 CA         54.6660   28.7513   46.4627 C.3       4 GLC5        0.0000 
     72 CA         56.1180   28.6060   45.0570 C.3       8 GLP5        0.0000 
     73 CA         49.3893   36.7510   36.0609 C.3       4 GLC5        0.0000 
     74 CA         49.1300   34.7210   36.7950 C.3      12 GLL5        0.0000 
     75 CA         48.8190   38.4610   36.4270 C.3       8 GLP5        0.0000 
@<TRIPOS>BOND
@<TRIPOS>SUBSTRUCTURE
     1 ALC1       15 GROUP        1 X    ALC  0     ROOT ALC X 1
     2 SEC2       18 GROUP        1 X    SEC  0     **** SEC X 2
     3 ZIC7        7 GROUP        1 X    ZIC  0     **** ZIC X 5
     4 GLC5        1 GROUP        1 X    GLC  0     **** GLC X 6
     5 ALP1       17 GROUP        1 Y    ALP  0     ROOT ALP Y 8
     6 SEP2       20 GROUP        1 Y    SEP  0     **** SEP Y 9
     7 ZIP7        9 GROUP        1 Y    ZIP  0     **** ZIP Y 12
     8 GLP5        3 GROUP        1 Y    GLP  0     **** GLP Y 13
     9 ALL1       16 GROUP        1 Z    ALL  0     ROOT ALL Z 15
    10 SEL2       19 GROUP        1 Z    SEL  0     **** SEL Z 16
    11 ZIL7        8 GROUP        1 Z    ZIL  0     **** ZIL Z 19
    12 GLL5        2 GROUP        1 Z    GLL  0     **** GLL Z 20
@<TRIPOS>SET

