#    Name: 3o64_786_2_ligand
#    Modification time : Tue Mar 25 03:17:37 2014

@<TRIPOS>MOLECULE
3o64_786_2_ligand
   68    71     1     0     0
SMALL
NO_CHARGES


@<TRIPOS>ATOM
      1 C1         49.1300   34.7210   36.7950 C.3       1 7862        0.0000 
      2 N2         50.4790   35.1680   37.2090 N.am      1 7862        0.0000 
      3 C3         51.2810   35.3960   35.9750 C.3       1 7862        0.0000 
      4 C4         50.3740   35.3450   34.7750 C.3       1 7862        0.0000 
      5 C5         49.0530   34.7020   35.2340 C.3       1 7862        0.0000 
      6 C6         50.9450   35.3250   38.3890 C.2       1 7862        0.0000 
      7 O7         52.1250   35.7140   38.5950 O.2       1 7862        0.0000 
      8 C8         50.0500   35.0120   39.6090 C.3       1 7862        0.0000 
      9 C9         50.1900   33.4520   39.7620 C.3       1 7862        0.0000 
     10 C10        49.1620   33.0060   40.7920 C.2       1 7862        0.0000 
     11 O11        50.7130   35.6130   40.6930 O.3       1 7862        0.0000 
     12 O12        47.9420   32.9010   40.4720 O.2       1 7862        0.0000 
     13 N13        49.6120   32.7700   42.0450 N.am      1 7862        0.0000 
     14 O14        51.5840   33.2440   40.2350 O.3       1 7862        0.0000 
     15 C15        48.7390   32.3410   43.1710 C.3       1 7862        0.0000 
     16 C16        49.5510   31.5300   44.1850 C.ar      1 7862        0.0000 
     17 C17        48.9270   31.1400   45.4290 C.ar      1 7862        0.0000 
     18 C18        49.6830   30.4070   46.3800 C.ar      1 7862        0.0000 
     19 C19        51.0150   30.0310   46.1250 C.ar      1 7862        0.0000 
     20 C20        51.6340   30.3890   44.9090 C.ar      1 7862        0.0000 
     21 C21        50.9000   31.1520   43.9490 C.ar      1 7862        0.0000 
     22 N22        51.7540   29.2610   47.0750 N.pl3     1 7862        0.0000 
     23 C23        52.2620   34.1990   35.8250 C.2       1 7862        0.0000 
     24 N24        51.1560   28.2120   47.8410 N.2       1 7862        0.0000 
     25 C25        52.1090   27.7200   48.6010 C.2       1 7862        0.0000 
     26 C26        53.3570   28.4400   48.3260 C.2       1 7862        0.0000 
     27 C27        53.0710   29.3530   47.4110 C.2       1 7862        0.0000 
     28 N28        51.9600   32.8990   36.2830 N.2       1 7862        0.0000 
     29 C29        52.8490   31.9010   36.1040 C.2       1 7862        0.0000 
     30 S30        54.1990   32.6630   35.3060 S.3       1 7862        0.0000 
     31 C31        53.4660   34.2730   35.2410 C.2       1 7862        0.0000 
     32 N32        52.8120   30.5620   36.4460 N.pl3     1 7862        0.0000 
     33 C33        51.4700   30.2370   36.9190 C.3       1 7862        0.0000 
     34 C34        48.0630   33.5780   43.8260 C.3       1 7862        0.0000 
     35 S35        54.2870   35.7030   34.5090 S.o2      1 7862        0.0000 
     36 O36        54.5430   35.2880   33.1410 O.2       1 7862        0.0000 
     37 O37        55.5760   35.9060   35.1580 O.2       1 7862        0.0000 
     38 C38        53.4180   37.2770   34.6170 C.3       1 7862        0.0000 
     39 H          48.3658   35.3990   37.1562 H         1 7862        0.0000 
     40 H          48.9251   33.7176   37.1491 H         1 7862        0.0000 
     41 H          51.8196   36.2796   36.0080 H         1 7862        0.0000 
     42 H          50.8090   34.7362   34.0037 H         1 7862        0.0000 
     43 H          50.1728   36.3378   34.4165 H         1 7862        0.0000 
     44 H          48.2341   35.2942   34.9214 H         1 7862        0.0000 
     45 H          49.0044   33.6985   34.9028 H         1 7862        0.0000 
     46 H          49.1022   35.2713   39.4349 H         1 7862        0.0000 
     47 H          50.0195   33.0207   38.8315 H         1 7862        0.0000 
     48 H          50.6239   32.8800   42.2929 H         1 7862        0.0000 
     49 H          47.9468   31.7027   42.7822 H         1 7862        0.0000 
     50 H          47.9672   31.3911   45.6073 H         1 7862        0.0000 
     51 H          49.2429   30.1468   47.2750 H         1 7862        0.0000 
     52 H          52.5884   30.1122   44.7104 H         1 7862        0.0000 
     53 H          51.3587   31.4299   43.0749 H         1 7862        0.0000 
     54 H          52.0821   27.0165   49.2475 H         1 7862        0.0000 
     55 H          54.1609   28.2293   48.7608 H         1 7862        0.0000 
     56 H          53.6898   29.9995   47.0244 H         1 7862        0.0000 
     57 H          53.5083   29.9319   36.3981 H         1 7862        0.0000 
     58 H          51.3904   29.2743   37.1778 H         1 7862        0.0000 
     59 H          51.2179   30.7780   37.7213 H         1 7862        0.0000 
     60 H          50.7773   30.4106   36.2190 H         1 7862        0.0000 
     61 H          48.7374   34.2213   44.1885 H         1 7862        0.0000 
     62 H          47.4986   34.0823   43.1725 H         1 7862        0.0000 
     63 H          47.4685   33.3171   44.5866 H         1 7862        0.0000 
     64 H          53.2551   37.5469   35.5660 H         1 7862        0.0000 
     65 H          53.9349   38.0169   34.1864 H         1 7862        0.0000 
     66 H          52.5265   37.2408   34.1654 H         1 7862        0.0000 
     67 H          50.0921   35.5030   41.4692 H         1 7862        0.0000 
     68 H          51.9065   32.4358   39.7422 H         1 7862        0.0000 
@<TRIPOS>BOND
     1    2    1 1    
     2    5    1 1    
     3   39    1 1    
     4   40    1 1    
     5    3    2 1    
     6    6    2 am   
     7    4    3 1    
     8   23    3 1    
     9   41    3 1    
    10    5    4 1    
    11   42    4 1    
    12   43    4 1    
    13   44    5 1    
    14   45    5 1    
    15    7    6 2    
    16    8    6 1    
    17    9    8 1    
    18   11    8 1    
    19   46    8 1    
    20   10    9 1    
    21   14    9 1    
    22   47    9 1    
    23   12   10 2    
    24   13   10 am   
    25   67   11 1    
    26   15   13 1    
    27   48   13 1    
    28   68   14 1    
    29   16   15 1    
    30   34   15 1    
    31   49   15 1    
    32   17   16 ar   
    33   21   16 ar   
    34   18   17 ar   
    35   50   17 1    
    36   19   18 ar   
    37   51   18 1    
    38   20   19 ar   
    39   22   19 1    
    40   21   20 ar   
    41   52   20 1    
    42   53   21 1    
    43   24   22 1    
    44   27   22 1    
    45   28   23 1    
    46   31   23 2    
    47   25   24 2    
    48   26   25 1    
    49   54   25 1    
    50   27   26 2    
    51   55   26 1    
    52   56   27 1    
    53   29   28 2    
    54   30   29 1    
    55   32   29 1    
    56   31   30 1    
    57   35   31 1    
    58   33   32 1    
    59   57   32 1    
    60   58   33 1    
    61   59   33 1    
    62   60   33 1    
    63   61   34 1    
    64   62   34 1    
    65   63   34 1    
    66   36   35 2    
    67   37   35 2    
    68   38   35 1    
    69   64   38 1    
    70   65   38 1    
    71   66   38 1    
@<TRIPOS>SUBSTRUCTURE
     1 7862        1 GROUP   
@<TRIPOS>SET

