#    Name: 4gih_0X5_1_INTS_M
#    Modification time : Mon Mar 24 22:16:07 2014

@<TRIPOS>MOLECULE
4gih_0X5_1_INTS_M
   63     0     9     0     0
SMALL
NO_CHARGES


@<TRIPOS>ATOM
      1 CA         -8.2465   -2.4170  -16.6470 C.3       3 GLC5        0.0000 
      2 CA         -6.5920   -3.6260  -15.8250 C.3       9 GLL5        0.0000 
      3 CA         -9.9010   -1.2080  -17.4690 C.3       6 GLP5        0.0000 
      4 CA        -11.4455  -12.4690  -14.8585 C.3       3 GLC5        0.0000 
      5 CA        -10.4480  -10.5960  -15.0330 C.3       9 GLL5        0.0000 
      6 CA        -12.4430  -14.3420  -14.6840 C.3       6 GLP5        0.0000 
      7 CA        -12.4785  -10.3780  -15.4470 C.3       3 GLC5        0.0000 
      8 CA        -14.5090  -10.1600  -15.8610 C.3       6 GLP5        0.0000 
      9 CA         -5.0090   -7.1125  -13.8850 C.3       3 GLC5        0.0000 
     10 CA         -5.3790   -6.1530  -15.6880 C.3       9 GLL5        0.0000 
     11 CA         -4.6390   -8.0720  -12.0820 C.3       6 GLP5        0.0000 
     12 CA         -5.3220   -2.4560  -17.7985 C.3       3 GLC5        0.0000 
     13 CA         -5.2250   -3.7570  -16.0030 C.3       9 GLL5        0.0000 
     14 CA         -5.4190   -1.1550  -19.5940 C.3       6 GLP5        0.0000 
     15 CA         -9.4895   -2.9050  -16.4580 C.3       3 GLC5        0.0000 
     16 CA         -9.0780   -4.6020  -15.4470 C.3       9 GLL5        0.0000 
     17 CA         -9.9085   -5.6900  -16.8250 C.3       3 GLC5        0.0000 
     18 CA        -10.7390   -6.7780  -18.2030 C.3       6 GLP5        0.0000 
     19 CA        -10.6510   -3.9800  -14.5065 C.3       3 GLC5        0.0000 
     20 CA        -12.2240   -3.3580  -13.5660 C.3       6 GLP5        0.0000 
     21 CA         -8.5330   -3.0945  -14.0680 C.3       3 GLC5        0.0000 
     22 CA         -7.9880   -1.5870  -12.6890 C.3       6 GLP5        0.0000 
     23 N         -11.8010  -12.0170  -16.2660 N.am      2 SEC2        0.0000 
     24 N         -10.4840  -11.3230  -16.1490 N.am      8 SEL2        0.0000 
     25 N         -13.1180  -12.7110  -16.3830 N.am      5 SEP2        0.0000 
     26 CA        -11.9155  -10.8170  -17.2460 C.3       3 GLC5        0.0000 
     27 CA         -9.7280  -11.0610  -17.2160 C.3       9 GLL5        0.0000 
     28 CA        -14.1030  -10.5730  -17.2760 C.3       6 GLP5        0.0000 
     29 CA         -9.8015   -8.3705  -17.6920 C.3       3 GLC5        0.0000 
     30 CA         -8.8640   -9.9630  -17.1810 C.3       9 GLL5        0.0000 
     31 O         -11.0740  -12.0925  -18.7175 O.2       1 ALC1        0.0000 
     32 O          -9.8320  -11.8770  -18.3640 O.2       7 ALL1        0.0000 
     33 O         -12.3160  -12.3080  -19.0710 O.2       4 ALP1        0.0000 
     34 CA         -6.6580  -13.7100  -19.5300 C.3       3 GLC5        0.0000 
     35 CA         -7.9000  -13.7090  -21.0550 C.3       9 GLL5        0.0000 
     36 CA         -5.4160  -13.7110  -18.0050 C.3       6 GLP5        0.0000 
     37 CA         -4.5705   -9.6935  -16.1970 C.3       3 GLC5        0.0000 
     38 CA         -4.5810   -7.6960  -15.6770 C.3       9 GLL5        0.0000 
     39 CA         -4.5600  -11.6910  -16.7170 C.3       6 GLP5        0.0000 
     40 CA         -2.9845   -7.9925  -16.2955 C.3       3 GLC5        0.0000 
     41 CA         -1.3880   -8.2890  -16.9140 C.3       6 GLP5        0.0000 
     42 CA         -4.4640   -8.5470  -14.2325 C.3       3 GLC5        0.0000 
     43 CA         -4.3470   -9.3980  -12.7880 C.3       6 GLP5        0.0000 
     44 CA         -7.4828   -2.8890  -14.1975 C.3       3 GLC5        0.0000 
     45 CA         -7.3630   -4.7560  -15.5870 C.3       9 GLL5        0.0000 
     46 CA         -9.5145  -11.3440  -13.7690 C.3       3 GLC5        0.0000 
     47 CA         -9.5760   -9.5140  -14.9230 C.3       9 GLL5        0.0000 
     48 CA         -9.0170  -12.6330  -12.5600 C.3       6 GLP5        0.0000 
     49 CA        -11.2905   -9.3420  -13.8210 C.3       3 GLC5        0.0000 
     50 CA        -12.5690   -8.6290  -12.6640 C.3       6 GLP5        0.0000 
     51 CA        -10.9047   -8.6020  -15.6676 C.3       3 GLC5        0.0000 
     52 CA        -12.0010   -7.2310  -16.0810 C.3       6 GLP5        0.0000 
     53 CA         -3.9062   -3.9623  -14.2005 C.3       3 GLC5        0.0000 
     54 CA         -4.6220   -5.0120  -15.9350 C.3       9 GLL5        0.0000 
     55 CA         -2.8890   -3.5400  -12.4320 C.3       6 GLP5        0.0000 
     56 CA         -7.8898  -11.6644  -16.3671 C.3       3 GLC5        0.0000 
     57 CA         -8.7620   -9.1860  -16.0280 C.3       9 GLL5        0.0000 
     58 CA         -6.5090  -13.0110  -15.8240 C.3       6 GLP5        0.0000 
     59 CA         -9.1310  -14.3730  -19.4642 C.3       3 GLC5        0.0000 
     60 CA         -9.0940  -12.9030  -20.5280 C.3       9 GLL5        0.0000 
     61 CA         -9.7650  -15.4400  -18.1370 C.3       6 GLP5        0.0000 
     62 CA         -9.7085  -11.2105  -21.3103 C.3       3 GLC5        0.0000 
     63 CA        -10.6460   -9.6980  -21.4200 C.3       6 GLP5        0.0000 
@<TRIPOS>BOND
@<TRIPOS>SUBSTRUCTURE
     1 ALC1       31 GROUP        1 X    ALC  0     ROOT ALC X 1
     2 SEC2       23 GROUP        1 X    SEC  0     **** SEC X 2
     3 GLC5        1 GROUP        1 X    GLC  0     **** GLC X 6
     4 ALP1       33 GROUP        1 Y    ALP  0     ROOT ALP Y 8
     5 SEP2       25 GROUP        1 Y    SEP  0     **** SEP Y 9
     6 GLP5        3 GROUP        1 Y    GLP  0     **** GLP Y 13
     7 ALL1       32 GROUP        1 Z    ALL  0     ROOT ALL Z 15
     8 SEL2       24 GROUP        1 Z    SEL  0     **** SEL Z 16
     9 GLL5        2 GROUP        1 Z    GLL  0     **** GLL Z 20
@<TRIPOS>SET

