#    Name: 4gih_0X5_1_ligand
#    Modification time : Mon Mar 24 22:16:07 2014

@<TRIPOS>MOLECULE
4gih_0X5_1_ligand
   36    38     1     0     0
SMALL
NO_CHARGES


@<TRIPOS>ATOM
      1 C4         -6.7680   -6.0290  -15.4960 C.ar      1 0X51201     0.0000 
      2 C5         -7.3630   -4.7560  -15.5870 C.ar      1 0X51201     0.0000 
      3 C6         -6.5920   -3.6260  -15.8250 C.ar      1 0X51201     0.0000 
      4 C11        -8.7620   -9.1860  -16.0280 C.ar      1 0X51201     0.0000 
      5 C8         -7.6480   -7.1690  -15.1630 C.2       1 0X51201     0.0000 
      6 C12        -9.5760   -9.5140  -14.9230 C.ar      1 0X51201     0.0000 
      7 C13       -10.4480  -10.5960  -15.0330 C.ar      1 0X51201     0.0000 
      8 C3         -5.3790   -6.1530  -15.6880 C.ar      1 0X51201     0.0000 
      9 C1         -5.2250   -3.7570  -16.0030 C.ar      1 0X51201     0.0000 
     10 C2         -4.6220   -5.0120  -15.9350 C.ar      1 0X51201     0.0000 
     11 CL1        -9.0780   -4.6020  -15.4470 Cl        1 0X51201     0.0000 
     12 O9         -8.1400   -7.2160  -14.0310 O.2       1 0X51201     0.0000 
     13 N10        -7.9150   -8.0780  -16.1160 N.am      1 0X51201     0.0000 
     14 N14       -10.4840  -11.3230  -16.1490 N.ar      1 0X51201     0.0000 
     15 C15        -9.7280  -11.0610  -17.2160 C.ar      1 0X51201     0.0000 
     16 C16        -8.8640   -9.9630  -17.1810 C.ar      1 0X51201     0.0000 
     17 N17        -9.8320  -11.8770  -18.3640 N.am      1 0X51201     0.0000 
     18 C18        -8.8750  -11.9800  -19.3360 C.2       1 0X51201     0.0000 
     19 O19        -7.8420  -11.3390  -19.2710 O.2       1 0X51201     0.0000 
     20 C20        -9.0940  -12.9030  -20.5280 C.3       1 0X51201     0.0000 
     21 C21        -8.4480  -12.5430  -21.8730 C.3       1 0X51201     0.0000 
     22 C22        -7.9000  -13.7090  -21.0550 C.3       1 0X51201     0.0000 
     23 CL2        -4.5810   -7.6960  -15.6770 Cl        1 0X51201     0.0000 
     24 H          -7.0339   -2.7006  -15.8684 H         1 0X51201     0.0000 
     25 H          -9.5219   -8.9684  -14.0690 H         1 0X51201     0.0000 
     26 H         -11.0637  -10.8151  -14.2231 H         1 0X51201     0.0000 
     27 H          -4.6459   -2.9236  -16.1872 H         1 0X51201     0.0000 
     28 H          -3.6012   -5.0946  -16.0697 H         1 0X51201     0.0000 
     29 H          -7.4218   -7.9536  -17.0797 H         1 0X51201     0.0000 
     30 H          -8.3021   -9.7287  -18.0097 H         1 0X51201     0.0000 
     31 H         -10.7241  -12.4446  -18.4637 H         1 0X51201     0.0000 
     32 H          -9.8778  -13.4196  -20.7363 H         1 0X51201     0.0000 
     33 H          -7.8849  -11.7991  -21.7243 H         1 0X51201     0.0000 
     34 H          -8.9959  -12.9029  -22.5533 H         1 0X51201     0.0000 
     35 H          -8.2415  -14.5068  -21.4289 H         1 0X51201     0.0000 
     36 H          -7.1305  -13.4030  -20.5998 H         1 0X51201     0.0000 
@<TRIPOS>BOND
     1    2    1 ar   
     2    5    1 1    
     3    8    1 ar   
     4    3    2 ar   
     5   11    2 1    
     6    9    3 ar   
     7   24    3 1    
     8    6    4 ar   
     9   13    4 1    
    10   16    4 ar   
    11   12    5 2    
    12   13    5 am   
    13    7    6 ar   
    14   25    6 1    
    15   14    7 ar   
    16   26    7 1    
    17   10    8 ar   
    18   23    8 1    
    19   10    9 ar   
    20   27    9 1    
    21   28   10 1    
    22   29   13 1    
    23   15   14 ar   
    24   16   15 ar   
    25   17   15 1    
    26   30   16 1    
    27   18   17 am   
    28   31   17 1    
    29   19   18 2    
    30   20   18 1    
    31   21   20 1    
    32   22   20 1    
    33   32   20 1    
    34   22   21 1    
    35   33   21 1    
    36   34   21 1    
    37   35   22 1    
    38   36   22 1    
@<TRIPOS>SUBSTRUCTURE
     1 0X51201     1 GROUP   
@<TRIPOS>SET

