#    Name: 1yol_S03_2_INTS_M
#    Modification time : Mon Apr  7 15:48:24 2014

@<TRIPOS>MOLECULE
1yol_S03_2_INTS_M
   75     0    12     0     0
SMALL
NO_CHARGES


@<TRIPOS>ATOM
      1 O           7.6220   -3.0345   -8.7940 O.2       1 ALC1        0.0000 
      2 O           6.6970   -3.9580   -7.9520 O.2       9 ALL1        0.0000 
      3 O           8.5470   -2.1110   -9.6360 O.2       5 ALP1        0.0000 
      4 CA          7.8100   -3.1810   -6.0900 C.3       4 GLC5        0.0000 
      5 CA          6.9760   -4.9440   -7.0620 C.3      12 GLL5        0.0000 
      6 CA          8.6440   -1.4180   -5.1180 C.3       8 GLP5        0.0000 
      7 N           9.4800   -4.1170   -6.5160 N.am      2 SEC2        0.0000 
      8 N           8.2440   -5.0780   -6.6160 N.am     10 SEL2        0.0000 
      9 N          10.7160   -3.1560   -6.4160 N.am      6 SEP2        0.0000 
     10 CA          8.8180   -7.8910   -6.5525 C.3       4 GLC5        0.0000 
     11 CA          8.6090   -6.0260   -5.7180 C.3      12 GLL5        0.0000 
     12 CA          9.0270   -9.7560   -7.3870 C.3       8 GLP5        0.0000 
     13 CA          9.0355   -4.2680   -5.0640 C.3       4 GLC5        0.0000 
     14 CA          9.4620   -2.5100   -4.4100 C.3       8 GLP5        0.0000 
     15 CA          7.0905   -4.5840   -5.1995 C.3       4 GLC5        0.0000 
     16 CA          5.5720   -3.1420   -4.6810 C.3       8 GLP5        0.0000 
     17 CA         -0.1045   -3.2800   -6.9660 C.3       4 GLC5        0.0000 
     18 CA          1.7640   -3.9410   -7.9940 C.3      12 GLL5        0.0000 
     19 CA         -1.9730   -2.6190   -5.9380 C.3       8 GLP5        0.0000 
     20 CA          6.0905   -5.5390  -11.0720 C.3       4 GLC5        0.0000 
     21 CA          4.3100   -5.3610  -11.9030 C.3      12 GLL5        0.0000 
     22 CA          7.8710   -5.7170  -10.2410 C.3       8 GLP5        0.0000 
     23 CA          5.2930   -6.7180  -12.8890 C.3       4 GLC5        0.0000 
     24 CA          6.2760   -8.0750  -13.8750 C.3       8 GLP5        0.0000 
     25 CA          3.0530   -6.6955  -12.0455 C.3       4 GLC5        0.0000 
     26 CA          1.7960   -8.0300  -12.1880 C.3       8 GLP5        0.0000 
     27 CA          2.8795   -4.6005  -13.1340 C.3       4 GLC5        0.0000 
     28 CA          1.4490   -3.8400  -14.3650 C.3       8 GLP5        0.0000 
     29 CA          4.9220   -4.6520  -13.8395 C.3       4 GLC5        0.0000 
     30 CA          5.5340   -3.9430  -15.7760 C.3       8 GLP5        0.0000 
     31 CA          4.1855   -3.6440  -11.9605 C.3       4 GLC5        0.0000 
     32 CA          4.0610   -1.9270  -12.0180 C.3       8 GLP5        0.0000 
     33 CA          5.8575   -5.5975   -9.6295 C.3       4 GLC5        0.0000 
     34 CA          3.8440   -5.4780   -9.0180 C.3      12 GLL5        0.0000 
     35 CA          4.7925   -5.8260   -4.3455 C.3       4 GLC5        0.0000 
     36 CA          4.2140   -7.1030   -5.9760 C.3      12 GLL5        0.0000 
     37 CA          5.3710   -4.5490   -2.7150 C.3       8 GLP5        0.0000 
     38 CA          7.7095   -8.2810   -6.5160 C.3       4 GLC5        0.0000 
     39 CA          6.3920   -6.8060   -5.6450 C.3      12 GLL5        0.0000 
     40 CA          5.8815   -5.6775   -4.1800 C.3       4 GLC5        0.0000 
     41 CA          5.2610   -8.9235   -6.6620 C.3       4 GLC5        0.0000 
     42 CA          5.2450   -8.5380   -4.4530 C.3      12 GLL5        0.0000 
     43 CA          5.2770   -9.3090   -8.8710 C.3       8 GLP5        0.0000 
     44 CA          4.4305  -10.0975   -6.7455 C.3       4 GLC5        0.0000 
     45 CA          4.4740   -9.6600   -4.7600 C.3      12 GLL5        0.0000 
     46 CA          4.3870  -10.5350   -8.7310 C.3       8 GLP5        0.0000 
     47 CA          4.4450  -12.5180   -4.6495 C.3       4 GLC5        0.0000 
     48 CA          4.3250  -10.7230   -3.8830 C.3      12 GLL5        0.0000 
     49 CA          4.5650  -14.3130   -5.4160 C.3       8 GLP5        0.0000 
     50 CA          7.5905   -7.5935   -2.2235 C.3       4 GLC5        0.0000 
     51 CA          5.8290   -8.5430   -3.1680 C.3      12 GLL5        0.0000 
     52 CA          9.3520   -6.6440   -1.2790 C.3       8 GLP5        0.0000 
     53 CA          4.6070  -13.1490   -3.6185 C.3       4 GLC5        0.0000 
     54 CA          4.6490  -11.9850   -1.8210 C.3      12 GLL5        0.0000 
     55 OD1         5.9290  -11.5475    0.6200 O.co2     3 ASC3        0.0000 
     56 OD1         5.2000  -12.1160   -0.4830 O.co2    11 ASL3        0.0000 
     57 OD1         6.6580  -10.9790    1.7230 O.co2     7 ASP3        0.0000 
     58 CA          7.1863   -5.5570   -8.5260 C.3       4 GLC5        0.0000 
     59 CA          6.0270   -5.8500   -6.5600 C.3      12 GLL5        0.0000 
     60 CA          6.0367   -4.2695   -5.7460 C.3       4 GLC5        0.0000 
     61 CA          4.5252   -7.3550   -8.5995 C.3       4 GLC5        0.0000 
     62 CA          3.7030   -5.3240   -7.6380 C.3      12 GLL5        0.0000 
     63 CA          1.0208   -5.5315   -8.6917 C.3       4 GLC5        0.0000 
     64 CA          2.6470   -4.5710   -7.1250 C.3      12 GLL5        0.0000 
     65 CA         -0.1640   -6.8070   -9.8240 C.3       8 GLP5        0.0000 
     66 CA          4.4929   -4.1335   -5.9199 C.3       4 GLC5        0.0000 
     67 CA          1.9882   -2.9645   -6.0377 C.3       4 GLC5        0.0000 
     68 CA          1.7710   -1.6730   -4.5160 C.3       8 GLP5        0.0000 
     69 CA          3.2485   -3.2018  -10.8265 C.3       4 GLC5        0.0000 
     70 CA          1.9150   -4.0880   -9.3750 C.3      12 GLL5        0.0000 
     71 CA          1.4880   -5.8921   -9.5753 C.3       4 GLC5        0.0000 
     72 CA          5.4311   -7.9866   -7.4254 C.3       4 GLC5        0.0000 
     73 CA          5.4540   -6.5447   -3.2628 C.3       4 GLC5        0.0000 
     74 CA          5.4383   -8.1695   -0.8942 C.3       4 GLC5        0.0000 
     75 CA          5.1200   -7.2600    0.9290 C.3       8 GLP5        0.0000 
@<TRIPOS>BOND
@<TRIPOS>SUBSTRUCTURE
     1 ALC1        1 GROUP        1 X    ALC  0     ROOT ALC X 1
     2 SEC2        7 GROUP        1 X    SEC  0     **** SEC X 2
     3 ASC3       55 GROUP        1 X    ASC  0     **** ASC X 3
     4 GLC5        4 GROUP        1 X    GLC  0     **** GLC X 6
     5 ALP1        3 GROUP        1 Y    ALP  0     ROOT ALP Y 8
     6 SEP2        9 GROUP        1 Y    SEP  0     **** SEP Y 9
     7 ASP3       57 GROUP        1 Y    ASP  0     **** ASP Y 10
     8 GLP5        6 GROUP        1 Y    GLP  0     **** GLP Y 13
     9 ALL1        2 GROUP        1 Z    ALL  0     ROOT ALL Z 15
    10 SEL2        8 GROUP        1 Z    SEL  0     **** SEL Z 16
    11 ASL3       56 GROUP        1 Z    ASL  0     **** ASL Z 17
    12 GLL5        5 GROUP        1 Z    GLL  0     **** GLL Z 20
@<TRIPOS>SET

