#    Name: 1yol_S03_2_ligand
#    Modification time : Mon Apr  7 15:48:24 2014

@<TRIPOS>MOLECULE
1yol_S03_2_ligand
   60    64     1     0     0
SMALL
NO_CHARGES


@<TRIPOS>ATOM
      1 N33         6.6970   -3.9580   -7.9520 N.pl3     1 S03602      0.0000 
      2 C1          6.9760   -4.9440   -7.0620 C.ar      1 S03602      0.0000 
      3 N6          8.2440   -5.0780   -6.6160 N.ar      1 S03602      0.0000 
      4 C5          8.6090   -6.0260   -5.7180 C.ar      1 S03602      0.0000 
      5 C2          6.0270   -5.8500   -6.5600 C.ar      1 S03602      0.0000 
      6 C9          4.6580   -6.0340   -6.7470 C.2       1 S03602      0.0000 
      7 C10         3.7030   -5.3240   -7.6380 C.ar      1 S03602      0.0000 
      8 C11         2.6470   -4.5710   -7.1250 C.ar      1 S03602      0.0000 
      9 C12         1.7640   -3.9410   -7.9940 C.ar      1 S03602      0.0000 
     10 C13         1.9150   -4.0880   -9.3750 C.ar      1 S03602      0.0000 
     11 C14         2.9570   -4.8650   -9.8950 C.ar      1 S03602      0.0000 
     12 O16         3.0820   -4.9870  -11.2580 O.3       1 S03602      0.0000 
     13 C17         4.3100   -5.3610  -11.9030 C.3       1 S03602      0.0000 
     14 C15         3.8440   -5.4780   -9.0180 C.ar      1 S03602      0.0000 
     15 C8          4.2140   -7.1030   -5.9760 C.2       1 S03602      0.0000 
     16 C3          6.3920   -6.8060   -5.6450 C.ar      1 S03602      0.0000 
     17 N4          7.7470   -6.9160   -5.1880 N.ar      1 S03602      0.0000 
     18 N7          5.3170   -7.5300   -5.3240 N.pl3     1 S03602      0.0000 
     19 C18         5.2450   -8.5380   -4.4530 C.ar      1 S03602      0.0000 
     20 C19         4.4740   -9.6600   -4.7600 C.ar      1 S03602      0.0000 
     21 C20         4.3250  -10.7230   -3.8830 C.ar      1 S03602      0.0000 
     22 C23         5.8290   -8.5430   -3.1680 C.ar      1 S03602      0.0000 
     23 C22         5.6840   -9.6150   -2.2670 C.ar      1 S03602      0.0000 
     24 C21         4.9240  -10.7270   -2.6310 C.ar      1 S03602      0.0000 
     25 C24         4.6490  -11.9850   -1.8210 C.3       1 S03602      0.0000 
     26 N26         5.2000  -12.1160   -0.4830 N.4       1 S03602      0.0000 
     27 C27         4.2420  -12.3610    0.5930 C.3       1 S03602      0.0000 
     28 C28         4.0160  -13.8530    0.7760 C.3       1 S03602      0.0000 
     29 C31         6.5010  -12.7540   -0.3560 C.3       1 S03602      0.0000 
     30 C30         6.2780  -14.2560   -0.3690 C.3       1 S03602      0.0000 
     31 C29         5.2610  -14.7550    0.6500 C.3       1 S03602      0.0000 
     32 O32         5.8960  -14.9670    1.9130 O.3       1 S03602      0.0000 
     33 H           7.4656   -3.3776   -8.2210 H         1 S03602      0.0000 
     34 H           5.7475   -3.8991   -8.2601 H         1 S03602      0.0000 
     35 H           9.6295   -6.0665   -5.4184 H         1 S03602      0.0000 
     36 H           2.5244   -4.4839   -6.1104 H         1 S03602      0.0000 
     37 H           0.9974   -3.3651   -7.6230 H         1 S03602      0.0000 
     38 H           1.2574   -3.6231  -10.0147 H         1 S03602      0.0000 
     39 H           4.6165   -6.0541   -9.3889 H         1 S03602      0.0000 
     40 H           3.3427   -7.4325   -5.9357 H         1 S03602      0.0000 
     41 H           3.9923   -9.6964   -5.6873 H         1 S03602      0.0000 
     42 H           3.7480  -11.5414   -4.1707 H         1 S03602      0.0000 
     43 H           6.3920   -7.7161   -2.8747 H         1 S03602      0.0000 
     44 H           6.1362   -9.5734   -1.3506 H         1 S03602      0.0000 
     45 H           4.9759  -12.8695   -2.4578 H         1 S03602      0.0000 
     46 H           3.5195  -12.1176   -1.7844 H         1 S03602      0.0000 
     47 H           5.5031  -10.9287   -0.2436 H         1 S03602      0.0000 
     48 H           3.2780  -11.8898    0.3697 H         1 S03602      0.0000 
     49 H           4.6073  -11.9476    1.5400 H         1 S03602      0.0000 
     50 H           3.2610  -14.1990    0.0358 H         1 S03602      0.0000 
     51 H           3.5588  -14.0308    1.7745 H         1 S03602      0.0000 
     52 H           6.9815  -12.4833    0.5781 H         1 S03602      0.0000 
     53 H           7.1490  -12.4929   -1.1859 H         1 S03602      0.0000 
     54 H           7.2437  -14.7650   -0.1873 H         1 S03602      0.0000 
     55 H           5.9491  -14.5625   -1.3802 H         1 S03602      0.0000 
     56 H           4.8934  -15.7409    0.2678 H         1 S03602      0.0000 
     57 H           5.0454   -4.7127  -11.7059 H         1 S03602      0.0000 
     58 H           4.6261   -6.2620  -11.6059 H         1 S03602      0.0000 
     59 H           4.2108   -5.3983  -12.8974 H         1 S03602      0.0000 
     60 H           5.2464  -15.5144    2.4405 H         1 S03602      0.0000 
@<TRIPOS>BOND
     1    2    1 1    
     2   33    1 1    
     3   34    1 1    
     4    3    2 ar   
     5    5    2 ar   
     6    4    3 ar   
     7   17    4 ar   
     8   35    4 1    
     9    6    5 1    
    10   16    5 ar   
    11    7    6 1    
    12   15    6 2    
    13    8    7 ar   
    14   14    7 ar   
    15    9    8 ar   
    16   36    8 1    
    17   10    9 ar   
    18   37    9 1    
    19   11   10 ar   
    20   38   10 1    
    21   12   11 1    
    22   14   11 ar   
    23   13   12 1    
    24   57   13 1    
    25   58   13 1    
    26   59   13 1    
    27   39   14 1    
    28   18   15 1    
    29   40   15 1    
    30   17   16 ar   
    31   18   16 1    
    32   19   18 1    
    33   20   19 ar   
    34   22   19 ar   
    35   21   20 ar   
    36   41   20 1    
    37   24   21 ar   
    38   42   21 1    
    39   23   22 ar   
    40   43   22 1    
    41   24   23 ar   
    42   44   23 1    
    43   25   24 1    
    44   26   25 1    
    45   45   25 1    
    46   46   25 1    
    47   27   26 1    
    48   29   26 1    
    49   47   26 1    
    50   28   27 1    
    51   48   27 1    
    52   49   27 1    
    53   31   28 1    
    54   50   28 1    
    55   51   28 1    
    56   30   29 1    
    57   52   29 1    
    58   53   29 1    
    59   31   30 1    
    60   54   30 1    
    61   55   30 1    
    62   32   31 1    
    63   56   31 1    
    64   60   32 1    
@<TRIPOS>SUBSTRUCTURE
     1 S03602      1 GROUP   
@<TRIPOS>SET

