#    Name: 2zcq_B65_1_INTS_M
#    Modification time : Tue Mar 25 10:33:41 2014

@<TRIPOS>MOLECULE
2zcq_B65_1_INTS_M
   60     0    12     0     0
SMALL
NO_CHARGES


@<TRIPOS>ATOM
      1 CA         16.1255   57.4750   42.2330 C.3       4 GLC5        0.0000 
      2 CA         14.8050   56.4450   40.8430 C.3      12 GLL5        0.0000 
      3 CA         17.4460   58.5050   43.6230 C.3       8 GLP5        0.0000 
      4 CA         14.6060   56.5130   43.9555 C.3       4 GLC5        0.0000 
      5 CA         13.9360   56.1490   41.8870 C.3      12 GLL5        0.0000 
      6 CA         15.2760   56.8770   46.0240 C.3       8 GLP5        0.0000 
      7 CA         13.5605   53.7970   43.3750 C.3       4 GLC5        0.0000 
      8 CA         13.3240   54.9060   41.9490 C.3      12 GLL5        0.0000 
      9 CA         13.7970   52.6880   44.8010 C.3       8 GLP5        0.0000 
     10 CA         13.2945   52.7810   42.4945 C.3       4 GLC5        0.0000 
     11 CA         13.5840   53.9560   40.9620 C.3      12 GLL5        0.0000 
     12 CA         13.0050   51.6060   44.0270 C.3       8 GLP5        0.0000 
     13 Zn         23.6325   51.7500   34.0075 Zn        3 ZIC7        0.0000 
     14 Zn         22.8210   51.0640   33.7840 Zn       11 ZIL7        0.0000 
     15 Zn         24.4440   52.4360   34.2310 Zn        7 ZIP7        0.0000 
     16 Zn         21.9770   48.6405   35.4790 Zn        3 ZIC7        0.0000 
     17 Zn         21.3420   49.1510   34.7060 Zn       11 ZIL7        0.0000 
     18 Zn         22.6120   48.1300   36.2520 Zn        7 ZIP7        0.0000 
     19 N          20.0980   51.9040   32.1655 N.am      1 SEC2        0.0000 
     20 N          20.3500   50.9090   33.1190 N.am      9 SEL2        0.0000 
     21 N          19.8460   52.8990   31.2120 N.am      5 SEP2        0.0000 
     22 Zn         23.9850   52.2640   35.1820 Zn        3 ZIC7        0.0000 
     23 Zn         23.5260   52.0920   36.1330 Zn       11 ZIL7        0.0000 
     24 N          23.0050   53.6265   36.0175 N.am      1 SEC2        0.0000 
     25 N          23.5260   52.0920   36.1330 N.am      9 SEL2        0.0000 
     26 N          22.4840   55.1610   35.9020 N.am      5 SEP2        0.0000 
     27 NZ         21.7590   49.8275   38.6280 N.4       2 LYC4        0.0000 
     28 NZ         22.5580   50.3410   37.4350 N.4      10 LYL4        0.0000 
     29 NZ         20.6020   50.1150   40.8240 N.4       6 LYP4        0.0000 
     30 Zn         22.5850   49.2355   36.8435 Zn        3 ZIC7        0.0000 
     31 Zn         22.5580   50.3410   37.4350 Zn       11 ZIL7        0.0000 
     32 N          21.7590   49.8275   38.6280 N.am      1 SEC2        0.0000 
     33 N          22.5580   50.3410   37.4350 N.am      9 SEL2        0.0000 
     34 N          20.9600   49.3140   39.8210 N.am      5 SEP2        0.0000 
     35 N          21.4675   52.0495   39.3665 N.am      1 SEC2        0.0000 
     36 N          22.0820   52.6710   37.9740 N.am      9 SEL2        0.0000 
     37 N          20.8530   51.4280   40.7590 N.am      5 SEP2        0.0000 
     38 N          22.2830   53.9160   36.9380 N.am      1 SEC2        0.0000 
     39 CA         13.0717   54.5255   39.0925 C.3       4 GLC5        0.0000 
     40 CA         15.0650   55.4960   39.8510 C.3      12 GLL5        0.0000 
     41 CA         11.3870   54.1740   38.3020 C.3       8 GLP5        0.0000 
     42 CA         11.8865   56.3238   41.2410 C.3       4 GLC5        0.0000 
     43 CA         10.1430   57.1200   40.5640 C.3       8 GLP5        0.0000 
     44 CA         12.4205   54.3025   39.8788 C.3       4 GLC5        0.0000 
     45 CA         14.5810   50.7972   39.1205 C.3       4 GLC5        0.0000 
     46 CA         15.6130   52.5420   38.8920 C.3      12 GLL5        0.0000 
     47 CA         13.3560   49.3390   39.9540 C.3       8 GLP5        0.0000 
     48 CA         13.9345   52.3777   37.4650 C.3       4 GLC5        0.0000 
     49 CA         12.0630   52.5000   36.6430 C.3       8 GLP5        0.0000 
     50 CA         15.0427   50.4988   40.0020 C.3       4 GLC5        0.0000 
     51 CA         16.2330   52.1440   40.0700 C.3      12 GLL5        0.0000 
     52 CA         17.1755   49.2188   40.6905 C.3       4 GLC5        0.0000 
     53 CA         17.2260   51.1730   40.0300 C.3      12 GLL5        0.0000 
     54 CA         16.9370   47.5540   41.9560 C.3       8 GLP5        0.0000 
     55 CA         17.8769   48.7504   37.5326 C.3       4 GLC5        0.0000 
     56 CA         17.6020   50.5940   38.8200 C.3      12 GLL5        0.0000 
     57 CA         18.4420   46.9320   37.8010 C.3       8 GLP5        0.0000 
     58 CA         17.4345   50.9715   34.2785 C.3       4 GLC5        0.0000 
     59 CA         17.3310   50.3430   36.2980 C.3      12 GLL5        0.0000 
     60 CA         16.9810   51.2210   32.6220 C.3       8 GLP5        0.0000 
@<TRIPOS>BOND
@<TRIPOS>SUBSTRUCTURE
     1 SEC2       19 GROUP        1 X    SEC  0     ROOT SEC X 2
     2 LYC4       27 GROUP        1 X    LYC  0     **** LYC X 4
     3 ZIC7       13 GROUP        1 X    ZIC  0     **** ZIC X 5
     4 GLC5        1 GROUP        1 X    GLC  0     **** GLC X 6
     5 SEP2       21 GROUP        1 Y    SEP  0     ROOT SEP Y 9
     6 LYP4       29 GROUP        1 Y    LYP  0     **** LYP Y 11
     7 ZIP7       15 GROUP        1 Y    ZIP  0     **** ZIP Y 12
     8 GLP5        3 GROUP        1 Y    GLP  0     **** GLP Y 13
     9 SEL2       20 GROUP        1 Z    SEL  0     ROOT SEL Z 16
    10 LYL4       28 GROUP        1 Z    LYL  0     **** LYL Z 18
    11 ZIL7       14 GROUP        1 Z    ZIL  0     **** ZIL Z 19
    12 GLL5        2 GROUP        1 Z    GLL  0     **** GLL Z 20
@<TRIPOS>SET

