#    Name: 2zcq_B65_1_ligand
#    Modification time : Tue Mar 25 10:33:41 2014

@<TRIPOS>MOLECULE
2zcq_B65_1_ligand
   41    42     1     0     0
SMALL
NO_CHARGES


@<TRIPOS>ATOM
      1 CAL        15.0650   55.4960   39.8510 C.ar      1 B65451      0.0000 
      2 CAH        14.8050   56.4450   40.8430 C.ar      1 B65451      0.0000 
      3 CAG        13.9360   56.1490   41.8870 C.ar      1 B65451      0.0000 
      4 CAI        13.3240   54.9060   41.9490 C.ar      1 B65451      0.0000 
      5 CAM        13.5840   53.9560   40.9620 C.ar      1 B65451      0.0000 
      6 CAU        14.4480   54.2580   39.9150 C.ar      1 B65451      0.0000 
      7 OAS        14.5500   53.3870   38.8700 O.3       1 B65451      0.0000 
      8 CAV        15.6130   52.5420   38.8920 C.ar      1 B65451      0.0000 
      9 CAO        15.9990   51.9690   37.6820 C.ar      1 B65451      0.0000 
     10 CAN        16.2330   52.1440   40.0700 C.ar      1 B65451      0.0000 
     11 CAJ        17.2260   51.1730   40.0300 C.ar      1 B65451      0.0000 
     12 CAK        17.6020   50.5940   38.8200 C.ar      1 B65451      0.0000 
     13 CAT        16.9830   50.9950   37.6410 C.ar      1 B65451      0.0000 
     14 CAQ        17.3310   50.3430   36.2980 C.3       1 B65451      0.0000 
     15 CAP        18.4450   51.1010   35.5720 C.3       1 B65451      0.0000 
     16 CAR        19.7000   51.1160   36.4440 C.3       1 B65451      0.0000 
     17 CAW        20.9210   51.6820   35.7130 C.3       1 B65451      0.0000 
     18 PAX        21.3180   50.6870   34.2190 P.3       1 B65451      0.0000 
     19 OAB        22.8210   51.0640   33.7840 O.co2     1 B65451      0.0000 
     20 OAC        21.3420   49.1510   34.7060 O.co2     1 B65451      0.0000 
     21 OAA        20.3500   50.9090   33.1190 O.co2     1 B65451      0.0000 
     22 SAY        22.3510   51.7060   36.8530 S.o2      1 B65451      0.0000 
     23 OAF        23.5260   52.0920   36.1330 O.co2     1 B65451      0.0000 
     24 OAE        22.5580   50.3410   37.4350 O.co2     1 B65451      0.0000 
     25 OAD        22.0820   52.6710   37.9740 O.co2     1 B65451      0.0000 
     26 H          15.7074   55.7196   39.0853 H         1 B65451      0.0000 
     27 H          15.2607   57.3670   40.7978 H         1 B65451      0.0000 
     28 H          13.7478   56.8534   42.6132 H         1 B65451      0.0000 
     29 H          12.6811   54.6828   42.7178 H         1 B65451      0.0000 
     30 H          13.1358   53.0321   41.0098 H         1 B65451      0.0000 
     31 H          15.5433   52.2770   36.8062 H         1 B65451      0.0000 
     32 H          15.9590   52.5650   40.9649 H         1 B65451      0.0000 
     33 H          17.6899   50.8771   40.9030 H         1 B65451      0.0000 
     34 H          18.3332   49.8743   38.7999 H         1 B65451      0.0000 
     35 H          16.4396   50.3252   35.6680 H         1 B65451      0.0000 
     36 H          17.6520   49.3143   36.4730 H         1 B65451      0.0000 
     37 H          18.1241   52.1176   35.3853 H         1 B65451      0.0000 
     38 H          18.6636   50.6058   34.6348 H         1 B65451      0.0000 
     39 H          19.9223   50.0933   36.7708 H         1 B65451      0.0000 
     40 H          19.5083   51.7200   37.3387 H         1 B65451      0.0000 
     41 H          20.8211   52.6563   35.3793 H         1 B65451      0.0000 
@<TRIPOS>BOND
     1    2    1 ar   
     2    6    1 ar   
     3   26    1 1    
     4    3    2 ar   
     5   27    2 1    
     6    4    3 ar   
     7   28    3 1    
     8    5    4 ar   
     9   29    4 1    
    10    6    5 ar   
    11   30    5 1    
    12    7    6 1    
    13    8    7 1    
    14    9    8 ar   
    15   10    8 ar   
    16   13    9 ar   
    17   31    9 1    
    18   11   10 ar   
    19   32   10 1    
    20   12   11 ar   
    21   33   11 1    
    22   13   12 ar   
    23   34   12 1    
    24   14   13 1    
    25   15   14 1    
    26   35   14 1    
    27   36   14 1    
    28   16   15 1    
    29   37   15 1    
    30   38   15 1    
    31   17   16 1    
    32   39   16 1    
    33   40   16 1    
    34   18   17 1    
    35   22   17 1    
    36   41   17 1    
    37   19   18 ar   
    38   20   18 ar   
    39   21   18 ar   
    40   23   22 ar   
    41   24   22 ar   
    42   25   22 ar   
@<TRIPOS>SUBSTRUCTURE
     1 B65451      1 GROUP   
@<TRIPOS>SET

