#    Name: 2psv_MUV_1_INTS_M
#    Modification time : Mon Mar 24 19:20:14 2014

@<TRIPOS>MOLECULE
2psv_MUV_1_INTS_M
   75     0     9     0     0
SMALL
NO_CHARGES


@<TRIPOS>ATOM
      1 N          23.6855   24.1735   12.5975 N.am      2 SEC2        0.0000 
      2 N          23.6790   25.1250   11.5560 N.am      8 SEL2        0.0000 
      3 N          23.6920   23.2220   13.6390 N.am      5 SEP2        0.0000 
      4 O          22.2635   26.7460    8.7925 O.2       1 ALC1        0.0000 
      5 O          22.9470   25.5900    9.4790 O.2       7 ALL1        0.0000 
      6 O          21.5800   27.9020    8.1060 O.2       4 ALP1        0.0000 
      7 CA         23.9670   23.1435   10.2900 C.3       3 GLC5        0.0000 
      8 CA         23.8490   24.6740    8.8030 C.3       9 GLL5        0.0000 
      9 CA         24.0850   21.6130   11.7770 C.3       6 GLP5        0.0000 
     10 CA         24.9235   26.0190    7.7205 C.3       3 GLC5        0.0000 
     11 CA         25.9980   27.3640    6.6380 C.3       6 GLP5        0.0000 
     12 CA         23.6205   29.2320   11.7170 C.3       3 GLC5        0.0000 
     13 CA         22.6170   27.7090   12.2780 C.3       9 GLL5        0.0000 
     14 CA         24.6240   30.7550   11.1560 C.3       6 GLP5        0.0000 
     15 O          20.5280   26.7305   14.2475 O.2       1 ALC1        0.0000 
     16 O          20.7320   28.2140   13.7660 O.2       7 ALL1        0.0000 
     17 O          20.3240   25.2470   14.7290 O.2       4 ALP1        0.0000 
     18 CA         17.0930   30.7495   11.4515 C.3       3 GLC5        0.0000 
     19 CA         17.5650   28.7160   11.9310 C.3       9 GLL5        0.0000 
     20 CA         16.6210   32.7830   10.9720 C.3       6 GLP5        0.0000 
     21 CA         17.2460   30.3625   10.0890 C.3       3 GLC5        0.0000 
     22 CA         17.3200   28.3920   10.5950 C.3       9 GLL5        0.0000 
     23 CA         17.1720   32.3330    9.5830 C.3       6 GLP5        0.0000 
     24 CA         17.3735   25.3140   13.5700 C.3       3 GLC5        0.0000 
     25 CA         18.3920   26.4970   12.3180 C.3       9 GLL5        0.0000 
     26 CA         16.3550   24.1310   14.8220 C.3       6 GLP5        0.0000 
     27 N          19.5010   27.7195   17.8810 N.am      2 SEC2        0.0000 
     28 N          20.0510   28.1880   16.6180 N.am      8 SEL2        0.0000 
     29 N          18.9510   27.2510   19.1440 N.am      5 SEP2        0.0000 
     30 O          18.8440   27.9670   17.0380 O.2       1 ALC1        0.0000 
     31 O          20.0510   28.1880   16.6180 O.2       7 ALL1        0.0000 
     32 O          17.6370   27.7460   17.4580 O.2       4 ALP1        0.0000 
     33 CA         17.6805   30.5365   17.9540 C.3       3 GLC5        0.0000 
     34 CA         19.0580   30.4050   16.3950 C.3       9 GLL5        0.0000 
     35 CA         16.3030   30.6680   19.5130 C.3       6 GLP5        0.0000 
     36 CA         23.1600   32.6210   18.7395 C.3       3 GLC5        0.0000 
     37 CA         22.6320   33.2310   16.6520 C.3       9 GLL5        0.0000 
     38 CA         23.6880   32.0110   20.8270 C.3       6 GLP5        0.0000 
     39 CA         24.1925   33.9325   17.4700 C.3       3 GLC5        0.0000 
     40 CA         25.7530   34.6340   18.2880 C.3       6 GLP5        0.0000 
     41 CA         15.7170   33.0195   14.1200 C.3       3 GLC5        0.0000 
     42 CA         16.9610   33.1090   15.9000 C.3       9 GLL5        0.0000 
     43 CA         14.4730   32.9300   12.3400 C.3       6 GLP5        0.0000 
     44 CA         14.1315   35.2580   15.5845 C.3       3 GLC5        0.0000 
     45 CA         15.6930   34.6580   16.8190 C.3       9 GLL5        0.0000 
     46 CA         12.5700   35.8580   14.3500 C.3       6 GLP5        0.0000 
     47 CA         15.1400   30.6460   17.0970 C.3       3 GLC5        0.0000 
     48 CA         16.1050   32.4180   16.7070 C.3       9 GLL5        0.0000 
     49 CA         14.1750   28.8740   17.4870 C.3       6 GLP5        0.0000 
     50 CA         22.6725   26.1222   13.4935 C.3       3 GLC5        0.0000 
     51 CA         23.0830   25.0460   15.1440 C.3       6 GLP5        0.0000 
     52 CA         16.2082   27.2290   12.0987 C.3       3 GLC5        0.0000 
     53 CA         18.1040   27.7700   12.7980 C.3       9 GLL5        0.0000 
     54 CA         14.5820   26.2150   11.8330 C.3       6 GLP5        0.0000 
     55 CA         16.2140   28.8476   13.5592 C.3       3 GLC5        0.0000 
     56 CA         14.5270   29.3620   14.3900 C.3       6 GLP5        0.0000 
     57 CA         16.2010   28.1025    9.1240 C.3       3 GLC5        0.0000 
     58 CA         14.9320   28.4500    7.8890 C.3       6 GLP5        0.0000 
     59 CA         16.0260   26.9850   11.0960 C.3       3 GLC5        0.0000 
     60 CA         18.8751   29.0365    9.7795 C.3       3 GLC5        0.0000 
     61 CA         17.6200   27.1180   10.1230 C.3       9 GLL5        0.0000 
     62 CA         20.2190   30.2370    8.8660 C.3       6 GLP5        0.0000 
     63 CA         16.4263   26.2745   11.7435 C.3       3 GLC5        0.0000 
     64 CA         18.1490   26.1710   10.9900 C.3       9 GLL5        0.0000 
     65 CA         23.2540   34.3918   15.1043 C.3       3 GLC5        0.0000 
     66 CA         22.4220   32.3340   15.4410 C.3       9 GLL5        0.0000 
     67 CA         23.9810   36.0010   14.1620 C.3       6 GLP5        0.0000 
     68 CA         24.2700   31.9378   16.7327 C.3       3 GLC5        0.0000 
     69 CA         26.0130   31.0930   17.4190 C.3       6 GLP5        0.0000 
     70 CA         14.0120   34.6333   18.4625 C.3       3 GLC5        0.0000 
     71 CA         15.2890   33.4230   17.3250 C.3       9 GLL5        0.0000 
     72 CA         12.5330   35.2260   19.8530 C.3       6 GLP5        0.0000 
     73 CA         16.1070   31.8806   18.1636 C.3       3 GLC5        0.0000 
     74 CA         13.8715   33.1171   16.4217 C.3       3 GLC5        0.0000 
     75 CA         11.9450   33.0050   15.9540 C.3       6 GLP5        0.0000 
@<TRIPOS>BOND
@<TRIPOS>SUBSTRUCTURE
     1 ALC1        4 GROUP        1 X    ALC  0     ROOT ALC X 1
     2 SEC2        1 GROUP        1 X    SEC  0     **** SEC X 2
     3 GLC5        7 GROUP        1 X    GLC  0     **** GLC X 6
     4 ALP1        6 GROUP        1 Y    ALP  0     ROOT ALP Y 8
     5 SEP2        3 GROUP        1 Y    SEP  0     **** SEP Y 9
     6 GLP5        9 GROUP        1 Y    GLP  0     **** GLP Y 13
     7 ALL1        5 GROUP        1 Z    ALL  0     ROOT ALL Z 15
     8 SEL2        2 GROUP        1 Z    SEL  0     **** SEL Z 16
     9 GLL5        8 GROUP        1 Z    GLL  0     **** GLL Z 20
@<TRIPOS>SET

