#    Name: 2psv_MUV_1_ligand
#    Modification time : Mon Mar 24 19:20:14 2014

@<TRIPOS>MOLECULE
2psv_MUV_1_ligand
   64    66     1     0     0
SMALL
NO_CHARGES


@<TRIPOS>ATOM
      1 O26        23.6790   25.1250   11.5560 O.2       1 MUV200      0.0000 
      2 C25        22.9250   25.7410   10.8070 C.2       1 MUV200      0.0000 
      3 N27        22.9470   25.5900    9.4790 N.am      1 MUV200      0.0000 
      4 C28        23.8490   24.6740    8.8030 C.3       1 MUV200      0.0000 
      5 C24        21.9070   26.6880   11.4080 C.3       1 MUV200      0.0000 
      6 C23        22.6170   27.7090   12.2780 C.3       1 MUV200      0.0000 
      7 C21        21.5230   28.6390   12.7800 C.2       1 MUV200      0.0000 
      8 O22        21.3950   29.7300   12.2460 O.2       1 MUV200      0.0000 
      9 N20        20.7320   28.2140   13.7660 N.am      1 MUV200      0.0000 
     10 C19        19.6360   28.9880   14.3450 C.3       1 MUV200      0.0000 
     11 C32        18.3700   28.1310   14.2540 C.3       1 MUV200      0.0000 
     12 C38        18.1040   27.7700   12.7980 C.ar      1 MUV200      0.0000 
     13 C37        17.5650   28.7160   11.9310 C.ar      1 MUV200      0.0000 
     14 C36        17.3200   28.3920   10.5950 C.ar      1 MUV200      0.0000 
     15 C35        17.6200   27.1180   10.1230 C.ar      1 MUV200      0.0000 
     16 C34        18.1490   26.1710   10.9900 C.ar      1 MUV200      0.0000 
     17 C33        18.3920   26.4970   12.3180 C.ar      1 MUV200      0.0000 
     18 C17        20.0070   29.3580   15.7910 C.3       1 MUV200      0.0000 
     19 O18        20.0510   28.1880   16.6180 O.3       1 MUV200      0.0000 
     20 C16        19.0580   30.4050   16.3950 C.3       1 MUV200      0.0000 
     21 N11        19.3530   31.6990   15.7310 N.pl3     1 MUV200      0.0000 
     22 C12        20.0950   32.6440   16.5880 C.3       1 MUV200      0.0000 
     23 C13        21.5440   32.1580   16.6800 C.3       1 MUV200      0.0000 
     24 C14        22.4220   32.3340   15.4410 C.3       1 MUV200      0.0000 
     25 C15        22.6320   33.2310   16.6520 C.3       1 MUV200      0.0000 
     26 S8         18.0870   32.3400   14.9480 S.o2      1 MUV200      0.0000 
     27 O9         18.6330   33.3030   14.0350 O.2       1 MUV200      0.0000 
     28 O10        17.4160   31.2880   14.2590 O.2       1 MUV200      0.0000 
     29 C5         16.9610   33.1090   15.9000 C.2       1 MUV200      0.0000 
     30 O4         16.7390   34.4600   15.9210 O.3       1 MUV200      0.0000 
     31 C3         15.6930   34.6580   16.8190 C.2       1 MUV200      0.0000 
     32 C2         15.2890   33.4230   17.3250 C.2       1 MUV200      0.0000 
     33 C1         16.1050   32.4180   16.7070 C.2       1 MUV200      0.0000 
     34 H          22.3033   26.1351    8.8553 H         1 MUV200      0.0000 
     35 H          21.2013   26.1267   12.0127 H         1 MUV200      0.0000 
     36 H          21.3733   27.1998   10.6131 H         1 MUV200      0.0000 
     37 H          23.3183   28.2609   11.6913 H         1 MUV200      0.0000 
     38 H          23.0823   27.2199   13.1056 H         1 MUV200      0.0000 
     39 H          20.8668   27.2532   14.1948 H         1 MUV200      0.0000 
     40 H          19.4872   29.8886   13.7813 H         1 MUV200      0.0000 
     41 H          17.5307   28.6913   14.6477 H         1 MUV200      0.0000 
     42 H          18.5096   27.2258   14.8323 H         1 MUV200      0.0000 
     43 H          17.3447   29.6615   12.2750 H         1 MUV200      0.0000 
     44 H          16.9187   29.0950    9.9632 H         1 MUV200      0.0000 
     45 H          17.4508   26.8806    9.1392 H         1 MUV200      0.0000 
     46 H          18.3621   25.2229   10.6469 H         1 MUV200      0.0000 
     47 H          18.7900   25.7885   12.9551 H         1 MUV200      0.0000 
     48 H          21.0105   29.8197   15.7556 H         1 MUV200      0.0000 
     49 H          19.2429   30.4676   17.4549 H         1 MUV200      0.0000 
     50 H          18.0419   30.1000   16.2050 H         1 MUV200      0.0000 
     51 H          19.6755   32.6708   17.5853 H         1 MUV200      0.0000 
     52 H          20.0904   33.6379   16.1597 H         1 MUV200      0.0000 
     53 H          21.8843   31.4239   17.1671 H         1 MUV200      0.0000 
     54 H          21.9207   32.8216   14.8042 H         1 MUV200      0.0000 
     55 H          23.0841   31.6590   15.4636 H         1 MUV200      0.0000 
     56 H          23.3741   32.8964   17.1338 H         1 MUV200      0.0000 
     57 H          22.2106   34.0590   16.4744 H         1 MUV200      0.0000 
     58 H          15.3141   35.5004   17.0507 H         1 MUV200      0.0000 
     59 H          14.6155   33.2566   17.9501 H         1 MUV200      0.0000 
     60 H          16.0325   31.5087   16.8527 H         1 MUV200      0.0000 
     61 H          24.8073   24.8986    8.9794 H         1 MUV200      0.0000 
     62 H          23.7100   23.7292    9.0997 H         1 MUV200      0.0000 
     63 H          23.7216   24.6915    7.8113 H         1 MUV200      0.0000 
     64 H          19.1398   27.7831   16.5419 H         1 MUV200      0.0000 
@<TRIPOS>BOND
     1    2    1 2    
     2    3    2 am   
     3    5    2 1    
     4    4    3 1    
     5   34    3 1    
     6   61    4 1    
     7   62    4 1    
     8   63    4 1    
     9    6    5 1    
    10   35    5 1    
    11   36    5 1    
    12    7    6 1    
    13   37    6 1    
    14   38    6 1    
    15    8    7 2    
    16    9    7 am   
    17   10    9 1    
    18   39    9 1    
    19   11   10 1    
    20   18   10 1    
    21   40   10 1    
    22   12   11 1    
    23   41   11 1    
    24   42   11 1    
    25   13   12 ar   
    26   17   12 ar   
    27   14   13 ar   
    28   43   13 1    
    29   15   14 ar   
    30   44   14 1    
    31   16   15 ar   
    32   45   15 1    
    33   17   16 ar   
    34   46   16 1    
    35   47   17 1    
    36   19   18 1    
    37   20   18 1    
    38   48   18 1    
    39   64   19 1    
    40   21   20 1    
    41   49   20 1    
    42   50   20 1    
    43   22   21 1    
    44   26   21 1    
    45   23   22 1    
    46   51   22 1    
    47   52   22 1    
    48   24   23 1    
    49   25   23 1    
    50   53   23 1    
    51   25   24 1    
    52   54   24 1    
    53   55   24 1    
    54   56   25 1    
    55   57   25 1    
    56   27   26 2    
    57   28   26 2    
    58   29   26 1    
    59   30   29 1    
    60   33   29 2    
    61   31   30 1    
    62   32   31 2    
    63   58   31 1    
    64   33   32 1    
    65   59   32 1    
    66   60   33 1    
@<TRIPOS>SUBSTRUCTURE
     1 MUV200      1 GROUP   
@<TRIPOS>SET

