#    Name: 4IIJ_3_CAVITY_N1_6.mol2
#    Modification time : Tue Mar 11 05:31:43 2014

@<TRIPOS>MOLECULE
4IIJ_3_CAVITY_N1_6.mol2
   70     0     7     0     0
SMALL
NO_CHARGES


@<TRIPOS>ATOM
      1 CA         14.2121   20.2066  -12.0748 C.3       6 GLY6        0.0000 
      2 CA         13.9582   19.4350  -10.8138 C.3       6 GLY6        0.0000 
      3 N          13.7043   18.6633   -9.5528 N.2       2 ALA2        0.0000 
      4 CA         14.9795   20.4671  -15.3296 C.3       6 GLY6        0.0000 
      5 CA         14.7256   19.6955  -14.0686 C.3       6 GLY6        0.0000 
      6 CA         14.4718   18.9238  -12.8076 C.3       6 GLY6        0.0000 
      7 CA         14.2179   18.1522  -11.5466 C.3       6 GLY6        0.0000 
      8 NZ         13.9640   17.3805  -10.2856 N.2       4 LYS4        0.0000 
      9 OG         13.2703   19.6012  -14.4193 O.2       1 SER1        0.0000 
     10 OG         13.0164   18.8295  -13.1583 O.2       1 SER1        0.0000 
     11 O          12.7625   18.0578  -11.8973 O.2       2 ALA2        0.0000 
     12 O          12.5087   17.2862  -10.6363 O.2       2 ALA2        0.0000 
     13 CA         12.2548   16.5145   -9.3753 C.3       6 GLY6        0.0000 
     14 OG         11.5610   18.7352  -13.5090 O.2       1 SER1        0.0000 
     15 O          11.3072   17.9635  -12.2480 O.2       2 ALA2        0.0000 
     16 OD1        17.8902   20.6558  -14.6281 O.3       3 ASP3        0.0000 
     17 CA         16.4349   20.5614  -14.9788 C.3       6 GLY6        0.0000 
     18 OG         16.1810   19.7898  -13.7179 O.2       1 SER1        0.0000 
     19 N          15.0707   16.7848  -21.1332 N.2       2 ALA2        0.0000 
     20 NZ         18.7488   17.2339  -23.6865 N.2       4 LYS4        0.0000 
     21 CA         17.0396   16.3679  -22.7762 C.3       6 GLY6        0.0000 
     22 CA         13.0105   20.8840  -13.6865 C.3       6 GLY6        0.0000 
     23 CA         12.7567   20.1123  -12.4255 C.3       6 GLY6        0.0000 
     24 CA         12.5028   19.3407  -11.1646 C.3       6 GLY6        0.0000 
     25 O          12.2490   18.5690   -9.9036 O.2       2 ALA2        0.0000 
     26 CZ         11.3013   20.0180  -12.7763 C.ar      5 PHE5        0.0000 
     27 OD1        20.1189   18.9561  -17.0039 O.3       3 ASP3        0.0000 
     28 OD1        19.8650   18.1844  -15.7429 O.3       3 ASP3        0.0000 
     29 OD1        18.6635   18.8618  -17.3546 O.3       3 ASP3        0.0000 
     30 CA         18.4096   18.0901  -16.0936 C.3       6 GLY6        0.0000 
     31 OD1        17.2081   18.7674  -17.7053 O.3       3 ASP3        0.0000 
     32 DU         16.9543   17.9958  -16.4443 H         7 CUB7        0.0000 
     33 CA         16.7004   17.2241  -15.1833 C.3       6 GLY6        0.0000 
     34 OD1        16.4466   16.4525  -13.9223 O.3       3 ASP3        0.0000 
     35 N          15.7528   18.6731  -18.0560 N.2       2 ALA2        0.0000 
     36 OG         15.4989   17.9015  -16.7950 O.2       1 SER1        0.0000 
     37 OG         15.2450   17.1298  -15.5340 O.2       1 SER1        0.0000 
     38 OG         14.9912   16.3582  -14.2730 O.2       1 SER1        0.0000 
     39 N          14.0435   17.8071  -17.1457 N.2       2 ALA2        0.0000 
     40 OG         13.7897   17.0355  -15.8847 O.2       1 SER1        0.0000 
     41 NZ         17.0338   18.4224  -23.3045 N.2       4 LYS4        0.0000 
     42 OD1        16.7799   17.6508  -22.0435 O.3       3 ASP3        0.0000 
     43 OD1        16.2722   16.1075  -19.5215 O.3       3 ASP3        0.0000 
     44 OG         16.0183   15.3358  -18.2605 O.2       1 SER1        0.0000 
     45 CA         11.2955   22.0725  -13.3045 C.3       6 GLY6        0.0000 
     46 O          17.2140   16.7130  -17.1771 O.2       2 ALA2        0.0000 
     47 OD1        16.5202   18.9336  -21.3107 O.3       3 ASP3        0.0000 
     48 OD1        16.2663   18.1619  -20.0497 O.3       3 ASP3        0.0000 
     49 OD1        16.0125   17.3903  -18.7888 O.3       3 ASP3        0.0000 
     50 OG         15.7586   16.6186  -17.5278 O.2       1 SER1        0.0000 
     51 N          15.0648   18.8393  -21.6614 N.2       2 ALA2        0.0000 
     52 N          14.8110   18.0676  -20.4005 N.2       2 ALA2        0.0000 
     53 N          14.5571   17.2960  -19.1395 N.2       2 ALA2        0.0000 
     54 OG         14.3032   16.5243  -17.8785 O.2       1 SER1        0.0000 
     55 OD1        18.4038   20.1446  -16.6219 O.3       3 ASP3        0.0000 
     56 CA         18.1499   19.3729  -15.3609 C.3       6 GLY6        0.0000 
     57 CA         16.9484   20.0503  -16.9726 C.3       6 GLY6        0.0000 
     58 CA         16.6946   19.2786  -15.7116 C.3       6 GLY6        0.0000 
     59 CA         16.4407   18.5070  -14.4506 C.3       6 GLY6        0.0000 
     60 OD1        16.1868   17.7353  -13.1896 O.3       3 ASP3        0.0000 
     61 OD1        15.9330   16.9636  -11.9286 O.3       3 ASP3        0.0000 
     62 CA         15.2392   19.1843  -16.0623 C.3       6 GLY6        0.0000 
     63 DU         14.9853   18.4126  -14.8013 H         7 CUB7        0.0000 
     64 OG         14.7315   17.6410  -13.5403 O.2       1 SER1        0.0000 
     65 NZ         14.4776   16.8693  -12.2793 N.2       4 LYS4        0.0000 
     66 O          13.7838   19.0900  -16.4130 O.2       2 ALA2        0.0000 
     67 OG         13.5300   18.3183  -15.1520 O.2       1 SER1        0.0000 
     68 OG         13.2761   17.5467  -13.8910 O.2       1 SER1        0.0000 
     69 N          13.0222   16.7750  -12.6300 N.2       2 ALA2        0.0000 
     70 NZ         12.7684   16.0034  -11.3690 N.2       4 LYS4        0.0000 
@<TRIPOS>BOND
@<TRIPOS>SUBSTRUCTURE
     1 SER1        9 GROUP   
     2 ALA2        3 GROUP   
     3 ASP3       16 GROUP   
     4 LYS4        8 GROUP   
     5 PHE5       26 GROUP   
     6 GLY6        1 GROUP   
     7 CUB7       32 GROUP   
@<TRIPOS>SET

