#    Name: 4iij_GTP_3_INTS_M
#    Modification time : Tue Mar 25 04:00:21 2014

@<TRIPOS>MOLECULE
4iij_GTP_3_INTS_M
   82     0    15     0     0
SMALL
NO_CHARGES


@<TRIPOS>ATOM
      1 NZ         19.2475   17.4145  -18.9560 N.4       3 LYC4        0.0000 
      2 NZ         19.7270   18.4860  -18.0710 N.4      13 LYL4        0.0000 
      3 NZ         18.7680   16.3430  -19.8410 N.4       8 LYP4        0.0000 
      4 Zn         19.1595   19.4325  -18.7425 Zn        4 ZIC7        0.0000 
      5 Zn         19.7270   18.4860  -18.0710 Zn       14 ZIL7        0.0000 
      6 Zn         18.5920   20.3790  -19.4140 Zn        9 ZIP7        0.0000 
      7 N          19.2475   17.4145  -18.9560 N.am      2 SEC2        0.0000 
      8 N          19.7270   18.4860  -18.0710 N.am     12 SEL2        0.0000 
      9 N          18.7680   16.3430  -19.8410 N.am      7 SEP2        0.0000 
     10 N          23.3055   18.2540  -18.3365 N.am      2 SEC2        0.0000 
     11 N          22.1300   18.8160  -17.7060 N.am     12 SEL2        0.0000 
     12 N          24.4810   17.6920  -18.9670 N.am      7 SEP2        0.0000 
     13 N          22.6265   19.9100  -17.1050 N.am      2 SEC2        0.0000 
     14 N          23.1230   21.0040  -16.5040 N.am      7 SEP2        0.0000 
     15 NZ         19.8995   16.5795  -18.2925 N.4       3 LYC4        0.0000 
     16 NZ         21.0310   16.8160  -16.7440 N.4      13 LYL4        0.0000 
     17 N          21.4805   15.4625  -16.7810 N.am      2 SEC2        0.0000 
     18 N          21.0310   16.8160  -16.7440 N.am     12 SEL2        0.0000 
     19 N          21.9300   14.1090  -16.8180 N.am      7 SEP2        0.0000 
     20 N          21.3125   16.9170  -15.3200 N.am      2 SEC2        0.0000 
     21 N          21.5940   17.0180  -13.8960 N.am      7 SEP2        0.0000 
     22 N          21.7940   19.2200  -15.0060 N.am      2 SEC2        0.0000 
     23 N          20.5500   19.1030  -15.7290 N.am     12 SEL2        0.0000 
     24 N          23.0380   19.3370  -14.2830 N.am      7 SEP2        0.0000 
     25 N          21.8365   20.0535  -16.1165 N.am      2 SEC2        0.0000 
     26 Zn         18.8275   20.6340  -18.1195 Zn        4 ZIC7        0.0000 
     27 Zn         19.0630   20.8890  -16.8250 Zn       14 ZIL7        0.0000 
     28 N          18.2705   22.1690  -16.5965 N.am      2 SEC2        0.0000 
     29 N          19.0630   20.8890  -16.8250 N.am     12 SEL2        0.0000 
     30 N          17.4780   23.4490  -16.3680 N.am      7 SEP2        0.0000 
     31 N          20.4945   20.9935  -13.4570 N.am      2 SEC2        0.0000 
     32 N          19.3710   20.9200  -14.3670 N.am     12 SEL2        0.0000 
     33 N          21.6180   21.0670  -12.5470 N.am      7 SEP2        0.0000 
     34 N          15.7675   22.1670  -14.5350 N.am      2 SEC2        0.0000 
     35 N          16.4200   20.8310  -14.4510 N.am     12 SEL2        0.0000 
     36 N          15.1150   23.5030  -14.6190 N.am      7 SEP2        0.0000 
     37 N          16.9130   20.4645  -12.8880 N.am      2 SEC2        0.0000 
     38 N          17.4060   20.0980  -11.3250 N.am      7 SEP2        0.0000 
     39 N          16.9660   19.2635  -12.4080 N.am      2 SEC2        0.0000 
     40 N          16.5260   18.4290  -13.4910 N.am     12 SEL2        0.0000 
     41 CA         17.4985   17.2680  -13.2165 C.3       5 GLC5        0.0000 
     42 CA         15.6560   17.3200  -13.4040 C.3      15 GLL5        0.0000 
     43 CA         19.3410   17.2160  -13.0290 C.3      10 GLP5        0.0000 
     44 CA         12.2625   14.8355  -12.4760 C.3       5 GLC5        0.0000 
     45 CA         13.4260   16.6690  -12.3870 C.3      15 GLL5        0.0000 
     46 CA         11.0990   13.0020  -12.5650 C.3      10 GLP5        0.0000 
     47 O          13.8355   14.7335  -11.6200 O.2       1 ALC1        0.0000 
     48 O          13.1370   16.1910  -11.0920 O.2      11 ALL1        0.0000 
     49 O          14.5340   13.2760  -12.1480 O.2       6 ALP1        0.0000 
     50 O          14.0215   15.3275  -10.7220 O.2       1 ALC1        0.0000 
     51 O          14.9060   14.4640  -10.3520 O.2       6 ALP1        0.0000 
     52 CA         10.8890   18.2230  -14.2340 C.3       5 GLC5        0.0000 
     53 CA         12.3090   17.5530  -12.8900 C.3      15 GLL5        0.0000 
     54 CA          9.4690   18.8930  -15.5780 C.3      10 GLP5        0.0000 
     55 N          10.6190   17.4515  -13.8890 N.am      2 SEC2        0.0000 
     56 N          11.0550   17.1690  -12.3810 N.am     12 SEL2        0.0000 
     57 N          10.1830   17.7340  -15.3970 N.am      7 SEP2        0.0000 
     58 CA         13.5100   20.9305  -12.3930 C.3       5 GLC5        0.0000 
     59 CA         12.7400   18.9200  -12.3940 C.3      15 GLL5        0.0000 
     60 CA         14.2800   22.9410  -12.3920 C.3      10 GLP5        0.0000 
     61 CA         14.5445   19.6990  -11.4285 C.3       5 GLC5        0.0000 
     62 CA         16.3490   20.4780  -10.4630 C.3      10 GLP5        0.0000 
     63 N          10.5340   23.7925  -16.3075 N.am      2 SEC2        0.0000 
     64 N          10.1800   23.6510  -14.8380 N.am     12 SEL2        0.0000 
     65 N          10.8880   23.9340  -17.7770 N.am      7 SEP2        0.0000 
     66 N           9.3645   24.8135  -14.7050 N.am      2 SEC2        0.0000 
     67 N           8.5490   25.9760  -14.5720 N.am      7 SEP2        0.0000 
     68 O           8.9925   24.2170  -12.5640 O.2       1 ALC1        0.0000 
     69 O           9.6290   23.1120  -12.6990 O.2      11 ALL1        0.0000 
     70 O           8.3560   25.3220  -12.4290 O.2       6 ALP1        0.0000 
     71 O           8.9880   21.4405   -9.5910 O.2       1 ALC1        0.0000 
     72 O           9.1200   22.4570  -10.5130 O.2      11 ALL1        0.0000 
     73 O           8.8560   20.4240   -8.6690 O.2       6 ALP1        0.0000 
     74 N          10.0945   19.9715  -10.8710 N.am      2 SEC2        0.0000 
     75 N          10.6660   21.1830  -11.7290 N.am     12 SEL2        0.0000 
     76 N           9.5230   18.7600  -10.0130 N.am      7 SEP2        0.0000 
     77 CA         15.7460   18.9657  -11.6605 C.3       5 GLC5        0.0000 
     78 CA         14.6300   17.5870  -12.3120 C.3      15 GLL5        0.0000 
     79 CA         16.4340   16.6932  -11.3500 C.3       5 GLC5        0.0000 
     80 CA         17.7250   15.9330   -9.8420 C.3      10 GLP5        0.0000 
     81 CA         12.7792   22.1695  -12.9037 C.3       5 GLC5        0.0000 
     82 CA         11.3570   20.9740  -12.8750 C.3      15 GLL5        0.0000 
@<TRIPOS>BOND
@<TRIPOS>SUBSTRUCTURE
     1 ALC1       47 GROUP        1 X    ALC  0     ROOT ALC X 1
     2 SEC2        7 GROUP        1 X    SEC  0     **** SEC X 2
     3 LYC4        1 GROUP        1 X    LYC  0     **** LYC X 4
     4 ZIC7        4 GROUP        1 X    ZIC  0     **** ZIC X 5
     5 GLC5       41 GROUP        1 X    GLC  0     **** GLC X 6
     6 ALP1       49 GROUP        1 Y    ALP  0     ROOT ALP Y 8
     7 SEP2        9 GROUP        1 Y    SEP  0     **** SEP Y 9
     8 LYP4        3 GROUP        1 Y    LYP  0     **** LYP Y 11
     9 ZIP7        6 GROUP        1 Y    ZIP  0     **** ZIP Y 12
    10 GLP5       43 GROUP        1 Y    GLP  0     **** GLP Y 13
    11 ALL1       48 GROUP        1 Z    ALL  0     ROOT ALL Z 15
    12 SEL2        8 GROUP        1 Z    SEL  0     **** SEL Z 16
    13 LYL4        2 GROUP        1 Z    LYL  0     **** LYL Z 18
    14 ZIL7        5 GROUP        1 Z    ZIL  0     **** ZIL Z 19
    15 GLL5       42 GROUP        1 Z    GLL  0     **** GLL Z 20
@<TRIPOS>SET

