#    Name: 4iij_GTP_3_ligand
#    Modification time : Tue Mar 25 04:00:21 2014

@<TRIPOS>MOLECULE
4iij_GTP_3_ligand
   44    46     1     0     0
SMALL
NO_CHARGES


@<TRIPOS>ATOM
      1 PG         20.8610   18.2820  -17.0870 P.3       1 GTP501      0.0000 
      2 O1G        19.7270   18.4860  -18.0710 O.co2     1 GTP501      0.0000 
      3 O2G        22.1300   18.8160  -17.7060 O.co2     1 GTP501      0.0000 
      4 O3G        21.0310   16.8160  -16.7440 O.co2     1 GTP501      0.0000 
      5 O3B        20.5500   19.1030  -15.7290 O.3       1 GTP501      0.0000 
      6 PB         19.2380   20.0370  -15.5860 P.3       1 GTP501      0.0000 
      7 O1B        19.0630   20.8890  -16.8250 O.co2     1 GTP501      0.0000 
      8 O2B        19.3710   20.9200  -14.3670 O.co2     1 GTP501      0.0000 
      9 O3A        17.9930   19.0060  -15.4690 O.3       1 GTP501      0.0000 
     10 PA         16.5610   19.3670  -14.7970 P.3       1 GTP501      0.0000 
     11 O1A        15.4550   18.9450  -15.7320 O.co2     1 GTP501      0.0000 
     12 O2A        16.4200   20.8310  -14.4510 O.co2     1 GTP501      0.0000 
     13 O5'        16.5260   18.4290  -13.4910 O.3       1 GTP501      0.0000 
     14 C5'        15.6560   17.3200  -13.4040 C.3       1 GTP501      0.0000 
     15 C4'        14.6300   17.5870  -12.3120 C.3       1 GTP501      0.0000 
     16 O4'        14.1490   18.9080  -12.4390 O.3       1 GTP501      0.0000 
     17 C3'        13.4260   16.6690  -12.3870 C.3       1 GTP501      0.0000 
     18 O3'        13.1370   16.1910  -11.0920 O.3       1 GTP501      0.0000 
     19 C2'        12.3090   17.5530  -12.8900 C.3       1 GTP501      0.0000 
     20 O2'        11.0550   17.1690  -12.3810 O.3       1 GTP501      0.0000 
     21 C1'        12.7400   18.9200  -12.3940 C.3       1 GTP501      0.0000 
     22 N9         12.2620   20.0140  -13.2470 N.pl3     1 GTP501      0.0000 
     23 C8         12.6560   20.2750  -14.5270 C.2       1 GTP501      0.0000 
     24 N7         11.9950   21.3740  -14.9520 N.2       1 GTP501      0.0000 
     25 C5         11.2000   21.8220  -13.9560 C.2       1 GTP501      0.0000 
     26 C6         10.3290   22.8970  -13.8700 C.2       1 GTP501      0.0000 
     27 O6         10.1800   23.6510  -14.8380 O.2       1 GTP501      0.0000 
     28 N1          9.6290   23.1120  -12.6990 N.am      1 GTP501      0.0000 
     29 C2          9.7980   22.2520  -11.6340 C.2       1 GTP501      0.0000 
     30 N2          9.1200   22.4570  -10.5130 N.pl3     1 GTP501      0.0000 
     31 N3         10.6660   21.1830  -11.7290 N.2       1 GTP501      0.0000 
     32 C4         11.3570   20.9740  -12.8750 C.2       1 GTP501      0.0000 
     33 H          16.1863   16.3979  -13.1450 H         1 GTP501      0.0000 
     34 H          15.1116   17.1474  -14.3380 H         1 GTP501      0.0000 
     35 H          15.1040   17.4471  -11.3495 H         1 GTP501      0.0000 
     36 H          13.6196   15.9138  -13.0936 H         1 GTP501      0.0000 
     37 H          12.3628   17.5670  -13.9592 H         1 GTP501      0.0000 
     38 H          12.3942   19.0408  -11.3884 H         1 GTP501      0.0000 
     39 H          13.2923   19.7625  -15.0308 H         1 GTP501      0.0000 
     40 H           8.9840   23.9110  -12.6222 H         1 GTP501      0.0000 
     41 H           9.2650   21.7894   -9.7827 H         1 GTP501      0.0000 
     42 H           8.5250   23.2606  -10.4993 H         1 GTP501      0.0000 
     43 H          13.5176   15.2666  -11.0665 H         1 GTP501      0.0000 
     44 H          11.2549   16.4481  -11.7175 H         1 GTP501      0.0000 
@<TRIPOS>BOND
     1    2    1 ar   
     2    3    1 ar   
     3    4    1 ar   
     4    5    1 1    
     5    6    5 1    
     6    7    6 ar   
     7    8    6 ar   
     8    9    6 1    
     9   10    9 1    
    10   11   10 ar   
    11   12   10 ar   
    12   13   10 1    
    13   14   13 1    
    14   15   14 1    
    15   33   14 1    
    16   34   14 1    
    17   16   15 1    
    18   17   15 1    
    19   35   15 1    
    20   21   16 1    
    21   18   17 1    
    22   19   17 1    
    23   36   17 1    
    24   43   18 1    
    25   20   19 1    
    26   21   19 1    
    27   37   19 1    
    28   44   20 1    
    29   22   21 1    
    30   38   21 1    
    31   23   22 1    
    32   32   22 1    
    33   24   23 2    
    34   39   23 1    
    35   25   24 1    
    36   26   25 1    
    37   32   25 2    
    38   27   26 2    
    39   28   26 am   
    40   29   28 1    
    41   40   28 1    
    42   30   29 1    
    43   31   29 2    
    44   41   30 1    
    45   42   30 1    
    46   32   31 1    
@<TRIPOS>SUBSTRUCTURE
     1 GTP501      1 GROUP   
@<TRIPOS>SET

