#    Name: 1QF2_1_CAVITY_N1_ALL.mol2
#    Modification time : Tue Mar 11 03:27:24 2014

@<TRIPOS>MOLECULE
1QF2_1_CAVITY_N1_ALL.mol2
   66     0     7     0     0
SMALL
NO_CHARGES


@<TRIPOS>ATOM
      1 CA         40.7731   37.8346   -1.3645 C.3       6 GLY6        0.0000 
      2 CZ         38.7135   37.3273   -1.3423 C.ar      5 PHE5        0.0000 
      3 CA         39.7192   37.6325   -2.4125 C.3       6 GLY6        0.0000 
      4 DU         40.7249   37.9378   -3.4827 H         7 CUB7        0.0000 
      5 O          37.6596   37.1251   -2.3904 O.2       2 ALA2        0.0000 
      6 O          38.6653   37.4304   -3.4606 O.2       2 ALA2        0.0000 
      7 DU         39.6710   37.7357   -4.5308 H         7 CUB7        0.0000 
      8 O          37.6114   37.2283   -4.5086 O.2       2 ALA2        0.0000 
      9 CA         38.3560   38.7819   -1.2634 C.3       6 GLY6        0.0000 
     10 CA         39.3617   39.0872   -2.3336 C.3       6 GLY6        0.0000 
     11 O          40.3674   39.3924   -3.4038 O.2       2 ALA2        0.0000 
     12 O          41.3732   39.6977   -4.4740 O.2       2 ALA2        0.0000 
     13 N          37.3021   38.5798   -2.3114 N.2       2 ALA2        0.0000 
     14 N          38.3078   38.8850   -3.3816 N.2       2 ALA2        0.0000 
     15 CA         39.3135   39.1903   -4.4518 C.3       6 GLY6        0.0000 
     16 O          37.2539   38.6829   -4.4297 O.2       2 ALA2        0.0000 
     17 N          38.2596   38.9882   -5.4999 N.2       2 ALA2        0.0000 
     18 N          37.2057   38.7861   -6.5479 N.2       2 ALA2        0.0000 
     19 O          35.1461   38.2787   -6.5258 O.2       2 ALA2        0.0000 
     20 O          33.0864   37.7713   -6.5037 O.2       2 ALA2        0.0000 
     21 DU         35.0979   38.3818   -8.6441 H         7 CUB7        0.0000 
     22 CZ         36.9928   39.9313   -0.1142 C.ar      5 PHE5        0.0000 
     23 N          36.9446   40.0344   -2.2325 N.2       2 ALA2        0.0000 
     24 N          37.9503   40.3397   -3.3027 N.2       2 ALA2        0.0000 
     25 CA         38.9560   40.6449   -4.3729 C.3       6 GLY6        0.0000 
     26 N          36.8964   40.1376   -4.3507 N.2       2 ALA2        0.0000 
     27 N          35.8425   39.9354   -5.3988 N.2       2 ALA2        0.0000 
     28 N          34.7886   39.7333   -6.4469 N.2       2 ALA2        0.0000 
     29 N          35.7943   40.0386   -7.5171 N.2       2 ALA2        0.0000 
     30 CA         32.7290   39.2259   -6.4247 C.3       6 GLY6        0.0000 
     31 CA         33.7347   39.5312   -7.4949 C.3       6 GLY6        0.0000 
     32 OG         34.7404   39.8365   -8.5651 O.2       1 SER1        0.0000 
     33 CA         32.6808   39.3291   -8.5430 C.3       6 GLY6        0.0000 
     34 CZ         36.6834   41.2828    2.0830 C.ar      5 PHE5        0.0000 
     35 CA         37.6892   41.5880    1.0128 C.3       6 GLY6        0.0000 
     36 CA         36.6353   41.3859   -0.0352 C.3       6 GLY6        0.0000 
     37 CA         37.6410   41.6912   -1.1054 C.3       6 GLY6        0.0000 
     38 CA         38.6467   41.9964   -2.1756 C.3       6 GLY6        0.0000 
     39 N          35.5814   41.1838   -1.0833 N.2       2 ALA2        0.0000 
     40 N          36.5871   41.4891   -2.1535 N.2       2 ALA2        0.0000 
     41 O          37.5928   41.7943   -3.2237 O.2       2 ALA2        0.0000 
     42 O          38.5985   42.0996   -4.2939 O.2       2 ALA2        0.0000 
     43 N          35.5332   41.2869   -3.2016 N.2       2 ALA2        0.0000 
     44 N          36.5389   41.5922   -4.2718 N.2       2 ALA2        0.0000 
     45 N          37.5446   41.8974   -5.3420 N.2       2 ALA2        0.0000 
     46 N          35.4850   41.3901   -5.3198 N.2       2 ALA2        0.0000 
     47 N          36.4907   41.6953   -6.3900 N.2       2 ALA2        0.0000 
     48 N          34.4311   41.1880   -6.3679 N.2       2 ALA2        0.0000 
     49 OG         35.4368   41.4932   -7.4381 O.2       1 SER1        0.0000 
     50 CA         33.3772   40.9858   -7.4160 C.3       6 GLY6        0.0000 
     51 OG         34.3829   41.2911   -8.4862 O.2       1 SER1        0.0000 
     52 CA         37.3317   43.0427    1.0918 C.3       6 GLY6        0.0000 
     53 CA         38.3374   43.3479    0.0216 C.3       6 GLY6        0.0000 
     54 CA         36.2778   42.8406    0.0437 C.3       6 GLY6        0.0000 
     55 CA         37.2835   43.1458   -1.0265 C.3       6 GLY6        0.0000 
     56 O          38.2892   43.4511   -2.0967 O.2       2 ALA2        0.0000 
     57 NZ         35.2239   42.6384   -1.0043 N.2       4 LYS4        0.0000 
     58 NZ         36.2296   42.9437   -2.0746 N.2       4 LYS4        0.0000 
     59 N          37.2353   43.2489   -3.1448 N.2       2 ALA2        0.0000 
     60 O          38.2411   43.5542   -4.2150 O.2       2 ALA2        0.0000 
     61 N          36.1814   43.0468   -4.1928 N.2       2 ALA2        0.0000 
     62 OD1        35.1275   42.8447   -5.2409 O.3       3 ASP3        0.0000 
     63 NZ         34.0736   42.6426   -6.2889 N.2       4 LYS4        0.0000 
     64 CA         37.9799   44.8026    0.1005 C.3       6 GLY6        0.0000 
     65 CA         36.9260   44.6004   -0.9475 C.3       6 GLY6        0.0000 
     66 O          37.9317   44.9057   -2.0177 O.2       2 ALA2        0.0000 
@<TRIPOS>BOND
@<TRIPOS>SUBSTRUCTURE
     1 SER1       32 GROUP   
     2 ALA2        5 GROUP   
     3 ASP3       62 GROUP   
     4 LYS4       57 GROUP   
     5 PHE5        2 GROUP   
     6 GLY6        1 GROUP   
     7 CUB7        4 GROUP   
@<TRIPOS>SET

