#    Name: 1qf2_TI3_1_INTS_M
#    Modification time : Mon Mar 24 23:23:03 2014

@<TRIPOS>MOLECULE
1qf2_TI3_1_INTS_M
   54     0     9     0     0
SMALL
NO_CHARGES


@<TRIPOS>ATOM
      1 CA         35.1835   44.2485   -6.9990 C.3       3 GLC5        0.0000 
      2 CA         36.1630   42.4450   -6.1130 C.3       9 GLL5        0.0000 
      3 CA         34.2040   46.0520   -7.8850 C.3       6 GLP5        0.0000 
      4 CA         35.9655   44.4535   -3.9285 C.3       3 GLC5        0.0000 
      5 CA         35.7910   42.4910   -3.2890 C.3       9 GLL5        0.0000 
      6 CA         36.1400   46.4160   -4.5680 C.3       6 GLP5        0.0000 
      7 CA         36.6155   45.0650   -3.0390 C.3       3 GLC5        0.0000 
      8 CA         37.0910   43.7140   -1.5100 C.3       9 GLL5        0.0000 
      9 CA         39.2615   44.8110   -0.0800 C.3       3 GLC5        0.0000 
     10 CA         37.6510   43.7920   -0.2420 C.3       9 GLL5        0.0000 
     11 CA         40.8720   45.8300    0.0820 C.3       6 GLP5        0.0000 
     12 CA         38.5880   43.6560    2.3570 C.3       3 GLC5        0.0000 
     13 CA         37.4820   42.7320    0.6580 C.3       9 GLL5        0.0000 
     14 CA         39.6940   44.5800    4.0560 C.3       6 GLP5        0.0000 
     15 N          40.3365   41.8920   -3.6000 N.am      2 SEC2        0.0000 
     16 N          39.0490   41.6790   -3.8340 N.am      8 SEL2        0.0000 
     17 N          41.6240   42.1050   -3.3660 N.am      5 SEP2        0.0000 
     18 N          39.7930   42.9020   -3.5800 N.am      2 SEC2        0.0000 
     19 N          40.5370   44.1250   -3.3260 N.am      5 SEP2        0.0000 
     20 O          36.0230   39.5275   -3.3890 O.2       1 ALC1        0.0000 
     21 O          37.3580   40.1930   -3.7970 O.2       7 ALL1        0.0000 
     22 O          34.6880   38.8620   -2.9810 O.2       4 ALP1        0.0000 
     23 CA         39.1790   39.8460   -1.7725 C.3       3 GLC5        0.0000 
     24 CA         38.2040   39.0630   -3.4860 C.3       9 GLL5        0.0000 
     25 CA         40.1540   40.6290   -0.0590 C.3       6 GLP5        0.0000 
     26 CA         39.0990   40.1275   -5.1580 C.3       3 GLC5        0.0000 
     27 CA         39.9940   41.1920   -6.8300 C.3       6 GLP5        0.0000 
     28 N          36.1395   37.6600   -4.8210 N.am      2 SEC2        0.0000 
     29 N          37.3010   38.3880   -5.5820 N.am      8 SEL2        0.0000 
     30 N          34.9780   36.9320   -4.0600 N.am      5 SEP2        0.0000 
     31 CA         39.0825   38.3265   -7.2750 C.3       3 GLC5        0.0000 
     32 CA         39.2670   36.7060   -6.2840 C.3       9 GLL5        0.0000 
     33 CA         38.8980   39.9470   -8.2660 C.3       6 GLP5        0.0000 
     34 CA         40.7985   38.2925   -6.9005 C.3       3 GLC5        0.0000 
     35 CA         40.7070   36.2070   -6.3690 C.3       9 GLL5        0.0000 
     36 CA         40.8900   40.3780   -7.4320 C.3       6 GLP5        0.0000 
     37 CA         36.3250   44.4382   -4.9075 C.3       3 GLC5        0.0000 
     38 CA         36.8570   42.4760   -4.3810 C.3       9 GLL5        0.0000 
     39 CA         38.2520   41.8263   -6.0385 C.3       3 GLC5        0.0000 
     40 CA         35.2818   43.9065   -0.2955 C.3       3 GLC5        0.0000 
     41 CA         36.3600   42.5880   -1.8980 C.3       9 GLL5        0.0000 
     42 CA         33.8380   44.6620    1.1130 C.3       6 GLP5        0.0000 
     43 CA         35.2037   40.8480    0.7107 C.3       3 GLC5        0.0000 
     44 CA         36.1980   41.5450   -0.9900 C.3       9 GLL5        0.0000 
     45 CA         33.9310   40.1170    1.7760 C.3       6 GLP5        0.0000 
     46 CA         35.1573   43.1205    0.3793 C.3       3 GLC5        0.0000 
     47 CA         36.7550   41.6130    0.2810 C.3       9 GLL5        0.0000 
     48 CA         38.3153   41.1040   -0.2067 C.3       3 GLC5        0.0000 
     49 CA         36.6557   44.1855    1.4525 C.3       3 GLC5        0.0000 
     50 CA         35.7450   45.1090    2.6970 C.3       6 GLP5        0.0000 
     51 CA         38.8603   41.9455    0.0745 C.3       3 GLC5        0.0000 
     52 CA         40.8974   37.4179    0.0896 C.3       3 GLC5        0.0000 
     53 CA         40.9070   36.6040   -1.7130 C.3       9 GLL5        0.0000 
     54 CA         41.7470   38.9310    0.8570 C.3       6 GLP5        0.0000 
@<TRIPOS>BOND
@<TRIPOS>SUBSTRUCTURE
     1 ALC1       20 GROUP        1 X    ALC  0     ROOT ALC X 1
     2 SEC2       15 GROUP        1 X    SEC  0     **** SEC X 2
     3 GLC5        1 GROUP        1 X    GLC  0     **** GLC X 6
     4 ALP1       22 GROUP        1 Y    ALP  0     ROOT ALP Y 8
     5 SEP2       17 GROUP        1 Y    SEP  0     **** SEP Y 9
     6 GLP5        3 GROUP        1 Y    GLP  0     **** GLP Y 13
     7 ALL1       21 GROUP        1 Z    ALL  0     ROOT ALL Z 15
     8 SEL2       16 GROUP        1 Z    SEL  0     **** SEL Z 16
     9 GLL5        2 GROUP        1 Z    GLL  0     **** GLL Z 20
@<TRIPOS>SET

