#    Name: 1qf2_TI3_1_ligand
#    Modification time : Mon Mar 24 23:23:04 2014

@<TRIPOS>MOLECULE
1qf2_TI3_1_ligand
   51    53     1     0     0
SMALL
NO_CHARGES


@<TRIPOS>ATOM
      1 SG         36.1630   42.4450   -6.1130 S.3       1 TI3317      0.0000 
      2 CA1        36.8570   42.4760   -4.3810 C.3       1 TI3317      0.0000 
      3 CB1        35.7910   42.4910   -3.2890 C.3       1 TI3317      0.0000 
      4 CG1        36.3600   42.5880   -1.8980 C.ar      1 TI3317      0.0000 
      5 CD1        37.0910   43.7140   -1.5100 C.ar      1 TI3317      0.0000 
      6 CD2        36.1980   41.5450   -0.9900 C.ar      1 TI3317      0.0000 
      7 CE1        37.6510   43.7920   -0.2420 C.ar      1 TI3317      0.0000 
      8 CE2        36.7550   41.6130    0.2810 C.ar      1 TI3317      0.0000 
      9 CZ1        37.4820   42.7320    0.6580 C.ar      1 TI3317      0.0000 
     10 C1         37.8660   41.3970   -4.0130 C.2       1 TI3317      0.0000 
     11 O1         39.0490   41.6790   -3.8340 O.2       1 TI3317      0.0000 
     12 N2         37.3580   40.1930   -3.7970 N.am      1 TI3317      0.0000 
     13 CA2        38.2040   39.0630   -3.4860 C.3       1 TI3317      0.0000 
     14 C2         38.2310   38.2730   -4.7800 C.2       1 TI3317      0.0000 
     15 O2         37.3010   38.3880   -5.5820 O.2       1 TI3317      0.0000 
     16 N3         39.2610   37.4550   -5.0190 N.am      1 TI3317      0.0000 
     17 CD3        40.3860   37.0580   -4.1410 C.3       1 TI3317      0.0000 
     18 CA3        39.2670   36.7060   -6.2840 C.3       1 TI3317      0.0000 
     19 CB3        40.7070   36.2070   -6.3690 C.3       1 TI3317      0.0000 
     20 CG3        41.0540   35.9540   -4.9460 C.3       1 TI3317      0.0000 
     21 CG4        40.0020   36.5450   -2.7660 C.ar      1 TI3317      0.0000 
     22 CD5        38.7600   35.9420   -2.5460 C.ar      1 TI3317      0.0000 
     23 CD4        40.9070   36.6040   -1.7130 C.ar      1 TI3317      0.0000 
     24 CE5        38.4290   35.4090   -1.3070 C.ar      1 TI3317      0.0000 
     25 CE4        40.5880   36.0710   -0.4680 C.ar      1 TI3317      0.0000 
     26 CZ3        39.3480   35.4720   -0.2650 C.ar      1 TI3317      0.0000 
     27 C3         38.2320   35.5680   -6.3930 C.2       1 TI3317      0.0000 
     28 O3         37.8780   34.9710   -5.3490 O.co2     1 TI3317      0.0000 
     29 OXT        37.7500   35.3150   -7.5250 O.co2     1 TI3317      0.0000 
     30 H          37.3673   43.4666   -4.3698 H         1 TI3317      0.0000 
     31 H          35.1849   41.5740   -3.3749 H         1 TI3317      0.0000 
     32 H          35.1134   43.3420   -3.4689 H         1 TI3317      0.0000 
     33 H          37.2136   44.4933   -2.1755 H         1 TI3317      0.0000 
     34 H          35.6555   40.7089   -1.2666 H         1 TI3317      0.0000 
     35 H          38.1867   44.6191    0.0397 H         1 TI3317      0.0000 
     36 H          36.6276   40.8341    0.9403 H         1 TI3317      0.0000 
     37 H          37.8986   42.7896    1.5948 H         1 TI3317      0.0000 
     38 H          36.3350   40.0027   -3.8400 H         1 TI3317      0.0000 
     39 H          37.7814   38.4509   -2.7161 H         1 TI3317      0.0000 
     40 H          39.2017   39.3683   -3.2465 H         1 TI3317      0.0000 
     41 H          41.0900   37.8634   -4.0660 H         1 TI3317      0.0000 
     42 H          39.1312   37.4027   -7.1083 H         1 TI3317      0.0000 
     43 H          41.3192   36.9719   -6.7780 H         1 TI3317      0.0000 
     44 H          40.7331   35.3067   -6.9312 H         1 TI3317      0.0000 
     45 H          40.6693   35.0017   -4.6266 H         1 TI3317      0.0000 
     46 H          42.1186   36.0061   -4.8015 H         1 TI3317      0.0000 
     47 H          38.0774   35.8939   -3.3233 H         1 TI3317      0.0000 
     48 H          41.8292   37.0495   -1.8558 H         1 TI3317      0.0000 
     49 H          37.5131   34.9716   -1.1604 H         1 TI3317      0.0000 
     50 H          41.2674   36.1194    0.3016 H         1 TI3317      0.0000 
     51 H          39.1124   35.0770    0.6538 H         1 TI3317      0.0000 
@<TRIPOS>BOND
     1    2    1 1    
     2    3    2 1    
     3   10    2 1    
     4   30    2 1    
     5    4    3 1    
     6   31    3 1    
     7   32    3 1    
     8    5    4 ar   
     9    6    4 ar   
    10    7    5 ar   
    11   33    5 1    
    12    8    6 ar   
    13   34    6 1    
    14    9    7 ar   
    15   35    7 1    
    16    9    8 ar   
    17   36    8 1    
    18   37    9 1    
    19   11   10 2    
    20   12   10 am   
    21   13   12 1    
    22   38   12 1    
    23   14   13 1    
    24   39   13 1    
    25   40   13 1    
    26   15   14 2    
    27   16   14 am   
    28   17   16 1    
    29   18   16 1    
    30   20   17 1    
    31   21   17 1    
    32   41   17 1    
    33   19   18 1    
    34   27   18 1    
    35   42   18 1    
    36   20   19 1    
    37   43   19 1    
    38   44   19 1    
    39   45   20 1    
    40   46   20 1    
    41   22   21 ar   
    42   23   21 ar   
    43   24   22 ar   
    44   47   22 1    
    45   25   23 ar   
    46   48   23 1    
    47   26   24 ar   
    48   49   24 1    
    49   26   25 ar   
    50   50   25 1    
    51   51   26 1    
    52   28   27 ar   
    53   29   27 ar   
@<TRIPOS>SUBSTRUCTURE
     1 TI3317      1 GROUP   
@<TRIPOS>SET

