#    Name: 3pwd_CZ0_1_INTS_M
#    Modification time : Tue Mar 25 08:38:24 2014

@<TRIPOS>MOLECULE
3pwd_CZ0_1_INTS_M
   43     0     9     0     0
SMALL
NO_CHARGES


@<TRIPOS>ATOM
      1 CA         26.3380    7.9115   16.1090 C.3       3 GLC5        0.0000 
      2 CA         24.3990    7.3770   16.8210 C.3       9 GLL5        0.0000 
      3 CA         28.2770    8.4460   15.3970 C.3       6 GLP5        0.0000 
      4 N          26.7270    6.3555   14.5800 N.am      1 SEC2        0.0000 
      5 N          25.6000    6.3220   15.2410 N.am      7 SEL2        0.0000 
      6 N          27.8540    6.3890   13.9190 N.am      4 SEP2        0.0000 
      7 CA         25.9610    6.7210   19.6750 C.3       3 GLC5        0.0000 
      8 CA         24.0990    6.4880   19.0800 C.3       9 GLL5        0.0000 
      9 CA         27.8230    6.9540   20.2700 C.3       6 GLP5        0.0000 
     10 NZ         26.2560    7.3180   14.2815 N.4       2 LYC4        0.0000 
     11 NZ         24.6580    8.2470   14.6440 N.4       8 LYL4        0.0000 
     12 NZ         27.8540    6.3890   13.9190 N.4       5 LYP4        0.0000 
     13 CA         22.2240   11.0555   21.9540 C.3       3 GLC5        0.0000 
     14 CA         21.3450    9.0520   22.3640 C.3       9 GLL5        0.0000 
     15 CA         23.1030   13.0590   21.5440 C.3       6 GLP5        0.0000 
     16 CA         19.5170    8.0565   22.9090 C.3       3 GLC5        0.0000 
     17 CA         17.6890    7.0610   23.4540 C.3       6 GLP5        0.0000 
     18 CA         24.0292   10.9243   18.0207 C.3       3 GLC5        0.0000 
     19 CA         22.8380    9.5690   17.4970 C.3       9 GLL5        0.0000 
     20 CA         24.9550   12.3320   19.1820 C.3       6 GLP5        0.0000 
     21 CA         21.7688   10.5087   15.5587 C.3       3 GLC5        0.0000 
     22 CA         20.4340   11.5010   14.2580 C.3       6 GLP5        0.0000 
     23 CA         21.4813    8.6382   16.2572 C.3       3 GLC5        0.0000 
     24 CA         23.3690    9.4640   16.2220 C.3       9 GLL5        0.0000 
     25 CA         19.8590    7.7600   15.6550 C.3       6 GLP5        0.0000 
     26 CA         22.8005    6.5280   17.4040 C.3       3 GLC5        0.0000 
     27 CA         21.4670    5.6310   17.3420 C.3       6 GLP5        0.0000 
     28 CA         25.0175    8.5180   19.5663 C.3       3 GLC5        0.0000 
     29 CA         23.8690    7.4730   18.1110 C.3       9 GLL5        0.0000 
     30 CA         26.5590    9.0100   20.8600 C.3       6 GLP5        0.0000 
     31 CA         23.8810   10.4863   19.1258 C.3       3 GLC5        0.0000 
     32 CA         23.0830    8.5790   18.4340 C.3       9 GLL5        0.0000 
     33 CA         24.8274    8.2110   20.5659 C.3       3 GLC5        0.0000 
     34 CA         23.5440    6.6120   20.3600 C.3       9 GLL5        0.0000 
     35 CA         21.2309    6.7480   20.3874 C.3       3 GLC5        0.0000 
     36 CA         19.3660    6.0840   20.5030 C.3       6 GLP5        0.0000 
     37 CA         23.5411    8.6822   23.4705 C.3       3 GLC5        0.0000 
     38 CA         22.1840    7.8530   22.0220 C.3       9 GLL5        0.0000 
     39 CA         25.2550    9.1610   24.5150 C.3       6 GLP5        0.0000 
     40 CA         20.5966    7.1437   21.4645 C.3       3 GLC5        0.0000 
     41 CA         22.4350    6.8570   22.9540 C.3       9 GLL5        0.0000 
     42 CA         22.3852    6.4983   18.5674 C.3       3 GLC5        0.0000 
     43 CA         22.7640    7.7220   20.6620 C.3       9 GLL5        0.0000 
@<TRIPOS>BOND
@<TRIPOS>SUBSTRUCTURE
     1 SEC2        4 GROUP        1 X    SEC  0     ROOT SEC X 2
     2 LYC4       10 GROUP        1 X    LYC  0     **** LYC X 4
     3 GLC5        1 GROUP        1 X    GLC  0     **** GLC X 6
     4 SEP2        6 GROUP        1 Y    SEP  0     ROOT SEP Y 9
     5 LYP4       12 GROUP        1 Y    LYP  0     **** LYP Y 11
     6 GLP5        3 GROUP        1 Y    GLP  0     **** GLP Y 13
     7 SEL2        5 GROUP        1 Z    SEL  0     ROOT SEL Z 16
     8 LYL4       11 GROUP        1 Z    LYL  0     **** LYL Z 18
     9 GLL5        2 GROUP        1 Z    GLL  0     **** GLL Z 20
@<TRIPOS>SET

