#    Name: 3pwd_CZ0_1_ligand
#    Modification time : Tue Mar 25 08:38:25 2014

@<TRIPOS>MOLECULE
3pwd_CZ0_1_ligand
   28    30     1     0     0
SMALL
NO_CHARGES


@<TRIPOS>ATOM
      1 C1         23.3690    9.4640   16.2220 C.ar      1 CZ01        0.0000 
      2 N1         25.1950    6.3090   16.3890 N.pl3     1 CZ01        0.0000 
      3 C2         24.1450    8.3660   15.8930 C.ar      1 CZ01        0.0000 
      4 O2         25.4870    5.3770   17.1230 O.2       1 CZ01        0.0000 
      5 C3         24.3990    7.3770   16.8210 C.ar      1 CZ01        0.0000 
      6 O3         25.6000    6.3220   15.2410 O.2       1 CZ01        0.0000 
      7 C4         22.8380    9.5690   17.4970 C.ar      1 CZ01        0.0000 
      8 C5         23.0830    8.5790   18.4340 C.ar      1 CZ01        0.0000 
      9 C6         23.8690    7.4730   18.1110 C.ar      1 CZ01        0.0000 
     10 C7         24.0990    6.4880   19.0800 C.ar      1 CZ01        0.0000 
     11 C8         22.5310    8.7020   19.7050 C.ar      1 CZ01        0.0000 
     12 C9         22.7640    7.7220   20.6620 C.ar      1 CZ01        0.0000 
     13 C10        23.5440    6.6120   20.3600 C.ar      1 CZ01        0.0000 
     14 O11        23.7610    5.6510   21.3300 O.3       1 CZ01        0.0000 
     15 C12        23.2290    5.7630   22.5940 C.2       1 CZ01        0.0000 
     16 C13        22.4350    6.8570   22.9540 C.2       1 CZ01        0.0000 
     17 C14        22.1840    7.8530   22.0220 C.2       1 CZ01        0.0000 
     18 O15        24.6580    8.2470   14.6440 O.co2     1 CZ01        0.0000 
     19 O16        23.4550    4.8610   23.4310 O.2       1 CZ01        0.0000 
     20 C17        21.3450    9.0520   22.3640 C.3       1 CZ01        0.0000 
     21 H          23.1877   10.1968   15.5251 H         1 CZ01        0.0000 
     22 H          22.2602   10.3844   17.7485 H         1 CZ01        0.0000 
     23 H          24.6775    5.6708   18.8507 H         1 CZ01        0.0000 
     24 H          21.9503    9.5190   19.9357 H         1 CZ01        0.0000 
     25 H          22.0451    6.9170   23.8985 H         1 CZ01        0.0000 
     26 H          21.8561    9.9051   22.2589 H         1 CZ01        0.0000 
     27 H          20.5377    9.1198   21.7777 H         1 CZ01        0.0000 
     28 H          21.0192    9.0200   23.3089 H         1 CZ01        0.0000 
@<TRIPOS>BOND
     1    3    1 ar   
     2    7    1 ar   
     3   21    1 1    
     4    4    2 2    
     5    5    2 1    
     6    6    2 2    
     7    5    3 ar   
     8   18    3 ar   
     9    9    5 ar   
    10    8    7 ar   
    11   22    7 1    
    12    9    8 ar   
    13   11    8 ar   
    14   10    9 ar   
    15   13   10 ar   
    16   23   10 1    
    17   12   11 ar   
    18   24   11 1    
    19   13   12 ar   
    20   17   12 1    
    21   14   13 1    
    22   15   14 1    
    23   16   15 1    
    24   19   15 2    
    25   17   16 2    
    26   25   16 1    
    27   20   17 1    
    28   26   20 1    
    29   27   20 1    
    30   28   20 1    
@<TRIPOS>SUBSTRUCTURE
     1 CZ01        1 GROUP   
@<TRIPOS>SET

