#    Name: 3ann_NDP_3_INTS_M
#    Modification time : Mon Mar 24 17:55:25 2014

@<TRIPOS>MOLECULE
3ann_NDP_3_INTS_M
   97     0     9     0     0
SMALL
NO_CHARGES


@<TRIPOS>ATOM
      1 N         -12.6535  -28.3425  -24.2795 N.am      2 SEC2        0.0000 
      2 N         -12.8260  -27.3960  -25.3680 N.am      8 SEL2        0.0000 
      3 N         -12.4810  -29.2890  -23.1910 N.am      5 SEP2        0.0000 
      4 CA        -16.4390  -27.0335  -28.5765 C.3       3 GLC5        0.0000 
      5 CA        -15.8890  -28.3340  -27.5180 C.3       9 GLL5        0.0000 
      6 CA        -16.9890  -25.7330  -29.6350 C.3       6 GLP5        0.0000 
      7 CA        -18.4410  -29.2940  -27.3805 C.3       3 GLC5        0.0000 
      8 CA        -16.3860  -29.7630  -27.5770 C.3       9 GLL5        0.0000 
      9 CA        -20.4960  -28.8250  -27.1840 C.3       6 GLP5        0.0000 
     10 N         -15.0110  -33.2740  -26.6565 N.am      2 SEC2        0.0000 
     11 N         -15.4550  -32.0160  -27.6330 N.am      8 SEL2        0.0000 
     12 N         -14.5670  -34.5320  -25.6800 N.am      5 SEP2        0.0000 
     13 N         -14.4520  -32.0150  -26.5590 N.am      2 SEC2        0.0000 
     14 N         -13.4490  -32.0140  -25.4850 N.am      5 SEP2        0.0000 
     15 O         -14.5860  -32.9425  -27.9595 O.2       1 ALC1        0.0000 
     16 O         -15.4550  -32.0160  -27.6330 O.2       7 ALL1        0.0000 
     17 O         -13.7170  -33.8690  -28.2860 O.2       4 ALP1        0.0000 
     18 N         -15.9800  -32.9050  -31.1300 N.am      2 SEC2        0.0000 
     19 N         -15.2130  -31.8880  -30.2380 N.am      8 SEL2        0.0000 
     20 N         -16.7470  -33.9220  -32.0220 N.am      5 SEP2        0.0000 
     21 CA        -17.8365  -31.6780  -27.9675 C.3       3 GLC5        0.0000 
     22 CA        -17.1520  -30.7030  -29.5520 C.3       9 GLL5        0.0000 
     23 CA        -18.5210  -32.6530  -26.3830 C.3       6 GLP5        0.0000 
     24 CA        -17.3820  -32.9045  -29.8180 C.3       3 GLC5        0.0000 
     25 CA        -17.6120  -35.1060  -30.0840 C.3       6 GLP5        0.0000 
     26 CA        -20.3195  -32.2140  -34.2535 C.3       3 GLC5        0.0000 
     27 CA        -20.4190  -30.7270  -33.1160 C.3       9 GLL5        0.0000 
     28 CA        -20.2200  -33.7010  -35.3910 C.3       6 GLP5        0.0000 
     29 CA        -21.1935  -34.1690  -30.6420 C.3       3 GLC5        0.0000 
     30 CA        -20.6010  -32.5770  -31.5770 C.3       9 GLL5        0.0000 
     31 CA        -21.7860  -35.7610  -29.7070 C.3       6 GLP5        0.0000 
     32 CA        -19.1065  -33.8415  -30.8305 C.3       3 GLC5        0.0000 
     33 CA        -18.6720  -33.0050  -32.4850 C.3       3 GLC5        0.0000 
     34 CA        -16.7430  -33.4330  -33.3930 C.3       6 GLP5        0.0000 
     35 CA        -20.4105  -33.1390  -33.4840 C.3       3 GLC5        0.0000 
     36 CA        -21.7270  -31.9810  -30.2970 C.3       3 GLC5        0.0000 
     37 CA        -22.8530  -31.3850  -29.0170 C.3       6 GLP5        0.0000 
     38 N         -14.8185  -28.3480  -22.0895 N.am      2 SEC2        0.0000 
     39 N         -15.2990  -27.6080  -23.2690 N.am      8 SEL2        0.0000 
     40 N         -14.3380  -29.0880  -20.9100 N.am      5 SEP2        0.0000 
     41 CA        -17.1325  -26.6930  -21.9990 C.3       3 GLC5        0.0000 
     42 CA        -17.7640  -26.1470  -23.9890 C.3       9 GLL5        0.0000 
     43 CA        -16.5010  -27.2390  -20.0090 C.3       6 GLP5        0.0000 
     44 CA        -19.9695  -25.9015  -22.0030 C.3       3 GLC5        0.0000 
     45 CA        -18.9300  -25.1690  -23.8240 C.3       9 GLL5        0.0000 
     46 CA        -21.0090  -26.6340  -20.1820 C.3       6 GLP5        0.0000 
     47 N         -21.3690  -22.8030  -24.5310 N.am      2 SEC2        0.0000 
     48 N         -19.9810  -23.3910  -25.0960 N.am      8 SEL2        0.0000 
     49 N         -22.7570  -22.2150  -23.9660 N.am      5 SEP2        0.0000 
     50 CA        -19.6755  -21.2400  -23.1660 C.3       3 GLC5        0.0000 
     51 CA        -18.2100  -22.9100  -23.4720 C.3       9 GLL5        0.0000 
     52 CA        -21.1410  -19.5700  -22.8600 C.3       6 GLP5        0.0000 
     53 CA        -19.9545  -25.0505  -21.2055 C.3       3 GLC5        0.0000 
     54 CA        -18.9000  -23.4670  -22.2290 C.3       9 GLL5        0.0000 
     55 CA        -16.6760  -25.3140  -20.4365 C.3       3 GLC5        0.0000 
     56 CA        -16.8510  -23.3890  -20.8640 C.3       9 GLL5        0.0000 
     57 CA        -19.4430  -22.6260  -17.0685 C.3       3 GLC5        0.0000 
     58 CA        -18.4000  -22.8040  -18.5850 C.3       9 GLL5        0.0000 
     59 CA        -20.4860  -22.4480  -15.5520 C.3       6 GLP5        0.0000 
     60 CA        -19.9865  -24.7605  -20.0135 C.3       3 GLC5        0.0000 
     61 CA        -18.9640  -22.8870  -19.8450 C.3       9 GLL5        0.0000 
     62 CA        -20.0785  -22.1440  -18.1370 C.3       3 GLC5        0.0000 
     63 CA        -21.1930  -21.4010  -16.4290 C.3       6 GLP5        0.0000 
     64 N         -13.6325  -33.7035  -29.6170 N.am      2 SEC2        0.0000 
     65 N         -13.5480  -33.5380  -30.9480 N.am      8 SEL2        0.0000 
     66 N         -13.7170  -33.8690  -28.2860 N.am      5 SEP2        0.0000 
     67 N         -15.1475  -33.7300  -31.4850 N.am      2 SEC2        0.0000 
     68 N         -13.9965  -33.7170  -32.4925 N.am      2 SEC2        0.0000 
     69 N         -14.4450  -33.8960  -34.0370 N.am      5 SEP2        0.0000 
     70 N         -12.8260  -34.2270  -31.8785 N.am      2 SEC2        0.0000 
     71 N         -12.1040  -34.9160  -32.8090 N.am      5 SEP2        0.0000 
     72 N         -14.1385  -32.6950  -33.2075 N.am      2 SEC2        0.0000 
     73 N         -13.8320  -31.4940  -32.3780 N.am      8 SEL2        0.0000 
     74 CA        -17.1827  -31.4402  -27.1217 C.3       3 GLC5        0.0000 
     75 CA        -15.3030  -30.6920  -28.1440 C.3       9 GLL5        0.0000 
     76 CA        -14.3606  -30.2746  -26.4759 C.3       3 GLC5        0.0000 
     77 CA        -13.0010  -30.6790  -25.1060 C.3       6 GLP5        0.0000 
     78 CA        -17.9280  -32.0082  -32.6140 C.3       3 GLC5        0.0000 
     79 CA        -18.8970  -30.9380  -31.2750 C.3       9 GLL5        0.0000 
     80 CA        -21.1970  -28.9510  -33.1003 C.3       3 GLC5        0.0000 
     81 CA        -19.3290  -30.2290  -32.3950 C.3       9 GLL5        0.0000 
     82 CA        -22.5200  -27.4240  -33.4450 C.3       6 GLP5        0.0000 
     83 CA        -20.3212  -29.7230  -30.8276 C.3       3 GLC5        0.0000 
     84 CA        -21.2570  -28.7380  -29.6400 C.3       6 GLP5        0.0000 
     85 CA        -19.4590  -27.4720  -23.6412 C.3       3 GLC5        0.0000 
     86 CA        -20.5710  -29.2860  -23.3760 C.3       6 GLP5        0.0000 
     87 CA        -19.0078  -24.9328  -26.1960 C.3       3 GLC5        0.0000 
     88 CA        -19.1800  -25.3590  -28.1990 C.3       6 GLP5        0.0000 
     89 CA        -20.8867  -24.5978  -23.9960 C.3       3 GLC5        0.0000 
     90 CA        -18.7410  -23.8440  -24.5620 C.3       9 GLL5        0.0000 
     91 CA        -22.9380  -24.6890  -23.7990 C.3       6 GLP5        0.0000 
     92 CA        -16.3202  -25.0452  -18.7665 C.3       3 GLC5        0.0000 
     93 CA        -16.1800  -23.3080  -19.6570 C.3       9 GLL5        0.0000 
     94 CA        -16.0870  -26.9410  -18.5190 C.3       6 GLP5        0.0000 
     95 CA        -17.2817  -23.7972  -16.8510 C.3       3 GLC5        0.0000 
     96 CA        -16.9270  -22.9910  -18.3710 C.3       9 GLL5        0.0000 
     97 CA        -16.9000  -24.6970  -15.2240 C.3       6 GLP5        0.0000 
@<TRIPOS>BOND
@<TRIPOS>SUBSTRUCTURE
     1 ALC1       15 GROUP        1 X    ALC  0     ROOT ALC X 1
     2 SEC2        1 GROUP        1 X    SEC  0     **** SEC X 2
     3 GLC5        4 GROUP        1 X    GLC  0     **** GLC X 6
     4 ALP1       17 GROUP        1 Y    ALP  0     ROOT ALP Y 8
     5 SEP2        3 GROUP        1 Y    SEP  0     **** SEP Y 9
     6 GLP5        6 GROUP        1 Y    GLP  0     **** GLP Y 13
     7 ALL1       16 GROUP        1 Z    ALL  0     ROOT ALL Z 15
     8 SEL2        2 GROUP        1 Z    SEL  0     **** SEL Z 16
     9 GLL5        5 GROUP        1 Z    GLL  0     **** GLL Z 20
@<TRIPOS>SET

