#    Name: 3ann_NDP_3_ligand
#    Modification time : Mon Mar 24 17:55:25 2014

@<TRIPOS>MOLECULE
3ann_NDP_3_ligand
   74    78     1     0     0
SMALL
NO_CHARGES


@<TRIPOS>ATOM
      1 PA        -13.9440  -27.0420  -26.3010 P.3       1 NDP701      0.0000 
      2 O1A       -13.7370  -26.2490  -27.5100 O.co2     1 NDP701      0.0000 
      3 O2A       -12.8260  -27.3960  -25.3680 O.co2     1 NDP701      0.0000 
      4 O5B       -14.7750  -28.3660  -26.6420 O.3       1 NDP701      0.0000 
      5 C5B       -15.8890  -28.3340  -27.5180 C.3       1 NDP701      0.0000 
      6 C4B       -16.3860  -29.7630  -27.5770 C.3       1 NDP701      0.0000 
      7 O4B       -17.4430  -29.7660  -28.5230 O.3       1 NDP701      0.0000 
      8 C3B       -15.3030  -30.6920  -28.1440 C.3       1 NDP701      0.0000 
      9 O3B       -15.4550  -32.0160  -27.6330 O.3       1 NDP701      0.0000 
     10 C2B       -15.6270  -30.6960  -29.6290 C.3       1 NDP701      0.0000 
     11 O2B       -15.2130  -31.8880  -30.2380 O.3       1 NDP701      0.0000 
     12 C1B       -17.1520  -30.7030  -29.5520 C.3       1 NDP701      0.0000 
     13 N9A       -17.8390  -30.2660  -30.7630 N.pl3     1 NDP701      0.0000 
     14 C8A       -17.5980  -29.1500  -31.5490 C.2       1 NDP701      0.0000 
     15 N7A       -18.5260  -29.1470  -32.5390 N.2       1 NDP701      0.0000 
     16 C5A       -19.3290  -30.2290  -32.3950 C.ar      1 NDP701      0.0000 
     17 C6A       -20.4190  -30.7270  -33.1160 C.ar      1 NDP701      0.0000 
     18 N6A       -20.7820  -30.1880  -34.2830 N.pl3     1 NDP701      0.0000 
     19 N1A       -21.0300  -31.8800  -32.6880 N.ar      1 NDP701      0.0000 
     20 C2A       -20.6010  -32.5770  -31.5770 C.ar      1 NDP701      0.0000 
     21 N3A       -19.5110  -32.0860  -30.8760 N.ar      1 NDP701      0.0000 
     22 C4A       -18.8970  -30.9380  -31.2750 C.ar      1 NDP701      0.0000 
     23 O3        -14.9940  -26.1540  -25.4440 O.3       1 NDP701      0.0000 
     24 PN        -15.1390  -26.2320  -23.8080 P.3       1 NDP701      0.0000 
     25 O1N       -14.0980  -25.2980  -23.2530 O.co2     1 NDP701      0.0000 
     26 O2N       -15.2990  -27.6080  -23.2690 O.co2     1 NDP701      0.0000 
     27 O5D       -16.5430  -25.4720  -23.6810 O.3       1 NDP701      0.0000 
     28 C5D       -17.7640  -26.1470  -23.9890 C.3       1 NDP701      0.0000 
     29 C4D       -18.9300  -25.1690  -23.8240 C.3       1 NDP701      0.0000 
     30 O4D       -19.0270  -24.8710  -22.4460 O.3       1 NDP701      0.0000 
     31 C3D       -18.7410  -23.8440  -24.5620 C.3       1 NDP701      0.0000 
     32 O3D       -19.9810  -23.3910  -25.0960 O.3       1 NDP701      0.0000 
     33 C2D       -18.2100  -22.9100  -23.4720 C.3       1 NDP701      0.0000 
     34 O2D       -18.5870  -21.5860  -23.6650 O.3       1 NDP701      0.0000 
     35 C1D       -18.9000  -23.4670  -22.2290 C.3       1 NDP701      0.0000 
     36 N1N       -18.2030  -23.1730  -20.9540 N.pl3     1 NDP701      0.0000 
     37 C2N       -16.8510  -23.3890  -20.8640 C.2       1 NDP701      0.0000 
     38 C3N       -16.1800  -23.3080  -19.6570 C.2       1 NDP701      0.0000 
     39 C7N       -14.7010  -23.5530  -19.6130 C.2       1 NDP701      0.0000 
     40 O7N       -14.0550  -23.2770  -18.4070 O.2       1 NDP701      0.0000 
     41 N7N       -14.0400  -24.0480  -20.6640 N.am      1 NDP701      0.0000 
     42 C4N       -16.9270  -22.9910  -18.3710 C.3       1 NDP701      0.0000 
     43 C5N       -18.4000  -22.8040  -18.5850 C.2       1 NDP701      0.0000 
     44 C6N       -18.9640  -22.8870  -19.8450 C.2       1 NDP701      0.0000 
     45 P2B       -13.7870  -32.0410  -30.9830 P.3       1 NDP701      0.0000 
     46 O1X       -12.7830  -31.3080  -30.1330 O.co2     1 NDP701      0.0000 
     47 O2X       -13.5480  -33.5380  -30.9480 O.co2     1 NDP701      0.0000 
     48 O3X       -13.8320  -31.4940  -32.3780 O.co2     1 NDP701      0.0000 
     49 H         -15.6160  -28.0276  -28.5174 H         1 NDP701      0.0000 
     50 H         -16.6881  -27.7115  -27.1424 H         1 NDP701      0.0000 
     51 H         -16.6847  -30.0910  -26.6355 H         1 NDP701      0.0000 
     52 H         -14.3698  -30.2632  -27.9959 H         1 NDP701      0.0000 
     53 H         -15.3186  -29.8152  -30.0582 H         1 NDP701      0.0000 
     54 H         -17.4683  -31.6812  -29.2489 H         1 NDP701      0.0000 
     55 H         -16.9065  -28.5149  -31.4065 H         1 NDP701      0.0000 
     56 H         -21.5556  -30.6208  -34.7459 H         1 NDP701      0.0000 
     57 H         -20.2476  -29.4001  -34.5890 H         1 NDP701      0.0000 
     58 H         -21.0709  -33.4297  -31.2779 H         1 NDP701      0.0000 
     59 H         -17.9415  -26.9932  -23.3208 H         1 NDP701      0.0000 
     60 H         -17.7788  -26.5128  -25.0186 H         1 NDP701      0.0000 
     61 H         -19.8290  -25.6392  -24.1753 H         1 NDP701      0.0000 
     62 H         -17.9796  -23.9782  -25.2862 H         1 NDP701      0.0000 
     63 H         -17.1736  -23.0810  -23.3657 H         1 NDP701      0.0000 
     64 H         -19.9063  -23.0212  -22.2044 H         1 NDP701      0.0000 
     65 H         -16.3098  -23.6210  -21.7269 H         1 NDP701      0.0000 
     66 H         -13.0544  -24.1696  -20.5465 H         1 NDP701      0.0000 
     67 H         -14.5904  -24.2523  -21.4735 H         1 NDP701      0.0000 
     68 H         -16.4994  -22.0777  -17.9287 H         1 NDP701      0.0000 
     69 H         -16.7592  -23.8088  -17.6529 H         1 NDP701      0.0000 
     70 H         -18.9577  -22.6127  -17.7481 H         1 NDP701      0.0000 
     71 H         -19.9884  -22.7288  -19.9527 H         1 NDP701      0.0000 
     72 H         -14.6838  -32.5290  -28.0101 H         1 NDP701      0.0000 
     73 H         -20.6244  -24.1372  -24.9249 H         1 NDP701      0.0000 
     74 H         -19.3123  -21.6212  -24.3525 H         1 NDP701      0.0000 
@<TRIPOS>BOND
     1    2    1 ar   
     2    3    1 ar   
     3    4    1 1    
     4   23    1 1    
     5    5    4 1    
     6    6    5 1    
     7   49    5 1    
     8   50    5 1    
     9    7    6 1    
    10    8    6 1    
    11   51    6 1    
    12   12    7 1    
    13    9    8 1    
    14   10    8 1    
    15   52    8 1    
    16   72    9 1    
    17   11   10 1    
    18   12   10 1    
    19   53   10 1    
    20   45   11 1    
    21   13   12 1    
    22   54   12 1    
    23   14   13 1    
    24   22   13 1    
    25   15   14 2    
    26   55   14 1    
    27   16   15 1    
    28   17   16 ar   
    29   22   16 ar   
    30   18   17 1    
    31   19   17 ar   
    32   56   18 1    
    33   57   18 1    
    34   20   19 ar   
    35   21   20 ar   
    36   58   20 1    
    37   22   21 ar   
    38   24   23 1    
    39   25   24 ar   
    40   26   24 ar   
    41   27   24 1    
    42   28   27 1    
    43   29   28 1    
    44   59   28 1    
    45   60   28 1    
    46   30   29 1    
    47   31   29 1    
    48   61   29 1    
    49   35   30 1    
    50   32   31 1    
    51   33   31 1    
    52   62   31 1    
    53   73   32 1    
    54   34   33 1    
    55   35   33 1    
    56   63   33 1    
    57   74   34 1    
    58   36   35 1    
    59   64   35 1    
    60   37   36 1    
    61   44   36 1    
    62   38   37 2    
    63   65   37 1    
    64   39   38 1    
    65   42   38 1    
    66   40   39 2    
    67   41   39 am   
    68   66   41 1    
    69   67   41 1    
    70   43   42 1    
    71   68   42 1    
    72   69   42 1    
    73   44   43 2    
    74   70   43 1    
    75   71   44 1    
    76   46   45 ar   
    77   47   45 ar   
    78   48   45 ar   
@<TRIPOS>SUBSTRUCTURE
     1 NDP701      1 GROUP   
@<TRIPOS>SET

