#    Name: 2hnk_SAH_2_INTS_M
#    Modification time : Tue Mar 25 16:50:25 2014

@<TRIPOS>MOLECULE
2hnk_SAH_2_INTS_M
   70     0    12     0     0
SMALL
NO_CHARGES


@<TRIPOS>ATOM
      1 OD1        14.0225    5.8915   25.6865 O.co2     3 ASC3        0.0000 
      2 OD1        14.3520    7.7690   25.2260 O.co2    11 ASL3        0.0000 
      3 OD1        13.6930    4.0140   26.1470 O.co2     7 ASP3        0.0000 
      4 O          14.4165    7.0630   23.9755 O.2       1 ALC1        0.0000 
      5 O          14.3520    7.7690   25.2260 O.2       9 ALL1        0.0000 
      6 O          14.4810    6.3570   22.7250 O.2       5 ALP1        0.0000 
      7 O          14.2785    6.9435   26.3160 O.2       1 ALC1        0.0000 
      8 O          14.2050    6.1180   27.4060 O.2       5 ALP1        0.0000 
      9 O          13.3190    8.9345   24.8825 O.2       1 ALC1        0.0000 
     10 O          12.2860   10.1000   24.5390 O.2       5 ALP1        0.0000 
     11 CA         16.3675    7.3005   24.1635 C.3       4 GLC5        0.0000 
     12 CA         15.4730    8.7480   25.3450 C.3      12 GLL5        0.0000 
     13 CA         17.2620    5.8530   22.9820 C.3       8 GLP5        0.0000 
     14 CA         14.9145    8.1590   21.6665 C.3       4 GLC5        0.0000 
     15 CA         15.2140    9.7720   22.9840 C.3      12 GLL5        0.0000 
     16 CA         14.6150    6.5460   20.3490 C.3       8 GLP5        0.0000 
     17 CA         16.2380    7.8125   22.9830 C.3       4 GLC5        0.0000 
     18 CA         13.1320    9.2565   23.0120 C.3       4 GLC5        0.0000 
     19 CA         11.0500    8.7410   23.0400 C.3       8 GLP5        0.0000 
     20 N          15.4220    7.7305   28.7220 N.am      2 SEC2        0.0000 
     21 N          15.0110    8.7810   27.7040 N.am     10 SEL2        0.0000 
     22 N          15.8330    6.6800   29.7400 N.am      6 SEP2        0.0000 
     23 CA         13.6930    9.9095   19.3755 C.3       4 GLC5        0.0000 
     24 CA         15.3320   10.6640   20.5240 C.3      12 GLL5        0.0000 
     25 CA         12.0540    9.1550   18.2270 C.3       8 GLP5        0.0000 
     26 O          19.7960    8.4565   18.4260 O.2       1 ALC1        0.0000 
     27 O          19.4540    9.8270   18.4860 O.2       9 ALL1        0.0000 
     28 O          20.1380    7.0860   18.3660 O.2       5 ALP1        0.0000 
     29 O          19.0375    8.3785   19.2100 O.2       1 ALC1        0.0000 
     30 O          18.6210    6.9300   19.9340 O.2       5 ALP1        0.0000 
     31 CA         15.9195    7.8110   19.1550 C.3       4 GLC5        0.0000 
     32 CA         17.2240    9.0760   17.9610 C.3      12 GLL5        0.0000 
     33 CA         13.9600    9.8815   14.3565 C.3       4 GLC5        0.0000 
     34 CA         15.5350    8.4110   14.7820 C.3      12 GLL5        0.0000 
     35 CA         12.3850   11.3520   13.9310 C.3       8 GLP5        0.0000 
     36 O          13.2980    8.4145   13.3185 O.2       1 ALC1        0.0000 
     37 O          14.4560    7.8380   12.7550 O.2       9 ALL1        0.0000 
     38 O          12.1400    8.9910   13.8820 O.2       5 ALP1        0.0000 
     39 O          12.9800    7.1625   13.1245 O.2       1 ALC1        0.0000 
     40 O          11.5040    6.4870   13.4940 O.2       5 ALP1        0.0000 
     41 N          14.8640    4.7505   13.3700 N.am      2 SEC2        0.0000 
     42 N          15.0560    6.1200   14.2280 N.am     10 SEL2        0.0000 
     43 N          14.6720    3.3810   12.5120 N.am      6 SEP2        0.0000 
     44 CA         17.0635    5.1135   16.5200 C.3       4 GLC5        0.0000 
     45 CA         15.6310    5.7170   15.4230 C.3      12 GLL5        0.0000 
     46 CA         18.4960    4.5100   17.6170 C.3       8 GLP5        0.0000 
     47 CA         16.9665    6.4010   14.3350 C.3       4 GLC5        0.0000 
     48 CA         18.3020    7.0850   13.2470 C.3       8 GLP5        0.0000 
     49 CA         14.4650    4.4965   14.9815 C.3       4 GLC5        0.0000 
     50 CA         13.2990    3.2760   14.5400 C.3       8 GLP5        0.0000 
     51 CA         17.7720    8.3190   15.4170 C.3       4 GLC5        0.0000 
     52 CA         16.1100    7.9840   15.9770 C.3      12 GLL5        0.0000 
     53 CA         19.4340    8.6540   14.8570 C.3       8 GLP5        0.0000 
     54 CA         17.0295    9.7070   24.2020 C.3       4 GLC5        0.0000 
     55 CA         15.2090    9.9800   24.4910 C.3      12 GLL5        0.0000 
     56 CA         18.7180   10.0500   23.4860 C.3       8 GLP5        0.0000 
     57 CA         17.0468   10.3072   23.0350 C.3       4 GLC5        0.0000 
     58 CA         15.8517   12.6552   20.7050 C.3       4 GLC5        0.0000 
     59 CA         15.5370   11.3570   22.1840 C.3      12 GLL5        0.0000 
     60 CA         16.2690   14.3000   20.0560 C.3       8 GLP5        0.0000 
     61 CA         15.2895    8.4378   20.3060 C.3       4 GLC5        0.0000 
     62 CA         16.6732   12.3965   19.8738 C.3       4 GLC5        0.0000 
     63 CA         16.5960    9.9950   20.0020 C.3      12 GLL5        0.0000 
     64 CA         17.8978   10.2715   21.5888 C.3       4 GLC5        0.0000 
     65 CA         17.5590   10.9910   19.3810 C.3      12 GLL5        0.0000 
     66 CA         18.5598    9.1640   16.4655 C.3       4 GLC5        0.0000 
     67 CA         18.1470   10.2720   18.1870 C.3      12 GLL5        0.0000 
     68 CA         16.7858    7.5112   13.7950 C.3       4 GLC5        0.0000 
     69 CA         13.9117    8.0808   16.3293 C.3       4 GLC5        0.0000 
     70 CA         12.0010    7.9640   17.2790 C.3       8 GLP5        0.0000 
@<TRIPOS>BOND
@<TRIPOS>SUBSTRUCTURE
     1 ALC1        4 GROUP        1 X    ALC  0     ROOT ALC X 1
     2 SEC2       20 GROUP        1 X    SEC  0     **** SEC X 2
     3 ASC3        1 GROUP        1 X    ASC  0     **** ASC X 3
     4 GLC5       11 GROUP        1 X    GLC  0     **** GLC X 6
     5 ALP1        6 GROUP        1 Y    ALP  0     ROOT ALP Y 8
     6 SEP2       22 GROUP        1 Y    SEP  0     **** SEP Y 9
     7 ASP3        3 GROUP        1 Y    ASP  0     **** ASP Y 10
     8 GLP5       13 GROUP        1 Y    GLP  0     **** GLP Y 13
     9 ALL1        5 GROUP        1 Z    ALL  0     ROOT ALL Z 15
    10 SEL2       21 GROUP        1 Z    SEL  0     **** SEL Z 16
    11 ASL3        2 GROUP        1 Z    ASL  0     **** ASL Z 17
    12 GLL5       12 GROUP        1 Z    GLL  0     **** GLL Z 20
@<TRIPOS>SET

