#    Name: 2hnk_SAH_2_ligand
#    Modification time : Tue Mar 25 16:50:25 2014

@<TRIPOS>MOLECULE
2hnk_SAH_2_ligand
   46    48     1     0     0
SMALL
NO_CHARGES


@<TRIPOS>ATOM
      1 N          14.3520    7.7690   25.2260 N.4       1 SAH2002     0.0000 
      2 CA         15.4730    8.7480   25.3450 C.3       1 SAH2002     0.0000 
      3 CB         15.2090    9.9800   24.4910 C.3       1 SAH2002     0.0000 
      4 CG         15.2140    9.7720   22.9840 C.3       1 SAH2002     0.0000 
      5 SD         15.5370   11.3570   22.1840 S.3       1 SAH2002     0.0000 
      6 C          15.7160    9.1890   26.7880 C.2       1 SAH2002     0.0000 
      7 O          16.6210    9.9730   27.0750 O.co2     1 SAH2002     0.0000 
      8 OXT        15.0110    8.7810   27.7040 O.co2     1 SAH2002     0.0000 
      9 C5'        15.3320   10.6640   20.5240 C.3       1 SAH2002     0.0000 
     10 C4'        16.5960    9.9950   20.0020 C.3       1 SAH2002     0.0000 
     11 O4'        16.2580    9.0740   18.9920 O.3       1 SAH2002     0.0000 
     12 C3'        17.5590   10.9910   19.3810 C.3       1 SAH2002     0.0000 
     13 O3'        18.5570   11.3460   20.3090 O.3       1 SAH2002     0.0000 
     14 C2'        18.1470   10.2720   18.1870 C.3       1 SAH2002     0.0000 
     15 O2'        19.4540    9.8270   18.4860 O.3       1 SAH2002     0.0000 
     16 C1'        17.2240    9.0760   17.9610 C.3       1 SAH2002     0.0000 
     17 N9         16.5490    9.1010   16.6450 N.pl3     1 SAH2002     0.0000 
     18 C8         16.2430   10.1920   15.8670 C.2       1 SAH2002     0.0000 
     19 N7         15.6310    9.7590   14.7380 N.2       1 SAH2002     0.0000 
     20 C5         15.5350    8.4110   14.7820 C.ar      1 SAH2002     0.0000 
     21 C6         15.0040    7.4640   13.9040 C.ar      1 SAH2002     0.0000 
     22 N6         14.4560    7.8380   12.7550 N.pl3     1 SAH2002     0.0000 
     23 N1         15.0560    6.1200   14.2280 N.ar      1 SAH2002     0.0000 
     24 C2         15.6310    5.7170   15.4230 C.ar      1 SAH2002     0.0000 
     25 N3         16.1530    6.6600   16.2890 N.ar      1 SAH2002     0.0000 
     26 C4         16.1100    7.9840   15.9770 C.ar      1 SAH2002     0.0000 
     27 H          16.3946    8.2881   24.9790 H         1 SAH2002     0.0000 
     28 H          15.9646   10.7587   24.7461 H         1 SAH2002     0.0000 
     29 H          14.2267   10.4152   24.7877 H         1 SAH2002     0.0000 
     30 H          14.2725    9.5013   22.5873 H         1 SAH2002     0.0000 
     31 H          16.0129    9.1724   22.6385 H         1 SAH2002     0.0000 
     32 H          15.0330   11.5232   19.9522 H         1 SAH2002     0.0000 
     33 H          14.5105    9.9846   20.6591 H         1 SAH2002     0.0000 
     34 H          17.0959    9.5063   20.8210 H         1 SAH2002     0.0000 
     35 H          16.9904   11.8223   19.0279 H         1 SAH2002     0.0000 
     36 H          18.0899   10.9043   17.3429 H         1 SAH2002     0.0000 
     37 H          17.8403    8.1759   18.0304 H         1 SAH2002     0.0000 
     38 H          16.4356   11.1051   16.0954 H         1 SAH2002     0.0000 
     39 H          13.4819    8.0621   12.7844 H         1 SAH2002     0.0000 
     40 H          15.0666    7.8620   11.9635 H         1 SAH2002     0.0000 
     41 H          15.6686    4.7167   15.6641 H         1 SAH2002     0.0000 
     42 H          13.4789    8.2237   25.0498 H         1 SAH2002     0.0000 
     43 H          14.5016    7.1221   24.4782 H         1 SAH2002     0.0000 
     44 H          14.2389    7.2307   26.0611 H         1 SAH2002     0.0000 
     45 H          19.3421   10.7716   20.0770 H         1 SAH2002     0.0000 
     46 H          19.4347    8.8404   18.3242 H         1 SAH2002     0.0000 
@<TRIPOS>BOND
     1    2    1 1    
     2   42    1 1    
     3   43    1 1    
     4   44    1 1    
     5    3    2 1    
     6    6    2 1    
     7   27    2 1    
     8    4    3 1    
     9   28    3 1    
    10   29    3 1    
    11    5    4 1    
    12   30    4 1    
    13   31    4 1    
    14    9    5 1    
    15    7    6 ar   
    16    8    6 ar   
    17   10    9 1    
    18   32    9 1    
    19   33    9 1    
    20   11   10 1    
    21   12   10 1    
    22   34   10 1    
    23   16   11 1    
    24   13   12 1    
    25   14   12 1    
    26   35   12 1    
    27   45   13 1    
    28   15   14 1    
    29   16   14 1    
    30   36   14 1    
    31   46   15 1    
    32   17   16 1    
    33   37   16 1    
    34   18   17 1    
    35   26   17 1    
    36   19   18 2    
    37   38   18 1    
    38   20   19 1    
    39   21   20 ar   
    40   26   20 ar   
    41   22   21 1    
    42   23   21 ar   
    43   39   22 1    
    44   40   22 1    
    45   24   23 ar   
    46   25   24 ar   
    47   41   24 1    
    48   26   25 ar   
@<TRIPOS>SUBSTRUCTURE
     1 SAH2002     1 GROUP   
@<TRIPOS>SET

