#    Name: 2xk4_OL2_1_INTS_M
#    Modification time : Tue Mar 25 06:08:02 2014

@<TRIPOS>MOLECULE
2xk4_OL2_1_INTS_M
   70     0    12     0     0
SMALL
NO_CHARGES


@<TRIPOS>ATOM
      1 CA        -28.6730   20.2000  -14.1710 C.3       4 GLC5        0.0000 
      2 CA        -26.9990   19.1330  -13.1220 C.3      12 GLL5        0.0000 
      3 CA        -30.3470   21.2670  -15.2200 C.3       8 GLP5        0.0000 
      4 CA        -25.5255   21.9180  -13.2655 C.3       4 GLC5        0.0000 
      5 CA        -24.6760   21.3130  -15.1400 C.3      12 GLL5        0.0000 
      6 CA        -26.3750   22.5230  -11.3910 C.3       8 GLP5        0.0000 
      7 CA        -27.3975   21.8100  -16.4335 C.3       4 GLC5        0.0000 
      8 CA        -25.3670   21.5220  -16.3410 C.3      12 GLL5        0.0000 
      9 CA        -29.4280   22.0980  -16.5260 C.3       8 GLP5        0.0000 
     10 CA        -24.6900   16.3740  -19.8370 C.3       4 GLC5        0.0000 
     11 CA        -26.7810   16.6440  -19.1090 C.3      12 GLL5        0.0000 
     12 CA        -22.5990   16.1040  -20.5650 C.3       8 GLP5        0.0000 
     13 CA        -26.1820   17.3200  -23.6605 C.3       4 GLC5        0.0000 
     14 CA        -27.6560   15.9420  -23.3580 C.3      12 GLL5        0.0000 
     15 CA        -24.7080   18.6980  -23.9630 C.3       8 GLP5        0.0000 
     16 CA        -26.4625   14.2400  -23.6555 C.3       4 GLC5        0.0000 
     17 CA        -25.2690   12.5380  -23.9530 C.3       8 GLP5        0.0000 
     18 CA        -26.5395   18.7480  -24.6100 C.3       4 GLC5        0.0000 
     19 CA        -28.3710   18.7980  -25.2570 C.3      12 GLL5        0.0000 
     20 CA        -28.6450   22.7615  -20.8170 C.3       4 GLC5        0.0000 
     21 CA        -26.4290   22.7150  -21.0860 C.3      12 GLL5        0.0000 
     22 CA        -30.8610   22.8080  -20.5480 C.3       8 GLP5        0.0000 
     23 CA        -27.5670   24.3555  -20.3720 C.3       4 GLC5        0.0000 
     24 CA        -28.7050   25.9960  -19.6580 C.3       8 GLP5        0.0000 
     25 CA        -24.7090   23.1205  -21.8930 C.3       4 GLC5        0.0000 
     26 CA        -22.9890   23.5260  -22.7000 C.3       8 GLP5        0.0000 
     27 N         -25.3085   24.4715  -21.6185 N.am      2 SEC2        0.0000 
     28 N         -25.8530   23.7490  -20.4640 N.am     10 SEL2        0.0000 
     29 N         -24.7640   25.1940  -22.7730 N.am      6 SEP2        0.0000 
     30 CA        -24.1405   23.5605  -20.9775 C.3       4 GLC5        0.0000 
     31 CA        -25.2920   23.5950  -19.2550 C.3      12 GLL5        0.0000 
     32 O         -24.6585   25.9785  -19.0390 O.2       1 ALC1        0.0000 
     33 O         -24.6630   24.7210  -18.5950 O.2       9 ALL1        0.0000 
     34 O         -24.6540   27.2360  -19.4830 O.2       5 ALP1        0.0000 
     35 NZ        -23.6930   22.5580  -11.4305 N.4       3 LYC4        0.0000 
     36 NZ        -23.0810   21.7940  -12.6750 N.4      11 LYL4        0.0000 
     37 NZ        -24.3050   23.3220  -10.1860 N.4       7 LYP4        0.0000 
     38 N         -23.6930   22.5580  -11.4305 N.am      2 SEC2        0.0000 
     39 N         -23.0810   21.7940  -12.6750 N.am     10 SEL2        0.0000 
     40 N         -24.3050   23.3220  -10.1860 N.am      6 SEP2        0.0000 
     41 N         -19.9685   21.4425  -13.3120 N.am      2 SEC2        0.0000 
     42 N         -21.2030   21.2720  -13.7920 N.am     10 SEL2        0.0000 
     43 N         -18.7340   21.6130  -12.8320 N.am      6 SEP2        0.0000 
     44 CA        -26.4333   20.9187  -12.5272 C.3       4 GLC5        0.0000 
     45 CA        -25.9840   19.4960  -14.2050 C.3      12 GLL5        0.0000 
     46 CA        -25.0467   18.2553  -13.3442 C.3       4 GLC5        0.0000 
     47 CA        -23.6020   17.1960  -13.0250 C.3       8 GLP5        0.0000 
     48 CA        -24.6998   23.4682  -15.3153 C.3       4 GLC5        0.0000 
     49 CA        -24.3780   25.5190  -14.8900 C.3       8 GLP5        0.0000 
     50 CA        -24.2137   23.9395  -16.1163 C.3       4 GLC5        0.0000 
     51 CA        -24.7160   22.1550  -17.4050 C.3      12 GLL5        0.0000 
     52 CA        -26.4838   24.4900  -18.1792 C.3       4 GLC5        0.0000 
     53 CA        -25.3530   22.3530  -18.6160 C.3      12 GLL5        0.0000 
     54 CA        -27.6450   26.0060  -17.4230 C.3       8 GLP5        0.0000 
     55 CA        -28.9142   19.6788  -20.5865 C.3       4 GLC5        0.0000 
     56 CA        -27.0020   20.3530  -21.0710 C.3      12 GLL5        0.0000 
     57 CA        -30.8910   19.6260  -20.4160 C.3       8 GLP5        0.0000 
     58 CA        -25.8227   19.2148  -22.3600 C.3       4 GLC5        0.0000 
     59 CA        -29.3180   18.8200  -21.0370 C.3       4 GLC5        0.0000 
     60 CA        -27.4120   17.9640  -21.0430 C.3      12 GLL5        0.0000 
     61 CA        -26.2265   18.3560  -22.8105 C.3       4 GLC5        0.0000 
     62 CA        -28.0780   18.0640  -22.2730 C.3      12 GLL5        0.0000 
     63 CA        -29.4112   19.7565  -21.5110 C.3       4 GLC5        0.0000 
     64 CA        -28.2010   19.3160  -22.9100 C.3      12 GLL5        0.0000 
     65 CA        -26.3197   19.2925  -23.2845 C.3       4 GLC5        0.0000 
     66 CA        -21.2718   23.2443  -17.2785 C.3       4 GLC5        0.0000 
     67 CA        -23.3830   22.5650  -17.2800 C.3      12 GLL5        0.0000 
     68 CA        -19.5040   24.0230  -17.8770 C.3       8 GLP5        0.0000 
     69 CA        -23.6992   23.7862  -15.2182 C.3       4 GLC5        0.0000 
     70 CA        -22.6960   22.3660  -16.0800 C.3      12 GLL5        0.0000 
@<TRIPOS>BOND
@<TRIPOS>SUBSTRUCTURE
     1 ALC1       32 GROUP        1 X    ALC  0     ROOT ALC X 1
     2 SEC2       27 GROUP        1 X    SEC  0     **** SEC X 2
     3 LYC4       35 GROUP        1 X    LYC  0     **** LYC X 4
     4 GLC5        1 GROUP        1 X    GLC  0     **** GLC X 6
     5 ALP1       34 GROUP        1 Y    ALP  0     ROOT ALP Y 8
     6 SEP2       29 GROUP        1 Y    SEP  0     **** SEP Y 9
     7 LYP4       37 GROUP        1 Y    LYP  0     **** LYP Y 11
     8 GLP5        3 GROUP        1 Y    GLP  0     **** GLP Y 13
     9 ALL1       33 GROUP        1 Z    ALL  0     ROOT ALL Z 15
    10 SEL2       28 GROUP        1 Z    SEL  0     **** SEL Z 16
    11 LYL4       36 GROUP        1 Z    LYL  0     **** LYL Z 18
    12 GLL5        2 GROUP        1 Z    GLL  0     **** GLL Z 20
@<TRIPOS>SET

