#    Name: 2xk4_OL2_1_ligand
#    Modification time : Tue Mar 25 06:08:02 2014

@<TRIPOS>MOLECULE
2xk4_OL2_1_ligand
   53    55     1     0     0
SMALL
NO_CHARGES


@<TRIPOS>ATOM
      1 C01       -26.9990   19.1330  -13.1220 C.3       1 OL21280     0.0000 
      2 C02       -25.9840   19.4960  -14.2050 C.3       1 OL21280     0.0000 
      3 O03       -25.3220   20.7150  -14.0540 O.3       1 OL21280     0.0000 
      4 C04       -24.6760   21.3130  -15.1400 C.ar      1 OL21280     0.0000 
      5 C05       -25.3670   21.5220  -16.3410 C.ar      1 OL21280     0.0000 
      6 C06       -24.7160   22.1550  -17.4050 C.ar      1 OL21280     0.0000 
      7 C07       -25.3530   22.3530  -18.6160 C.ar      1 OL21280     0.0000 
      8 N08       -25.8770   21.3080  -19.2600 N.ar      1 OL21280     0.0000 
      9 C09       -26.4430   21.4640  -20.4620 C.ar      1 OL21280     0.0000 
     10 C10       -27.0020   20.3530  -21.0710 C.ar      1 OL21280     0.0000 
     11 C11       -26.8730   19.1100  -20.4430 C.ar      1 OL21280     0.0000 
     12 C12       -27.4120   17.9640  -21.0430 C.ar      1 OL21280     0.0000 
     13 O13       -27.3030   16.7180  -20.4070 O.3       1 OL21280     0.0000 
     14 C14       -26.7810   16.6440  -19.1090 C.3       1 OL21280     0.0000 
     15 C15       -28.0780   18.0640  -22.2730 C.ar      1 OL21280     0.0000 
     16 O16       -28.5700   16.8860  -22.8500 O.3       1 OL21280     0.0000 
     17 C17       -27.6560   15.9420  -23.3580 C.3       1 OL21280     0.0000 
     18 C18       -28.2010   19.3160  -22.9100 C.ar      1 OL21280     0.0000 
     19 O19       -28.8730   19.4530  -24.1310 O.3       1 OL21280     0.0000 
     20 C20       -28.3710   18.7980  -25.2570 C.3       1 OL21280     0.0000 
     21 C21       -27.6620   20.4580  -22.3020 C.ar      1 OL21280     0.0000 
     22 C22       -26.4290   22.7150  -21.0860 C.ar      1 OL21280     0.0000 
     23 N23       -25.8530   23.7490  -20.4640 N.ar      1 OL21280     0.0000 
     24 C24       -25.2920   23.5950  -19.2550 C.ar      1 OL21280     0.0000 
     25 N25       -24.6630   24.7210  -18.5950 N.pl3     1 OL21280     0.0000 
     26 C26       -23.3830   22.5650  -17.2800 C.ar      1 OL21280     0.0000 
     27 C27       -22.6960   22.3660  -16.0800 C.ar      1 OL21280     0.0000 
     28 C28       -23.3450   21.7410  -15.0130 C.ar      1 OL21280     0.0000 
     29 C29       -22.5770   21.5290  -13.7150 C.2       1 OL21280     0.0000 
     30 O30       -23.0810   21.7940  -12.6750 O.co2     1 OL21280     0.0000 
     31 O31       -21.2030   21.2720  -13.7920 O.co2     1 OL21280     0.0000 
     32 H         -26.5346   19.4412  -15.1894 H         1 OL21280     0.0000 
     33 H         -25.2578   18.6332  -14.2637 H         1 OL21280     0.0000 
     34 H         -26.3354   21.2151  -16.4373 H         1 OL21280     0.0000 
     35 H         -26.3850   19.0360  -19.5450 H         1 OL21280     0.0000 
     36 H         -27.7511   21.3714  -22.7593 H         1 OL21280     0.0000 
     37 H         -26.8654   22.8105  -22.0154 H         1 OL21280     0.0000 
     38 H         -23.9067   24.5031  -17.9781 H         1 OL21280     0.0000 
     39 H         -25.0372   25.6229  -18.8110 H         1 OL21280     0.0000 
     40 H         -22.9101   23.0133  -18.0739 H         1 OL21280     0.0000 
     41 H         -21.7264   22.6753  -15.9839 H         1 OL21280     0.0000 
     42 H         -26.5731   19.0719  -12.2193 H         1 OL21280     0.0000 
     43 H         -27.7302   19.8119  -13.0558 H         1 OL21280     0.0000 
     44 H         -27.4338   18.2505  -13.3013 H         1 OL21280     0.0000 
     45 H         -25.8454   16.9943  -19.0644 H         1 OL21280     0.0000 
     46 H         -27.3244   17.1757  -18.4593 H         1 OL21280     0.0000 
     47 H         -26.7581   15.7031  -18.7710 H         1 OL21280     0.0000 
     48 H         -27.0888   16.3284  -24.0853 H         1 OL21280     0.0000 
     49 H         -27.0354   15.6070  -22.6490 H         1 OL21280     0.0000 
     50 H         -28.1209   15.1440  -23.7415 H         1 OL21280     0.0000 
     51 H         -27.4432   19.0982  -25.4784 H         1 OL21280     0.0000 
     52 H         -28.3350   17.8074  -25.1251 H         1 OL21280     0.0000 
     53 H         -28.9342   18.9657  -26.0661 H         1 OL21280     0.0000 
@<TRIPOS>BOND
     1    2    1 1    
     2   42    1 1    
     3   43    1 1    
     4   44    1 1    
     5    3    2 1    
     6   32    2 1    
     7   33    2 1    
     8    4    3 1    
     9    5    4 ar   
    10   28    4 ar   
    11    6    5 ar   
    12   34    5 1    
    13    7    6 1    
    14   26    6 ar   
    15    8    7 ar   
    16   24    7 ar   
    17    9    8 ar   
    18   10    9 1    
    19   22    9 ar   
    20   11   10 ar   
    21   21   10 ar   
    22   12   11 ar   
    23   35   11 1    
    24   13   12 1    
    25   15   12 ar   
    26   14   13 1    
    27   45   14 1    
    28   46   14 1    
    29   47   14 1    
    30   16   15 1    
    31   18   15 ar   
    32   17   16 1    
    33   48   17 1    
    34   49   17 1    
    35   50   17 1    
    36   19   18 1    
    37   21   18 ar   
    38   20   19 1    
    39   51   20 1    
    40   52   20 1    
    41   53   20 1    
    42   36   21 1    
    43   23   22 ar   
    44   37   22 1    
    45   24   23 ar   
    46   25   24 1    
    47   38   25 1    
    48   39   25 1    
    49   27   26 ar   
    50   40   26 1    
    51   28   27 ar   
    52   41   27 1    
    53   29   28 1    
    54   30   29 ar   
    55   31   29 ar   
@<TRIPOS>SUBSTRUCTURE
     1 OL21280     1 GROUP   
@<TRIPOS>SET

