#    Name: 4mq1_2C3_2_INTS_M
#    Modification time : Tue Mar 25 12:19:04 2014

@<TRIPOS>MOLECULE
4mq1_2C3_2_INTS_M
   84     0    12     0     0
SMALL
NO_CHARGES


@<TRIPOS>ATOM
      1 CA        -15.0265  -14.4465  -68.1115 C.3       4 GLC5        0.0000 
      2 CA        -16.4100  -15.8120  -67.2960 C.3      12 GLL5        0.0000 
      3 CA        -13.6430  -13.0810  -68.9270 C.3       8 GLP5        0.0000 
      4 CA        -15.7255  -16.2810  -65.6690 C.3       4 GLC5        0.0000 
      5 CA        -15.0410  -16.7500  -64.0420 C.3       8 GLP5        0.0000 
      6 CA        -18.4905  -12.1705  -69.9955 C.3       4 GLC5        0.0000 
      7 CA        -17.8690  -12.1010  -68.0110 C.3      12 GLL5        0.0000 
      8 CA        -19.1120  -12.2400  -71.9800 C.3       8 GLP5        0.0000 
      9 CA        -15.7560  -12.5910  -68.4690 C.3       4 GLC5        0.0000 
     10 CA        -16.8570   -6.9680  -68.5485 C.3       4 GLC5        0.0000 
     11 CA        -18.6150   -5.9810  -69.3980 C.3      12 GLL5        0.0000 
     12 CA        -15.0990   -7.9550  -67.6990 C.3       8 GLP5        0.0000 
     13 CA        -16.6845   -4.0015  -72.1710 C.3       4 GLC5        0.0000 
     14 CA        -18.3260   -4.0810  -70.8530 C.3      12 GLL5        0.0000 
     15 CA        -15.0430   -3.9220  -73.4890 C.3       8 GLP5        0.0000 
     16 N         -16.5550   -9.9945  -71.3350 N.am      2 SEC2        0.0000 
     17 N         -17.3150   -9.4600  -70.2420 N.am     10 SEL2        0.0000 
     18 N         -15.7950  -10.5290  -72.4280 N.am      6 SEP2        0.0000 
     19 O         -16.5445  -11.8725  -69.8220 O.2       1 ALC1        0.0000 
     20 O         -17.3850  -11.3630  -69.0630 O.2       9 ALL1        0.0000 
     21 O         -15.7040  -12.3820  -70.5810 O.2       5 ALP1        0.0000 
     22 CA        -20.3940  -10.1795  -67.3400 C.3       4 GLC5        0.0000 
     23 CA        -18.6400   -9.4450  -68.3320 C.3      12 GLL5        0.0000 
     24 CA        -22.1480  -10.9140  -66.3480 C.3       8 GLP5        0.0000 
     25 CA        -16.8695   -8.7000  -68.0155 C.3       4 GLC5        0.0000 
     26 CA        -17.3520   -4.0590  -67.6290 C.3       4 GLC5        0.0000 
     27 CA        -19.0280   -5.1330  -68.3700 C.3      12 GLL5        0.0000 
     28 CA        -15.6760   -2.9850  -66.8880 C.3       8 GLP5        0.0000 
     29 CA        -16.3630   -5.2180  -72.6320 C.3       4 GLC5        0.0000 
     30 CA        -17.6830   -6.5140  -71.7750 C.3      12 GLL5        0.0000 
     31 CA        -18.4635   -5.6665  -73.2245 C.3       4 GLC5        0.0000 
     32 CA        -19.2440   -4.8190  -74.6740 C.3       8 GLP5        0.0000 
     33 CA        -15.7010   -6.7025  -71.6425 C.3       4 GLC5        0.0000 
     34 CA        -13.7190   -6.8910  -71.5100 C.3       8 GLP5        0.0000 
     35 N         -20.4735   -0.5815  -68.3195 N.am      2 SEC2        0.0000 
     36 N         -19.7680   -1.6730  -67.8030 N.am     10 SEL2        0.0000 
     37 N         -21.1790    0.5100  -68.8360 N.am      6 SEP2        0.0000 
     38 OD1       -18.3265   -2.9110  -60.0965 O.co2     3 ASC3        0.0000 
     39 OD1       -18.8550   -2.1850  -61.7320 O.co2    11 ASL3        0.0000 
     40 OD1       -17.7980   -3.6370  -58.4610 O.co2     7 ASP3        0.0000 
     41 OD1       -19.0395   -0.6215  -62.9145 O.co2     3 ASC3        0.0000 
     42 OD1       -19.2240    0.9420  -64.0970 O.co2     7 ASP3        0.0000 
     43 O         -17.5000   -1.9200  -62.2110 O.2       1 ALC1        0.0000 
     44 O         -18.8550   -2.1850  -61.7320 O.2       9 ALL1        0.0000 
     45 O         -16.1450   -1.6550  -62.6900 O.2       5 ALP1        0.0000 
     46 CA        -25.2850    0.9700  -65.4910 C.3       4 GLC5        0.0000 
     47 CA        -24.8840   -0.8890  -65.7990 C.3      12 GLL5        0.0000 
     48 CA        -25.6860    2.8290  -65.1830 C.3       8 GLP5        0.0000 
     49 CA        -26.6830   -0.8410  -65.6110 C.3       4 GLC5        0.0000 
     50 CA        -28.4820   -0.7930  -65.4230 C.3       8 GLP5        0.0000 
     51 CA        -24.0760   -0.8790  -67.3680 C.3       4 GLC5        0.0000 
     52 CA        -23.2680   -0.8690  -68.9370 C.3       8 GLP5        0.0000 
     53 CA        -25.9720   -3.7985  -65.4565 C.3       4 GLC5        0.0000 
     54 CA        -24.2700   -3.1830  -64.7070 C.3      12 GLL5        0.0000 
     55 CA        -27.6740   -4.4140  -66.2060 C.3       8 GLP5        0.0000 
     56 CA        -23.8880   -6.1315  -64.1010 C.3       4 GLC5        0.0000 
     57 CA        -23.3310   -4.1200  -64.2830 C.3      12 GLL5        0.0000 
     58 CA        -24.4450   -8.1430  -63.9190 C.3       8 GLP5        0.0000 
     59 CA        -17.2270   -3.0482  -68.7715 C.3       4 GLC5        0.0000 
     60 CA        -18.7730   -3.2370  -69.8360 C.3      12 GLL5        0.0000 
     61 CA        -15.5050   -2.6020  -68.3360 C.3       8 GLP5        0.0000 
     62 CA        -18.7657   -4.7903  -72.7025 C.3       4 GLC5        0.0000 
     63 CA        -16.6905   -4.3556  -69.7661 C.3       4 GLC5        0.0000 
     64 CA        -15.0020   -3.8150  -69.1040 C.3       8 GLP5        0.0000 
     65 CA        -19.4720   -7.0870  -71.9050 C.3       4 GLC5        0.0000 
     66 CA        -18.2490   -5.4420  -70.6090 C.3      12 GLL5        0.0000 
     67 CA        -20.9780   -8.1960  -72.6180 C.3       8 GLP5        0.0000 
     68 CA        -18.6120   -1.0802  -65.2152 C.3       4 GLC5        0.0000 
     69 CA        -20.1350   -2.5340  -65.2430 C.3      12 GLL5        0.0000 
     70 CA        -17.5530    0.5220  -65.7840 C.3       8 GLP5        0.0000 
     71 CA        -20.5969  -11.2240  -66.4781 C.3       4 GLC5        0.0000 
     72 CA        -19.1010  -10.1820  -67.2310 C.3      12 GLL5        0.0000 
     73 CA        -21.2263   -4.7408  -68.1740 C.3       4 GLC5        0.0000 
     74 CA        -23.3760   -5.0390  -67.8740 C.3       8 GLP5        0.0000 
     75 CA        -22.6698   -3.6680  -66.5625 C.3       4 GLC5        0.0000 
     76 CA        -21.5070   -2.7680  -65.0530 C.3      12 GLL5        0.0000 
     77 CA        -23.1878   -1.4018  -67.1540 C.3       4 GLC5        0.0000 
     78 CA        -22.4200   -1.8260  -65.4490 C.3      12 GLL5        0.0000 
     79 CA        -23.7043   -3.8260  -66.4370 C.3       4 GLC5        0.0000 
     80 CA        -25.1388   -4.5697  -63.2980 C.3       4 GLC5        0.0000 
     81 CA        -26.4770   -5.4880  -62.1010 C.3       8 GLP5        0.0000 
     82 CA        -24.4174   -2.6837  -62.9892 C.3       4 GLC5        0.0000 
     83 CA        -25.1530   -2.0010  -61.3370 C.3       8 GLP5        0.0000 
     84 CA        -23.0123   -4.5325  -66.1252 C.3       4 GLC5        0.0000 
@<TRIPOS>BOND
@<TRIPOS>SUBSTRUCTURE
     1 ALC1       19 GROUP        1 X    ALC  0     ROOT ALC X 1
     2 SEC2       16 GROUP        1 X    SEC  0     **** SEC X 2
     3 ASC3       38 GROUP        1 X    ASC  0     **** ASC X 3
     4 GLC5        1 GROUP        1 X    GLC  0     **** GLC X 6
     5 ALP1       21 GROUP        1 Y    ALP  0     ROOT ALP Y 8
     6 SEP2       18 GROUP        1 Y    SEP  0     **** SEP Y 9
     7 ASP3       40 GROUP        1 Y    ASP  0     **** ASP Y 10
     8 GLP5        3 GROUP        1 Y    GLP  0     **** GLP Y 13
     9 ALL1       20 GROUP        1 Z    ALL  0     ROOT ALL Z 15
    10 SEL2       17 GROUP        1 Z    SEL  0     **** SEL Z 16
    11 ASL3       39 GROUP        1 Z    ASL  0     **** ASL Z 17
    12 GLL5        2 GROUP        1 Z    GLL  0     **** GLL Z 20
@<TRIPOS>SET

