#    Name: 4mq1_2C3_2_ligand
#    Modification time : Tue Mar 25 12:19:04 2014

@<TRIPOS>MOLECULE
4mq1_2C3_2_ligand
   60    63     1     0     0
SMALL
NO_CHARGES


@<TRIPOS>ATOM
      1 N3        -18.7630  -13.5480  -65.9310 N.ar      1 2C3501      0.0000 
      2 C4        -17.9270  -14.0870  -66.8230 C.ar      1 2C3501      0.0000 
      3 C6        -16.4100  -15.8120  -67.2960 C.3       1 2C3501      0.0000 
      4 C8        -17.8690  -12.1010  -68.0110 C.ar      1 2C3501      0.0000 
      5 C10       -17.7610  -10.0520  -69.2440 C.2       1 2C3501      0.0000 
      6 C13       -19.1010  -10.1820  -67.2310 C.2       1 2C3501      0.0000 
      7 C17       -18.6150   -5.9810  -69.3980 C.ar      1 2C3501      0.0000 
      8 C20       -18.7730   -3.2370  -69.8360 C.ar      1 2C3501      0.0000 
      9 C21       -18.3260   -4.0810  -70.8530 C.ar      1 2C3501      0.0000 
     10 C22       -18.2490   -5.4420  -70.6090 C.ar      1 2C3501      0.0000 
     11 C24       -19.5570   -2.8720  -67.5760 C.2       1 2C3501      0.0000 
     12 C28       -19.2070   -2.8310  -64.0500 C.3       1 2C3501      0.0000 
     13 O11       -17.3150   -9.4600  -70.2420 O.2       1 2C3501      0.0000 
     14 N9        -17.3850  -11.3630  -69.0630 N.am      1 2C3501      0.0000 
     15 N7        -17.4730  -13.3840  -67.8830 N.ar      1 2C3501      0.0000 
     16 O5        -17.6180  -15.3860  -66.6140 O.3       1 2C3501      0.0000 
     17 C2        -19.1780  -12.2280  -66.0470 C.ar      1 2C3501      0.0000 
     18 C1        -18.7260  -11.4980  -67.1080 C.ar      1 2C3501      0.0000 
     19 C12       -18.6400   -9.4450  -68.3320 C.2       1 2C3501      0.0000 
     20 C14       -19.0160   -8.1040  -68.3960 C.2       1 2C3501      0.0000 
     21 O15       -19.7330   -7.6850  -67.5140 O.2       1 2C3501      0.0000 
     22 N16       -18.4320   -7.3350  -69.3310 N.am      1 2C3501      0.0000 
     23 C18       -19.0280   -5.1330  -68.3700 C.ar      1 2C3501      0.0000 
     24 CL2       -17.6830   -6.5140  -71.7750 Cl        1 2C3501      0.0000 
     25 C19       -19.1250   -3.7520  -68.5780 C.ar      1 2C3501      0.0000 
     26 O25       -19.7680   -1.6730  -67.8030 O.2       1 2C3501      0.0000 
     27 N26       -19.6870   -3.3670  -66.3470 N.am      1 2C3501      0.0000 
     28 C27       -20.1350   -2.5340  -65.2430 C.3       1 2C3501      0.0000 
     29 C29       -19.9050   -2.4730  -62.7420 C.3       1 2C3501      0.0000 
     30 N30       -18.8550   -2.1850  -61.7320 N.4       1 2C3501      0.0000 
     31 C31       -21.5070   -2.7680  -65.0530 C.ar      1 2C3501      0.0000 
     32 C32       -22.4200   -1.8260  -65.4490 C.ar      1 2C3501      0.0000 
     33 C33       -23.7950   -2.0430  -65.2930 C.ar      1 2C3501      0.0000 
     34 CL3       -24.8840   -0.8890  -65.7990 Cl        1 2C3501      0.0000 
     35 C35       -24.2700   -3.1830  -64.7070 C.ar      1 2C3501      0.0000 
     36 C36       -23.3310   -4.1200  -64.2830 C.ar      1 2C3501      0.0000 
     37 C37       -21.9660   -3.9320  -64.4700 C.ar      1 2C3501      0.0000 
     38 H         -19.7054   -9.7352  -66.5390 H         1 2C3501      0.0000 
     39 H         -18.8471   -2.2232  -70.0061 H         1 2C3501      0.0000 
     40 H         -18.0609   -3.6967  -71.7611 H         1 2C3501      0.0000 
     41 H         -18.3017   -2.2427  -64.1521 H         1 2C3501      0.0000 
     42 H         -18.9566   -3.8862  -64.0517 H         1 2C3501      0.0000 
     43 H         -16.7223  -11.8019  -69.7356 H         1 2C3501      0.0000 
     44 H         -19.8058  -11.8237  -65.3502 H         1 2C3501      0.0000 
     45 H         -17.8010   -7.7875  -70.0516 H         1 2C3501      0.0000 
     46 H         -19.2648   -5.5255  -67.4466 H         1 2C3501      0.0000 
     47 H         -19.4783   -4.3573  -66.1187 H         1 2C3501      0.0000 
     48 H         -19.9471   -1.4868  -65.5337 H         1 2C3501      0.0000 
     49 H         -20.5136   -3.3100  -62.4287 H         1 2C3501      0.0000 
     50 H         -20.5260   -1.6026  -62.9027 H         1 2C3501      0.0000 
     51 H         -22.1014   -0.9343  -65.8722 H         1 2C3501      0.0000 
     52 H         -25.2607   -3.3507  -64.5809 H         1 2C3501      0.0000 
     53 H         -23.6623   -4.9881  -63.8113 H         1 2C3501      0.0000 
     54 H         -21.3038   -4.6611  -64.1731 H         1 2C3501      0.0000 
     55 H         -15.6126  -15.2841  -67.0036 H         1 2C3501      0.0000 
     56 H         -16.2045  -16.7748  -67.1208 H         1 2C3501      0.0000 
     57 H         -16.4855  -15.7041  -68.2873 H         1 2C3501      0.0000 
     58 H         -17.9358   -2.2873  -62.1124 H         1 2C3501      0.0000 
     59 H         -18.9244   -1.2516  -61.3800 H         1 2C3501      0.0000 
     60 H         -18.9171   -2.8001  -60.9460 H         1 2C3501      0.0000 
@<TRIPOS>BOND
     1    2    1 ar   
     2   17    1 ar   
     3   15    2 ar   
     4   16    2 1    
     5   16    3 1    
     6   55    3 1    
     7   56    3 1    
     8   57    3 1    
     9   14    4 1    
    10   15    4 ar   
    11   18    4 ar   
    12   13    5 2    
    13   14    5 am   
    14   19    5 1    
    15   18    6 1    
    16   19    6 2    
    17   38    6 1    
    18   10    7 ar   
    19   22    7 1    
    20   23    7 ar   
    21    9    8 ar   
    22   25    8 ar   
    23   39    8 1    
    24   10    9 ar   
    25   40    9 1    
    26   24   10 1    
    27   25   11 1    
    28   26   11 2    
    29   27   11 am   
    30   28   12 1    
    31   29   12 1    
    32   41   12 1    
    33   42   12 1    
    34   43   14 1    
    35   18   17 ar   
    36   44   17 1    
    37   20   19 1    
    38   21   20 2    
    39   22   20 am   
    40   45   22 1    
    41   25   23 ar   
    42   46   23 1    
    43   28   27 1    
    44   47   27 1    
    45   31   28 1    
    46   48   28 1    
    47   30   29 1    
    48   49   29 1    
    49   50   29 1    
    50   58   30 1    
    51   59   30 1    
    52   60   30 1    
    53   32   31 ar   
    54   37   31 ar   
    55   33   32 ar   
    56   51   32 1    
    57   34   33 1    
    58   35   33 ar   
    59   36   35 ar   
    60   52   35 1    
    61   37   36 ar   
    62   53   36 1    
    63   54   37 1    
@<TRIPOS>SUBSTRUCTURE
     1 2C3501      1 GROUP   
@<TRIPOS>SET

