#    Name: 1w07_FAD_2_INTS_M
#    Modification time : Tue Mar 25 08:21:30 2014

@<TRIPOS>MOLECULE
1w07_FAD_2_INTS_M
  123     0    12     0     0
SMALL
NO_CHARGES


@<TRIPOS>ATOM
      1 N          29.0215   60.7545    3.4340 N.am      2 SEC2        0.0000 
      2 N          28.0250   60.4960    2.7250 N.am     10 SEL2        0.0000 
      3 N          30.0180   61.0130    4.1430 N.am      6 SEP2        0.0000 
      4 NZ         25.1970   62.0795    0.4825 N.4       3 LYC4        0.0000 
      5 NZ         25.9920   61.1760    1.3700 N.4      11 LYL4        0.0000 
      6 NZ         24.8030   64.2290   -0.1690 N.4       7 LYP4        0.0000 
      7 N          25.1970   62.0795    0.4825 N.am      2 SEC2        0.0000 
      8 N          25.9920   61.1760    1.3700 N.am     10 SEL2        0.0000 
      9 N          24.4020   62.9830   -0.4050 N.am      6 SEP2        0.0000 
     10 N          25.9220   62.8190    0.9950 N.am      2 SEC2        0.0000 
     11 N          25.8520   64.4620    0.6200 N.am      6 SEP2        0.0000 
     12 CA         23.7980   60.0115    4.3820 C.3       4 GLC5        0.0000 
     13 CA         24.4810   59.0060    2.8310 C.3      12 GLL5        0.0000 
     14 CA         23.1150   61.0170    5.9330 C.3       8 GLP5        0.0000 
     15 CA         24.4830   57.4860    0.6930 C.3       4 GLC5        0.0000 
     16 CA         24.1650   57.5070    2.8250 C.3      12 GLL5        0.0000 
     17 CA         24.8010   57.4650   -1.4390 C.3       8 GLP5        0.0000 
     18 CA         22.6360   56.4760    4.8955 C.3       4 GLC5        0.0000 
     19 CA         24.6640   56.8320    4.1060 C.3      12 GLL5        0.0000 
     20 CA         20.6080   56.1200    5.6850 C.3       8 GLP5        0.0000 
     21 N          22.7045   55.3515    3.1285 N.am      2 SEC2        0.0000 
     22 N          23.8960   55.6530    4.3590 N.am     10 SEL2        0.0000 
     23 N          21.5130   55.0500    1.8980 N.am      6 SEP2        0.0000 
     24 N          24.2220   54.4460    5.2260 N.am      2 SEC2        0.0000 
     25 N          24.5480   53.2390    6.0930 N.am      6 SEP2        0.0000 
     26 O          23.6240   54.7820    3.4295 O.2       1 ALC1        0.0000 
     27 O          23.8960   55.6530    4.3590 O.2       9 ALL1        0.0000 
     28 O          23.3520   53.9110    2.5000 O.2       5 ALP1        0.0000 
     29 CA         27.5255   57.5435    5.0160 C.3       4 GLC5        0.0000 
     30 CA         26.1010   56.4690    3.7370 C.3      12 GLL5        0.0000 
     31 CA         28.9500   58.6180    6.2950 C.3       8 GLP5        0.0000 
     32 N          25.5355   54.2775    5.2810 N.am      2 SEC2        0.0000 
     33 N          26.5230   55.3160    4.4690 N.am     10 SEL2        0.0000 
     34 O          27.4220   55.8240    5.3575 O.2       1 ALC1        0.0000 
     35 O          26.5230   55.3160    4.4690 O.2       9 ALL1        0.0000 
     36 O          28.3210   56.3320    6.2460 O.2       5 ALP1        0.0000 
     37 O          26.6355   56.5580    5.5885 O.2       1 ALC1        0.0000 
     38 O          26.7480   57.8000    6.7080 O.2       5 ALP1        0.0000 
     39 CA         25.3580   56.7605    0.4175 C.3       4 GLC5        0.0000 
     40 CA         25.9150   56.0560    2.2740 C.3      12 GLL5        0.0000 
     41 CA         31.0355   53.3500    1.1975 C.3       4 GLC5        0.0000 
     42 CA         30.0460   54.8910   -0.0080 C.3      12 GLL5        0.0000 
     43 CA         32.0250   51.8090    2.4030 C.3       8 GLP5        0.0000 
     44 CA         27.6850   52.2620   -0.3645 C.3       4 GLC5        0.0000 
     45 CA         28.7900   53.0170    0.8730 C.3      12 GLL5        0.0000 
     46 CA         26.5800   51.5070   -1.6020 C.3       8 GLP5        0.0000 
     47 CA         30.4075   52.4130    1.6380 C.3       4 GLC5        0.0000 
     48 CA         29.3535   51.1175    0.1145 C.3       4 GLC5        0.0000 
     49 CA         29.9170   49.2180   -0.6440 C.3       8 GLP5        0.0000 
     50 N          30.0730   69.6530    6.4105 N.am      2 SEC2        0.0000 
     51 N          30.0320   70.2830    7.6820 N.am     10 SEL2        0.0000 
     52 N          30.1140   69.0230    5.1390 N.am      6 SEP2        0.0000 
     53 N          32.1905   72.6105    5.7450 N.am      2 SEC2        0.0000 
     54 N          31.6470   71.5420    6.6820 N.am     10 SEL2        0.0000 
     55 N          32.7340   73.6790    4.8080 N.am      6 SEP2        0.0000 
     56 N          31.4265   71.4430    5.2890 N.am      2 SEC2        0.0000 
     57 N          31.2060   71.3440    3.8960 N.am      6 SEP2        0.0000 
     58 N          30.8805   70.2825    5.9105 N.am      2 SEC2        0.0000 
     59 O          31.6485   73.3945    8.4200 O.2       1 ALC1        0.0000 
     60 O          31.0060   72.2070    8.7770 O.2       9 ALL1        0.0000 
     61 O          32.2910   74.5820    8.0630 O.2       5 ALP1        0.0000 
     62 N          29.1905   73.8005   11.0835 N.am      2 SEC2        0.0000 
     63 N          30.2720   72.7300   10.8680 N.am     10 SEL2        0.0000 
     64 N          28.1090   74.8710   11.2990 N.am      6 SEP2        0.0000 
     65 CA         22.7140   68.1490   13.6220 C.3       4 GLC5        0.0000 
     66 CA         24.4620   68.6030   13.0230 C.3      12 GLL5        0.0000 
     67 CA         20.9660   67.6950   14.2210 C.3       8 GLP5        0.0000 
     68 CA         23.3485   69.3235   11.6340 C.3       4 GLC5        0.0000 
     69 CA         22.2350   70.0440   10.2450 C.3       8 GLP5        0.0000 
     70 CA         24.9720   69.5860   14.6975 C.3       4 GLC5        0.0000 
     71 CA         25.4820   70.5690   16.3720 C.3       8 GLP5        0.0000 
     72 CA         23.8315   65.6330    8.9850 C.3       4 GLC5        0.0000 
     73 CA         24.3640   66.6980   10.7280 C.3      12 GLL5        0.0000 
     74 CA         23.2990   64.5680    7.2420 C.3       8 GLP5        0.0000 
     75 CA         22.5930   67.0125   11.8100 C.3       4 GLC5        0.0000 
     76 CA         20.8220   67.3270   12.8920 C.3       8 GLP5        0.0000 
     77 CA         23.2995   68.3710   10.4865 C.3       4 GLC5        0.0000 
     78 CA         24.7020   66.0760   12.7705 C.3       4 GLC5        0.0000 
     79 CA         25.0400   65.4540   14.8130 C.3       8 GLP5        0.0000 
     80 CA         28.8075   68.9975    6.0795 C.3       4 GLC5        0.0000 
     81 CA         28.3540   68.0320    7.6800 C.3      12 GLL5        0.0000 
     82 CA         29.2610   69.9630    4.4790 C.3       8 GLP5        0.0000 
     83 CA         27.0885   69.5430    7.5540 C.3       4 GLC5        0.0000 
     84 CA         25.8230   71.0540    7.4280 C.3       8 GLP5        0.0000 
     85 N          31.2450   65.7990    9.5255 N.am      2 SEC2        0.0000 
     86 N          30.3260   66.9860    8.6290 N.am     10 SEL2        0.0000 
     87 N          32.1640   64.6120   10.4220 N.am      6 SEP2        0.0000 
     88 O          29.9995   67.6410    5.5070 O.2       1 ALC1        0.0000 
     89 O          29.8850   66.2590    5.8750 O.2       9 ALL1        0.0000 
     90 O          30.1140   69.0230    5.1390 O.2       5 ALP1        0.0000 
     91 O          26.5785   63.8870    8.0130 O.2       1 ALC1        0.0000 
     92 O          26.8250   65.1500    7.4960 O.2       9 ALL1        0.0000 
     93 O          26.3320   62.6240    8.5300 O.2       5 ALP1        0.0000 
     94 N          25.1180   63.3100    6.0010 N.am      2 SEC2        0.0000 
     95 N          26.6790   63.2920    5.4700 N.am     10 SEL2        0.0000 
     96 N          23.5570   63.3280    6.5320 N.am      6 SEP2        0.0000 
     97 NZ         24.8685   64.0165    1.8085 N.4       3 LYC4        0.0000 
     98 NZ         24.9340   63.8040    3.7860 N.4      11 LYL4        0.0000 
     99 N          24.2455   63.5660    5.1590 N.am      2 SEC2        0.0000 
    100 N          24.9340   63.8040    3.7860 N.am     10 SEL2        0.0000 
    101 N          26.6055   63.9880    1.8420 N.am      2 SEC2        0.0000 
    102 N          27.3590   63.5140    3.0640 N.am     10 SEL2        0.0000 
    103 N          28.8625   63.5755    2.9240 N.am      2 SEC2        0.0000 
    104 N          30.3660   63.6370    2.7840 N.am      6 SEP2        0.0000 
    105 CA         29.7169   56.0214    2.1195 C.3       4 GLC5        0.0000 
    106 CA         29.0590   55.7360    0.4840 C.3      12 GLL5        0.0000 
    107 CA         30.6670   56.7950    3.5390 C.3       8 GLP5        0.0000 
    108 CA         25.0095   67.0430   13.6370 C.3       4 GLC5        0.0000 
    109 CA         25.4960   68.6610   11.8990 C.3      12 GLL5        0.0000 
    110 CA         25.3425   65.3375   10.7538 C.3       4 GLC5        0.0000 
    111 CA         25.4500   67.7720   10.8190 C.3      12 GLL5        0.0000 
    112 CA         25.7780   63.4400   10.7340 C.3       8 GLP5        0.0000 
    113 CA         26.3698   69.8104    8.7698 C.3       4 GLC5        0.0000 
    114 CA         26.4080   67.8610    9.8160 C.3      12 GLL5        0.0000 
    115 CA         28.2755   67.0770   10.9153 C.3       4 GLC5        0.0000 
    116 CA         27.4080   68.8270    9.8670 C.3      12 GLL5        0.0000 
    117 CA         29.6430   65.8100   11.9890 C.3       8 GLP5        0.0000 
    118 CA         29.4550   65.4257    9.2600 C.3       4 GLC5        0.0000 
    119 CA         29.0290   66.7200    8.0910 C.3      12 GLL5        0.0000 
    120 CA         29.8200   64.6460   10.9930 C.3       8 GLP5        0.0000 
    121 CA         28.8472   65.2721    4.4416 C.3       4 GLC5        0.0000 
    122 CA         29.1510   65.6910    6.9630 C.3      12 GLL5        0.0000 
    123 CA         29.4820   65.8970    2.6300 C.3       8 GLP5        0.0000 
@<TRIPOS>BOND
@<TRIPOS>SUBSTRUCTURE
     1 ALC1       26 GROUP        1 X    ALC  0     ROOT ALC X 1
     2 SEC2        1 GROUP        1 X    SEC  0     **** SEC X 2
     3 LYC4        4 GROUP        1 X    LYC  0     **** LYC X 4
     4 GLC5       12 GROUP        1 X    GLC  0     **** GLC X 6
     5 ALP1       28 GROUP        1 Y    ALP  0     ROOT ALP Y 8
     6 SEP2        3 GROUP        1 Y    SEP  0     **** SEP Y 9
     7 LYP4        6 GROUP        1 Y    LYP  0     **** LYP Y 11
     8 GLP5       14 GROUP        1 Y    GLP  0     **** GLP Y 13
     9 ALL1       27 GROUP        1 Z    ALL  0     ROOT ALL Z 15
    10 SEL2        2 GROUP        1 Z    SEL  0     **** SEL Z 16
    11 LYL4        5 GROUP        1 Z    LYL  0     **** LYL Z 18
    12 GLL5       13 GROUP        1 Z    GLL  0     **** GLL Z 20
@<TRIPOS>SET

