#    Name: 1w07_FAD_2_ligand
#    Modification time : Tue Mar 25 08:21:30 2014

@<TRIPOS>MOLECULE
1w07_FAD_2_ligand
   84    89     1     0     0
SMALL
NO_CHARGES


@<TRIPOS>ATOM
      1 PA         26.5560   60.6360    2.6260 P.3       1 FAD1660     0.0000 
      2 O1A        28.0250   60.4960    2.7250 O.co2     1 FAD1660     0.0000 
      3 O2A        25.9920   61.1760    1.3700 O.co2     1 FAD1660     0.0000 
      4 O5B        25.8910   59.2080    2.9490 O.3       1 FAD1660     0.0000 
      5 C5B        24.4810   59.0060    2.8310 C.3       1 FAD1660     0.0000 
      6 C4B        24.1650   57.5070    2.8250 C.3       1 FAD1660     0.0000 
      7 O4B        24.8980   56.9170    1.7350 O.3       1 FAD1660     0.0000 
      8 C3B        24.6640   56.8320    4.1060 C.3       1 FAD1660     0.0000 
      9 O3B        23.8960   55.6530    4.3590 O.3       1 FAD1660     0.0000 
     10 C2B        26.1010   56.4690    3.7370 C.3       1 FAD1660     0.0000 
     11 O2B        26.5230   55.3160    4.4690 O.3       1 FAD1660     0.0000 
     12 C1B        25.9150   56.0560    2.2740 C.3       1 FAD1660     0.0000 
     13 N9A        27.1830   56.1830    1.5180 N.pl3     1 FAD1660     0.0000 
     14 C8A        27.7270   57.3180    1.0770 C.2       1 FAD1660     0.0000 
     15 N7A        28.8690   57.0500    0.4430 N.2       1 FAD1660     0.0000 
     16 C5A        29.0590   55.7360    0.4840 C.ar      1 FAD1660     0.0000 
     17 C6A        30.0460   54.8910   -0.0080 C.ar      1 FAD1660     0.0000 
     18 N6A        31.1320   55.3720   -0.6040 N.pl3     1 FAD1660     0.0000 
     19 N1A        29.9040   53.5120    0.1870 N.ar      1 FAD1660     0.0000 
     20 C2A        28.7900   53.0170    0.8730 C.ar      1 FAD1660     0.0000 
     21 N3A        27.8780   53.8530    1.3360 N.ar      1 FAD1660     0.0000 
     22 C4A        27.9810   55.1820    1.1620 C.ar      1 FAD1660     0.0000 
     23 N1         30.0320   70.2830    7.6820 N.2       1 FAD1660     0.0000 
     24 C2         30.9360   71.3530    7.6660 C.2       1 FAD1660     0.0000 
     25 O2         31.6470   71.5420    6.6820 O.2       1 FAD1660     0.0000 
     26 N3         31.0060   72.2070    8.7770 N.am      1 FAD1660     0.0000 
     27 C4         30.1770   71.9930    9.8850 C.2       1 FAD1660     0.0000 
     28 O4         30.2720   72.7300   10.8680 O.2       1 FAD1660     0.0000 
     29 C4X        29.2660   70.9410    9.8810 C.2       1 FAD1660     0.0000 
     30 N5         28.3730   70.7600   10.9480 N.2       1 FAD1660     0.0000 
     31 C5X        27.4420   69.7180   10.9470 C.ar      1 FAD1660     0.0000 
     32 C6         26.4930   69.6270   11.9590 C.ar      1 FAD1660     0.0000 
     33 C7         25.4960   68.6610   11.8990 C.ar      1 FAD1660     0.0000 
     34 C7M        24.4620   68.6030   13.0230 C.3       1 FAD1660     0.0000 
     35 C8         25.4500   67.7720   10.8190 C.ar      1 FAD1660     0.0000 
     36 C8M        24.3640   66.6980   10.7280 C.3       1 FAD1660     0.0000 
     37 C9         26.4080   67.8610    9.8160 C.ar      1 FAD1660     0.0000 
     38 C9A        27.4080   68.8270    9.8670 C.ar      1 FAD1660     0.0000 
     39 N10        28.3360   68.9740    8.8270 N.pl3     1 FAD1660     0.0000 
     40 C10        29.1980   70.0830    8.7910 C.2       1 FAD1660     0.0000 
     41 C1'        28.3540   68.0320    7.6800 C.3       1 FAD1660     0.0000 
     42 C2'        29.0290   66.7200    8.0910 C.3       1 FAD1660     0.0000 
     43 O2'        30.3260   66.9860    8.6290 O.3       1 FAD1660     0.0000 
     44 C3'        29.1510   65.6910    6.9630 C.3       1 FAD1660     0.0000 
     45 O3'        29.8850   66.2590    5.8750 O.3       1 FAD1660     0.0000 
     46 C4'        27.7910   65.2180    6.4440 C.3       1 FAD1660     0.0000 
     47 O4'        26.8250   65.1500    7.4960 O.3       1 FAD1660     0.0000 
     48 C5'        27.9540   63.8400    5.8030 C.3       1 FAD1660     0.0000 
     49 O5'        26.6790   63.2920    5.4700 O.3       1 FAD1660     0.0000 
     50 P          26.2330   63.1150    3.9380 P.3       1 FAD1660     0.0000 
     51 O1P        24.9340   63.8040    3.7860 O.co2     1 FAD1660     0.0000 
     52 O2P        27.3590   63.5140    3.0640 O.co2     1 FAD1660     0.0000 
     53 O3P        26.0150   61.5260    3.8500 O.3       1 FAD1660     0.0000 
     54 H          24.0850   59.4330    1.9017 H         1 FAD1660     0.0000 
     55 H          23.9337   59.4578    3.6671 H         1 FAD1660     0.0000 
     56 H          23.1284   57.3584    2.7244 H         1 FAD1660     0.0000 
     57 H          24.6712   57.5306    4.8761 H         1 FAD1660     0.0000 
     58 H          26.7024   57.2901    3.7898 H         1 FAD1660     0.0000 
     59 H          25.5793   55.0308    2.2695 H         1 FAD1660     0.0000 
     60 H          27.3458   58.2117    1.2001 H         1 FAD1660     0.0000 
     61 H          31.8013   54.6956   -0.9114 H         1 FAD1660     0.0000 
     62 H          31.1819   56.3669   -0.6913 H         1 FAD1660     0.0000 
     63 H          28.7123   51.9896    0.9997 H         1 FAD1660     0.0000 
     64 H          31.6680   72.9915    8.7764 H         1 FAD1660     0.0000 
     65 H          26.5294   70.2785   12.7563 H         1 FAD1660     0.0000 
     66 H          26.3777   67.2003    9.0205 H         1 FAD1660     0.0000 
     67 H          28.9075   68.4598    6.8445 H         1 FAD1660     0.0000 
     68 H          27.3384   67.8116    7.3522 H         1 FAD1660     0.0000 
     69 H          28.4018   66.2630    8.8788 H         1 FAD1660     0.0000 
     70 H          29.6776   64.8229    7.3556 H         1 FAD1660     0.0000 
     71 H          27.4763   65.9037    5.6651 H         1 FAD1660     0.0000 
     72 H          28.4971   63.2032    6.5152 H         1 FAD1660     0.0000 
     73 H          28.5904   63.9586    4.9150 H         1 FAD1660     0.0000 
     74 H          24.8886   68.4359   13.9118 H         1 FAD1660     0.0000 
     75 H          23.9490   69.4579   13.1002 H         1 FAD1660     0.0000 
     76 H          23.7946   67.8729   12.8763 H         1 FAD1660     0.0000 
     77 H          24.4588   66.1430    9.9016 H         1 FAD1660     0.0000 
     78 H          24.3950   66.0716   11.5069 H         1 FAD1660     0.0000 
     79 H          23.4474   67.0973   10.7093 H         1 FAD1660     0.0000 
     80 H          23.8384   55.1874    3.4759 H         1 FAD1660     0.0000 
     81 H          27.1517   55.6662    5.1633 H         1 FAD1660     0.0000 
     82 H          30.8633   67.3213    7.8551 H         1 FAD1660     0.0000 
     83 H          29.7078   67.2417    5.9285 H         1 FAD1660     0.0000 
     84 H          26.7917   64.1846    7.7546 H         1 FAD1660     0.0000 
@<TRIPOS>BOND
     1    2    1 ar   
     2    3    1 ar   
     3    4    1 1    
     4   53    1 1    
     5    5    4 1    
     6    6    5 1    
     7   54    5 1    
     8   55    5 1    
     9    7    6 1    
    10    8    6 1    
    11   56    6 1    
    12   12    7 1    
    13    9    8 1    
    14   10    8 1    
    15   57    8 1    
    16   80    9 1    
    17   11   10 1    
    18   12   10 1    
    19   58   10 1    
    20   81   11 1    
    21   13   12 1    
    22   59   12 1    
    23   14   13 1    
    24   22   13 1    
    25   15   14 2    
    26   60   14 1    
    27   16   15 1    
    28   17   16 ar   
    29   22   16 ar   
    30   18   17 1    
    31   19   17 ar   
    32   61   18 1    
    33   62   18 1    
    34   20   19 ar   
    35   21   20 ar   
    36   63   20 1    
    37   22   21 ar   
    38   24   23 1    
    39   40   23 2    
    40   25   24 2    
    41   26   24 am   
    42   27   26 am   
    43   64   26 1    
    44   28   27 2    
    45   29   27 1    
    46   30   29 2    
    47   40   29 1    
    48   31   30 1    
    49   32   31 ar   
    50   38   31 ar   
    51   33   32 ar   
    52   65   32 1    
    53   34   33 1    
    54   35   33 ar   
    55   74   34 1    
    56   75   34 1    
    57   76   34 1    
    58   36   35 1    
    59   37   35 ar   
    60   77   36 1    
    61   78   36 1    
    62   79   36 1    
    63   38   37 ar   
    64   66   37 1    
    65   39   38 1    
    66   40   39 1    
    67   41   39 1    
    68   42   41 1    
    69   67   41 1    
    70   68   41 1    
    71   43   42 1    
    72   44   42 1    
    73   69   42 1    
    74   82   43 1    
    75   45   44 1    
    76   46   44 1    
    77   70   44 1    
    78   83   45 1    
    79   47   46 1    
    80   48   46 1    
    81   71   46 1    
    82   84   47 1    
    83   49   48 1    
    84   72   48 1    
    85   73   48 1    
    86   50   49 1    
    87   51   50 ar   
    88   52   50 ar   
    89   53   50 1    
@<TRIPOS>SUBSTRUCTURE
     1 FAD1660     1 GROUP   
@<TRIPOS>SET

