#    Name: 3cdb_9HI_3_INTS_M
#    Modification time : Mon Mar 24 20:56:35 2014

@<TRIPOS>MOLECULE
3cdb_9HI_3_INTS_M
   95     0    12     0     0
SMALL
NO_CHARGES


@<TRIPOS>ATOM
      1 CA         -2.7405  -15.1400    7.3030 C.3       4 GLC5        0.0000 
      2 CA         -2.3410  -17.0410    7.9070 C.3      12 GLL5        0.0000 
      3 CA         -3.1400  -13.2390    6.6990 C.3       8 GLP5        0.0000 
      4 CA          1.3285  -16.1355    9.6745 C.3       4 GLC5        0.0000 
      5 CA         -0.7660  -15.8220    9.3770 C.3      12 GLL5        0.0000 
      6 CA          3.4230  -16.4490    9.9720 C.3       8 GLP5        0.0000 
      7 CA         -0.0485  -14.4645    8.1485 C.3       4 GLC5        0.0000 
      8 CA          0.6690  -13.1070    6.9200 C.3       8 GLP5        0.0000 
      9 CA         -1.2185  -21.0460    5.3630 C.3       4 GLC5        0.0000 
     10 CA         -2.9870  -20.0190    4.8500 C.3      12 GLL5        0.0000 
     11 CA          0.5500  -22.0730    5.8760 C.3       8 GLP5        0.0000 
     12 CA         -1.8750  -19.9505    3.1115 C.3       4 GLC5        0.0000 
     13 CA         -0.7630  -19.8820    1.3730 C.3       8 GLP5        0.0000 
     14 CA         -7.2380  -19.3620   13.0290 C.3       4 GLC5        0.0000 
     15 CA         -6.6020  -18.1930   11.3450 C.3      12 GLL5        0.0000 
     16 CA         -7.8740  -20.5310   14.7130 C.3       8 GLP5        0.0000 
     17 CA        -10.0955  -13.9055    7.3950 C.3       4 GLC5        0.0000 
     18 CA         -9.7870  -15.9170    7.1770 C.3      12 GLL5        0.0000 
     19 CA        -10.4040  -11.8940    7.6130 C.3       8 GLP5        0.0000 
     20 CA        -11.5455  -16.1630    6.0305 C.3       4 GLC5        0.0000 
     21 CA        -13.3040  -16.4090    4.8840 C.3       8 GLP5        0.0000 
     22 CA         -5.8885  -21.7000    3.4065 C.3       4 GLC5        0.0000 
     23 CA         -7.0090  -21.1220    4.6660 C.3      12 GLL5        0.0000 
     24 CA         -4.7680  -22.2780    2.1470 C.3       8 GLP5        0.0000 
     25 CA         -6.4065  -23.0305    3.6670 C.3       4 GLC5        0.0000 
     26 CA         -6.9130  -22.3950    5.2250 C.3      12 GLL5        0.0000 
     27 CA         -5.9000  -23.6660    2.1090 C.3       8 GLP5        0.0000 
     28 CA         -8.3480  -14.6385    8.2275 C.3       4 GLC5        0.0000 
     29 CA         -8.4870  -16.2340    6.8200 C.3      12 GLL5        0.0000 
     30 CA         -8.2090  -13.0430    9.6350 C.3       8 GLP5        0.0000 
     31 CA         -0.9580  -17.5035    3.4025 C.3       4 GLC5        0.0000 
     32 CA         -2.7360  -17.5190    4.4100 C.3      12 GLL5        0.0000 
     33 CA          0.8200  -17.4880    2.3950 C.3       8 GLP5        0.0000 
     34 CA         -3.4240  -17.2855    2.4175 C.3       4 GLC5        0.0000 
     35 CA         -4.1120  -17.0520    0.4250 C.3       8 GLP5        0.0000 
     36 CA         -7.2335  -18.5475   13.8975 C.3       4 GLC5        0.0000 
     37 CA         -6.5930  -16.5640   13.0820 C.3      12 GLL5        0.0000 
     38 N           1.1940  -18.3105    8.7940 N.am      2 SEC2        0.0000 
     39 N          -0.2220  -17.9750    8.5120 N.am     10 SEL2        0.0000 
     40 N           2.6100  -18.6460    9.0760 N.am      6 SEP2        0.0000 
     41 N           0.5735  -17.2625    7.3690 N.am      2 SEC2        0.0000 
     42 N           1.3690  -16.5500    6.2260 N.am      6 SEP2        0.0000 
     43 O          -0.1865  -19.2810    8.0445 O.2       1 ALC1        0.0000 
     44 O          -0.2220  -17.9750    8.5120 O.2       9 ALL1        0.0000 
     45 O          -0.1510  -20.5870    7.5770 O.2       5 ALP1        0.0000 
     46 N          -2.2935  -15.6710   12.8875 N.am      2 SEC2        0.0000 
     47 N          -1.5200  -15.8270   11.6310 N.am     10 SEL2        0.0000 
     48 N          -3.0670  -15.5150   14.1440 N.am      6 SEP2        0.0000 
     49 N          -2.4380  -16.7380   12.4925 N.am      2 SEC2        0.0000 
     50 N          -3.3560  -17.6490   13.3540 N.am      6 SEP2        0.0000 
     51 O          -0.2335  -16.1835   11.9860 O.2       1 ALC1        0.0000 
     52 O          -1.5200  -15.8270   11.6310 O.2       9 ALL1        0.0000 
     53 O           1.0530  -16.5400   12.3410 O.2       5 ALP1        0.0000 
     54 CA         -0.1575  -14.3935   12.4150 C.3       4 GLC5        0.0000 
     55 CA         -1.2090  -13.7050   10.5580 C.3      12 GLL5        0.0000 
     56 CA          0.8940  -15.0820   14.2720 C.3       8 GLP5        0.0000 
     57 CA         -0.2700  -13.4060    8.7390 C.3       4 GLC5        0.0000 
     58 NZ         -0.9915  -11.6480   12.1735 N.4       3 LYC4        0.0000 
     59 NZ         -2.1650  -12.7080   12.4790 N.4      11 LYL4        0.0000 
     60 NZ          0.1820  -10.5880   11.8680 N.4       7 LYP4        0.0000 
     61 NZ         -3.1040  -11.4185   12.1040 N.4       3 LYC4        0.0000 
     62 NZ         -4.0430  -10.1290   11.7290 N.4       7 LYP4        0.0000 
     63 N          -3.2080  -12.4255   13.1265 N.am      2 SEC2        0.0000 
     64 N          -2.1650  -12.7080   12.4790 N.am     10 SEL2        0.0000 
     65 N          -4.2510  -12.1430   13.7740 N.am      6 SEP2        0.0000 
     66 N          -0.9915  -11.6480   12.1735 N.am      2 SEC2        0.0000 
     67 N           0.1820  -10.5880   11.8680 N.am      6 SEP2        0.0000 
     68 NZ         -3.6825  -11.3005   11.1680 N.4       3 LYC4        0.0000 
     69 NZ         -3.3220  -12.4720   10.6070 N.4      11 LYL4        0.0000 
     70 N          -3.6825  -11.3005   11.1680 N.am      2 SEC2        0.0000 
     71 N          -3.3220  -12.4720   10.6070 N.am     10 SEL2        0.0000 
     72 N          -4.0430  -10.1290   11.7290 N.am      6 SEP2        0.0000 
     73 CA         -4.0565  -20.8163    3.4392 C.3       4 GLC5        0.0000 
     74 CA         -3.7030  -18.6900    4.6130 C.3      12 GLL5        0.0000 
     75 CA         -5.4805  -15.6133    7.8000 C.3       4 GLC5        0.0000 
     76 CA         -5.5010  -16.2910    9.6410 C.3      12 GLL5        0.0000 
     77 CA         -5.3300  -14.2940    6.1940 C.3       8 GLP5        0.0000 
     78 CA         -6.9255  -14.5835    9.9670 C.3       4 GLC5        0.0000 
     79 CA         -9.3645  -15.2613    5.5258 C.3       4 GLC5        0.0000 
     80 CA         -9.5920  -14.4470    4.0530 C.3       8 GLP5        0.0000 
     81 CA        -12.7737  -17.1373    7.5000 C.3       4 GLC5        0.0000 
     82 CA        -10.5630  -16.8230    7.8890 C.3      12 GLL5        0.0000 
     83 CA        -14.3570  -17.6120    6.9400 C.3       8 GLP5        0.0000 
     84 CA         -6.7758  -15.5713    6.5950 C.3       4 GLC5        0.0000 
     85 CA         -7.9560  -17.4630    7.1720 C.3      12 GLL5        0.0000 
     86 CA         -5.8247  -16.3080   14.2325 C.3       4 GLC5        0.0000 
     87 CA         -6.3320  -16.9060   11.8100 C.3      12 GLL5        0.0000 
     88 CA         -5.1870  -15.8810   16.0190 C.3       8 GLP5        0.0000 
     89 CA         -7.9495  -15.9943   12.2923 C.3       4 GLC5        0.0000 
     90 CA         -9.5400  -15.3300   12.4100 C.3       8 GLP5        0.0000 
     91 CA         -5.8931  -14.6559   12.8474 C.3       4 GLC5        0.0000 
     92 CA         -5.4610  -12.8140   13.4620 C.3       8 GLP5        0.0000 
     93 CA         -2.1748  -13.9171    8.4612 C.3       4 GLC5        0.0000 
     94 CA         -5.4992  -16.1606    6.3268 C.3       4 GLC5        0.0000 
     95 CA         -5.4450  -17.8750    7.7450 C.3      12 GLL5        0.0000 
@<TRIPOS>BOND
@<TRIPOS>SUBSTRUCTURE
     1 ALC1       43 GROUP        1 X    ALC  0     ROOT ALC X 1
     2 SEC2       38 GROUP        1 X    SEC  0     **** SEC X 2
     3 LYC4       58 GROUP        1 X    LYC  0     **** LYC X 4
     4 GLC5        1 GROUP        1 X    GLC  0     **** GLC X 6
     5 ALP1       45 GROUP        1 Y    ALP  0     ROOT ALP Y 8
     6 SEP2       40 GROUP        1 Y    SEP  0     **** SEP Y 9
     7 LYP4       60 GROUP        1 Y    LYP  0     **** LYP Y 11
     8 GLP5        3 GROUP        1 Y    GLP  0     **** GLP Y 13
     9 ALL1       44 GROUP        1 Z    ALL  0     ROOT ALL Z 15
    10 SEL2       39 GROUP        1 Z    SEL  0     **** SEL Z 16
    11 LYL4       59 GROUP        1 Z    LYL  0     **** LYL Z 18
    12 GLL5        2 GROUP        1 Z    GLL  0     **** GLL Z 20
@<TRIPOS>SET

