#    Name: 3cdb_9HI_3_ligand
#    Modification time : Mon Mar 24 20:56:35 2014

@<TRIPOS>MOLECULE
3cdb_9HI_3_ligand
   80    83     1     0     0
SMALL
NO_CHARGES


@<TRIPOS>ATOM
      1 N1         -4.3400  -18.1910    7.0450 N.pl3     1 9HI4        0.0000 
      2 N3         -7.9350  -25.2990    5.8300 N.am      1 9HI4        0.0000 
      3 C5         -5.4450  -17.8750    7.7450 C.2       1 9HI4        0.0000 
      4 C6         -3.7030  -18.6900    4.6130 C.3       1 9HI4        0.0000 
      5 C7         -3.0360  -18.3670    7.6870 C.3       1 9HI4        0.0000 
      6 C8         -2.3410  -17.0410    7.9070 C.3       1 9HI4        0.0000 
      7 C10        -0.7660  -15.8220    9.3770 C.3       1 9HI4        0.0000 
      8 C13        -2.9870  -20.0190    4.8500 C.3       1 9HI4        0.0000 
      9 C15        -6.6020  -18.1930   11.3450 C.ar      1 9HI4        0.0000 
     10 C17        -9.1000  -20.7920    5.8090 C.ar      1 9HI4        0.0000 
     11 C20        -9.0030  -22.0710    6.3690 C.ar      1 9HI4        0.0000 
     12 C21        -5.5010  -16.2910    9.6410 C.ar      1 9HI4        0.0000 
     13 C22        -9.7870  -15.9170    7.1770 C.ar      1 9HI4        0.0000 
     14 C24        -5.7830  -15.9570   10.9570 C.ar      1 9HI4        0.0000 
     15 C26        -7.0090  -21.1220    4.6660 C.ar      1 9HI4        0.0000 
     16 C28       -10.5630  -16.8230    7.8890 C.ar      1 9HI4        0.0000 
     17 O5         -7.4530  -24.4110    7.8230 O.2       1 9HI4        0.0000 
     18 C3         -7.7510  -24.2600    6.6470 C.2       1 9HI4        0.0000 
     19 C29        -7.9010  -22.8770    6.0770 C.ar      1 9HI4        0.0000 
     20 C23        -6.9130  -22.3950    5.2250 C.ar      1 9HI4        0.0000 
     21 C32        -8.1040  -20.3020    4.9550 C.ar      1 9HI4        0.0000 
     22 N2         -8.2230  -19.0470    4.4410 N.pl3     1 9HI4        0.0000 
     23 S1         -6.9200  -18.1360    4.1930 S.o2      1 9HI4        0.0000 
     24 O1         -6.1800  -18.6690    3.0910 O.2       1 9HI4        0.0000 
     25 O2         -7.3390  -16.8040    3.8490 O.2       1 9HI4        0.0000 
     26 C2         -6.0230  -18.0890    5.5780 C.2       1 9HI4        0.0000 
     27 C1         -6.5540  -17.7980    6.8010 C.2       1 9HI4        0.0000 
     28 C31        -7.9560  -17.4630    7.1720 C.ar      1 9HI4        0.0000 
     29 C25        -8.4870  -16.2340    6.8200 C.ar      1 9HI4        0.0000 
     30 C16        -8.7250  -18.3730    7.8950 C.ar      1 9HI4        0.0000 
     31 C19       -10.0300  -18.0550    8.2530 C.ar      1 9HI4        0.0000 
     32 F2        -11.8180  -16.5020    8.2310 F         1 9HI4        0.0000 
     33 C12        -4.6520  -18.3470    5.7140 C.2       1 9HI4        0.0000 
     34 C14        -2.7360  -17.5190    4.4100 C.3       1 9HI4        0.0000 
     35 C27        -5.7610  -17.5740    9.1710 C.ar      1 9HI4        0.0000 
     36 C30        -6.3320  -16.9060   11.8100 C.ar      1 9HI4        0.0000 
     37 C18        -6.3150  -18.5270   10.0240 C.ar      1 9HI4        0.0000 
     38 F1         -6.5930  -16.5640   13.0820 F         1 9HI4        0.0000 
     39 C9         -1.2960  -17.1930    9.0010 C.3       1 9HI4        0.0000 
     40 O4         -0.2220  -17.9750    8.5120 O.3       1 9HI4        0.0000 
     41 C11        -1.6540  -15.1490   10.4010 C.3       1 9HI4        0.0000 
     42 O3         -1.5200  -15.8270   11.6310 O.3       1 9HI4        0.0000 
     43 C35        -1.2090  -13.7050   10.5580 C.3       1 9HI4        0.0000 
     44 C36        -2.2730  -12.9250   11.2840 C.2       1 9HI4        0.0000 
     45 O6         -2.1650  -12.7080   12.4790 O.co2     1 9HI4        0.0000 
     46 O7         -3.3220  -12.4720   10.6070 O.co2     1 9HI4        0.0000 
     47 H          -7.8702  -26.2048    6.2486 H         1 9HI4        0.0000 
     48 H          -8.1212  -25.0783    4.8726 H         1 9HI4        0.0000 
     49 H          -4.2892  -18.7835    3.6802 H         1 9HI4        0.0000 
     50 H          -2.3854  -19.0040    7.0686 H         1 9HI4        0.0000 
     51 H          -3.1508  -18.8670    8.6608 H         1 9HI4        0.0000 
     52 H          -3.0684  -16.2932    8.2062 H         1 9HI4        0.0000 
     53 H          -1.8564  -16.7264    6.9883 H         1 9HI4        0.0000 
     54 H          -0.7100  -15.1989    8.4797 H         1 9HI4        0.0000 
     55 H           0.2439  -15.9255    9.7844 H         1 9HI4        0.0000 
     56 H          -7.0112  -18.8914   11.9758 H         1 9HI4        0.0000 
     57 H          -9.9171  -20.2011    6.0283 H         1 9HI4        0.0000 
     58 H          -9.7409  -22.4142    6.9925 H         1 9HI4        0.0000 
     59 H          -5.0966  -15.5861    9.0063 H         1 9HI4        0.0000 
     60 H         -10.1842  -15.0010    6.9129 H         1 9HI4        0.0000 
     61 H          -5.5864  -15.0083   11.3021 H         1 9HI4        0.0000 
     62 H          -6.2696  -20.7812    4.0357 H         1 9HI4        0.0000 
     63 H          -6.0958  -22.9882    5.0026 H         1 9HI4        0.0000 
     64 H          -9.0819  -18.5900    4.1804 H         1 9HI4        0.0000 
     65 H          -7.9171  -15.5572    6.2942 H         1 9HI4        0.0000 
     66 H          -8.3245  -19.2819    8.1637 H         1 9HI4        0.0000 
     67 H         -10.5975  -18.7256    8.7831 H         1 9HI4        0.0000 
     68 H          -6.5109  -19.4737    9.6782 H         1 9HI4        0.0000 
     69 H          -1.7561  -17.6311    9.8584 H         1 9HI4        0.0000 
     70 H          -2.6605  -15.1600   10.0390 H         1 9HI4        0.0000 
     71 H          -1.0424  -13.2726    9.5748 H         1 9HI4        0.0000 
     72 H          -0.2812  -13.6756   11.1234 H         1 9HI4        0.0000 
     73 H          -2.3566  -20.2392    4.1056 H         1 9HI4        0.0000 
     74 H          -2.4509  -20.0067    5.6941 H         1 9HI4        0.0000 
     75 H          -3.6314  -20.7802    4.9232 H         1 9HI4        0.0000 
     76 H          -2.1438  -17.3844    5.2044 H         1 9HI4        0.0000 
     77 H          -2.1393  -17.6627    3.6205 H         1 9HI4        0.0000 
     78 H          -3.2218  -16.6583    4.2574 H         1 9HI4        0.0000 
     79 H          -0.6246  -18.8666    8.3046 H         1 9HI4        0.0000 
     80 H          -0.5362  -15.9670   11.7434 H         1 9HI4        0.0000 
@<TRIPOS>BOND
     1    3    1 1    
     2    5    1 1    
     3   33    1 1    
     4   18    2 am   
     5   47    2 1    
     6   48    2 1    
     7   27    3 2    
     8   35    3 1    
     9    8    4 1    
    10   33    4 1    
    11   34    4 1    
    12   49    4 1    
    13    6    5 1    
    14   50    5 1    
    15   51    5 1    
    16   39    6 1    
    17   52    6 1    
    18   53    6 1    
    19   39    7 1    
    20   41    7 1    
    21   54    7 1    
    22   55    7 1    
    23   73    8 1    
    24   74    8 1    
    25   75    8 1    
    26   36    9 ar   
    27   37    9 ar   
    28   56    9 1    
    29   11   10 ar   
    30   21   10 ar   
    31   57   10 1    
    32   19   11 ar   
    33   58   11 1    
    34   14   12 ar   
    35   35   12 ar   
    36   59   12 1    
    37   16   13 ar   
    38   29   13 ar   
    39   60   13 1    
    40   36   14 ar   
    41   61   14 1    
    42   20   15 ar   
    43   21   15 ar   
    44   62   15 1    
    45   31   16 ar   
    46   32   16 1    
    47   18   17 2    
    48   19   18 1    
    49   20   19 ar   
    50   63   20 1    
    51   22   21 1    
    52   23   22 1    
    53   64   22 1    
    54   24   23 2    
    55   25   23 2    
    56   26   23 1    
    57   27   26 1    
    58   33   26 2    
    59   28   27 1    
    60   29   28 ar   
    61   30   28 ar   
    62   65   29 1    
    63   31   30 ar   
    64   66   30 1    
    65   67   31 1    
    66   76   34 1    
    67   77   34 1    
    68   78   34 1    
    69   37   35 ar   
    70   38   36 1    
    71   68   37 1    
    72   40   39 1    
    73   69   39 1    
    74   79   40 1    
    75   42   41 1    
    76   43   41 1    
    77   70   41 1    
    78   80   42 1    
    79   44   43 1    
    80   71   43 1    
    81   72   43 1    
    82   45   44 ar   
    83   46   44 ar   
@<TRIPOS>SUBSTRUCTURE
     1 9HI4        1 GROUP   
@<TRIPOS>SET

