#    Name: 1h9u_LG2_3_INTS_M
#    Modification time : Tue Mar 25 05:18:57 2014

@<TRIPOS>MOLECULE
1h9u_LG2_3_INTS_M
   98     0     9     0     0
SMALL
NO_CHARGES


@<TRIPOS>ATOM
      1 CA        -32.1235  -30.8775  109.3510 C.3       3 GLC5        0.0000 
      2 CA        -30.6130  -31.0310  107.7340 C.3       9 GLL5        0.0000 
      3 CA        -33.6340  -30.7240  110.9680 C.3       6 GLP5        0.0000 
      4 CA        -30.9840  -32.4395  109.2385 C.3       3 GLC5        0.0000 
      5 CA        -31.3550  -33.8480  110.7430 C.3       6 GLP5        0.0000 
      6 CA        -28.9070  -27.0635  107.7515 C.3       3 GLC5        0.0000 
      7 CA        -27.4920  -28.7160  107.9760 C.3       9 GLL5        0.0000 
      8 CA        -30.3220  -25.4110  107.5270 C.3       6 GLP5        0.0000 
      9 CA        -26.0925  -27.7380  109.1365 C.3       3 GLC5        0.0000 
     10 CA        -24.6930  -26.7600  110.2970 C.3       6 GLP5        0.0000 
     11 CA        -24.7815  -29.3245  107.0945 C.3       3 GLC5        0.0000 
     12 CA        -26.6740  -29.4460  106.8930 C.3       9 GLL5        0.0000 
     13 CA        -22.8890  -29.2030  107.2960 C.3       6 GLP5        0.0000 
     14 CA        -30.6695  -30.8320  102.6590 C.3       3 GLC5        0.0000 
     15 CA        -31.6820  -32.1470  104.1220 C.3       9 GLL5        0.0000 
     16 CA        -29.6570  -29.5170  101.1960 C.3       6 GLP5        0.0000 
     17 CA        -32.7665  -28.4545  105.0185 C.3       3 GLC5        0.0000 
     18 CA        -33.5740  -29.0170  103.3130 C.3       9 GLL5        0.0000 
     19 CA        -31.9590  -27.8920  106.7240 C.3       6 GLP5        0.0000 
     20 CA        -33.5380  -26.9320  103.5140 C.3       3 GLC5        0.0000 
     21 CA        -33.5020  -24.8470  103.7150 C.3       6 GLP5        0.0000 
     22 CA        -36.1830  -30.7715  100.7095 C.3       3 GLC5        0.0000 
     23 CA        -34.1550  -30.6400  101.5420 C.3       9 GLL5        0.0000 
     24 CA        -38.2110  -30.9030   99.8770 C.3       6 GLP5        0.0000 
     25 NZ        -35.5970  -27.4075   99.4590 N.4       2 LYC4        0.0000 
     26 NZ        -35.7560  -28.5550  100.3900 N.4       8 LYL4        0.0000 
     27 NZ        -36.0890  -26.6450   97.4470 N.4       5 LYP4        0.0000 
     28 N         -35.5970  -27.4075   99.4590 N.am      1 SEC2        0.0000 
     29 N         -35.7560  -28.5550  100.3900 N.am      7 SEL2        0.0000 
     30 N         -35.4380  -26.2600   98.5280 N.am      4 SEP2        0.0000 
     31 N         -36.2100  -28.1960   98.9005 N.am      1 SEC2        0.0000 
     32 N         -36.6640  -27.8370   97.4110 N.am      4 SEP2        0.0000 
     33 N         -36.3935  -27.0875  100.5040 N.am      1 SEC2        0.0000 
     34 N         -37.0310  -25.6200  100.6180 N.am      4 SEP2        0.0000 
     35 N         -36.1560  -26.3370  101.2820 N.am      1 SEC2        0.0000 
     36 N         -35.2810  -27.0540  101.9460 N.am      7 SEL2        0.0000 
     37 CA        -33.9075  -32.8575  104.8400 C.3       3 GLC5        0.0000 
     38 CA        -32.2710  -33.5350  104.3070 C.3       9 GLL5        0.0000 
     39 CA        -35.5440  -32.1800  105.3730 C.3       6 GLP5        0.0000 
     40 CA        -33.9590  -33.9455  103.0125 C.3       3 GLC5        0.0000 
     41 CA        -35.6470  -34.3560  101.7180 C.3       6 GLP5        0.0000 
     42 CA        -30.7265  -35.4010  103.2495 C.3       3 GLC5        0.0000 
     43 CA        -31.0860  -33.3320  103.3910 C.3       9 GLL5        0.0000 
     44 CA        -30.3670  -37.4700  103.1080 C.3       6 GLP5        0.0000 
     45 CA        -32.3595  -33.7280  101.7850 C.3       3 GLC5        0.0000 
     46 CA        -33.6330  -34.1240  100.1790 C.3       6 GLP5        0.0000 
     47 CA        -29.7525  -33.3505  102.2675 C.3       3 GLC5        0.0000 
     48 CA        -28.4190  -33.3690  101.1440 C.3       6 GLP5        0.0000 
     49 CA        -26.3900  -31.6930  110.2460 C.3       3 GLC5        0.0000 
     50 CA        -27.7130  -30.8430  109.2920 C.3       9 GLL5        0.0000 
     51 CA        -25.0670  -32.5430  111.2000 C.3       6 GLP5        0.0000 
     52 CA        -30.2455  -28.5790  111.3035 C.3       3 GLC5        0.0000 
     53 CA        -29.3520  -29.0140  109.6060 C.3       9 GLL5        0.0000 
     54 CA        -31.1390  -28.1440  113.0010 C.3       6 GLP5        0.0000 
     55 CA        -29.9380  -28.0940  105.8760 C.3       3 GLC5        0.0000 
     56 CA        -27.9170  -28.2960  105.0280 C.3       9 GLL5        0.0000 
     57 CA        -28.2400  -28.4990  102.9870 C.3       3 GLC5        0.0000 
     58 CA        -28.5630  -28.7020  100.9460 C.3       6 GLP5        0.0000 
     59 CA        -27.6605  -29.5745  102.7845 C.3       3 GLC5        0.0000 
     60 CA        -26.7580  -30.4470  104.6230 C.3       9 GLL5        0.0000 
     61 CA        -25.0760  -31.0980  105.2625 C.3       3 GLC5        0.0000 
     62 CA        -23.3940  -31.7490  105.9020 C.3       6 GLP5        0.0000 
     63 CA        -25.5550  -29.4190  103.2295 C.3       3 GLC5        0.0000 
     64 CA        -24.3520  -28.3910  101.8360 C.3       6 GLP5        0.0000 
     65 CA        -32.3485  -30.0780  106.9375 C.3       3 GLC5        0.0000 
     66 CA        -32.7380  -32.2640  107.1510 C.3       9 GLL5        0.0000 
     67 CA        -34.1020  -31.0590  108.1100 C.3       3 GLC5        0.0000 
     68 CA        -35.4660  -29.8540  109.0690 C.3       6 GLP5        0.0000 
     69 CA        -32.0465  -33.0560  108.9470 C.3       3 GLC5        0.0000 
     70 CA        -30.6322  -29.2692  106.1268 C.3       3 GLC5        0.0000 
     71 CA        -29.7160  -30.9480  105.0210 C.3       9 GLL5        0.0000 
     72 CA        -28.7657  -32.2528  105.7308 C.3       3 GLC5        0.0000 
     73 CA        -28.8950  -30.3450  106.0380 C.3       9 GLL5        0.0000 
     74 CA        -28.2260  -33.8590  105.9320 C.3       6 GLP5        0.0000 
     75 CA        -31.5817  -29.7527  106.3670 C.3       3 GLC5        0.0000 
     76 CA        -30.9690  -31.5920  105.3100 C.3       9 GLL5        0.0000 
     77 CA        -29.7152  -32.7362  105.9710 C.3       3 GLC5        0.0000 
     78 CA        -31.4400  -31.6350  106.7100 C.3       9 GLL5        0.0000 
     79 CA        -33.8165  -32.0648  106.1517 C.3       3 GLC5        0.0000 
     80 CA        -30.9690  -29.2995  107.1525 C.3       3 GLC5        0.0000 
     81 CA        -29.1025  -32.2830  106.7565 C.3       3 GLC5        0.0000 
     82 CA        -30.4413  -28.6337  107.9040 C.3       3 GLC5        0.0000 
     83 CA        -28.4950  -29.7370  108.5620 C.3       9 GLL5        0.0000 
     84 CA        -27.6962  -31.9560  105.5348 C.3       3 GLC5        0.0000 
     85 CA        -27.5750  -29.6590  105.6520 C.3       9 GLL5        0.0000 
     86 CA        -35.3560  -28.1608  103.6050 C.3       3 GLC5        0.0000 
     87 CA        -34.2840  -29.3320  102.1030 C.3       9 GLL5        0.0000 
     88 CA        -36.7830  -27.1470  104.5020 C.3       6 GLP5        0.0000 
     89 CA        -33.2497  -28.9940  100.3718 C.3       3 GLC5        0.0000 
     90 CA        -32.2800  -28.0020   98.9210 C.3       6 GLP5        0.0000 
     91 CA        -35.3350  -30.7166  103.3280 C.3       3 GLC5        0.0000 
     92 CA        -36.6280  -31.5260  104.5310 C.3       6 GLP5        0.0000 
     93 CA        -33.5946  -32.5703  101.1769 C.3       3 GLC5        0.0000 
     94 CA        -34.1349  -31.9050  104.1786 C.3       3 GLC5        0.0000 
     95 CA        -33.3060  -31.5870  102.2000 C.3       9 GLL5        0.0000 
     96 CA        -32.5652  -35.1598  104.3085 C.3       3 GLC5        0.0000 
     97 CA        -33.4520  -36.8860  104.7680 C.3       6 GLP5        0.0000 
     98 CA        -29.8786  -33.4728  104.8674 C.3       3 GLC5        0.0000 
@<TRIPOS>BOND
@<TRIPOS>SUBSTRUCTURE
     1 SEC2       28 GROUP        1 X    SEC  0     ROOT SEC X 2
     2 LYC4       25 GROUP        1 X    LYC  0     **** LYC X 4
     3 GLC5        1 GROUP        1 X    GLC  0     **** GLC X 6
     4 SEP2       30 GROUP        1 Y    SEP  0     ROOT SEP Y 9
     5 LYP4       27 GROUP        1 Y    LYP  0     **** LYP Y 11
     6 GLP5        3 GROUP        1 Y    GLP  0     **** GLP Y 13
     7 SEL2       29 GROUP        1 Z    SEL  0     ROOT SEL Z 16
     8 LYL4       26 GROUP        1 Z    LYL  0     **** LYL Z 18
     9 GLL5        2 GROUP        1 Z    GLL  0     **** GLL Z 20
@<TRIPOS>SET

