#    Name: 1h9u_LG2_3_ligand
#    Modification time : Tue Mar 25 05:18:57 2014

@<TRIPOS>MOLECULE
1h9u_LG2_3_ligand
   55    58     1     0     0
SMALL
NO_CHARGES


@<TRIPOS>ATOM
      1 C1        -28.8950  -30.3450  106.0380 C.ar      1 LG21        0.0000 
      2 C2        -29.7160  -30.9480  105.0210 C.ar      1 LG21        0.0000 
      3 C3        -30.9690  -31.5920  105.3100 C.ar      1 LG21        0.0000 
      4 C4        -31.4400  -31.6350  106.7100 C.ar      1 LG21        0.0000 
      5 C5        -30.6130  -31.0310  107.7340 C.ar      1 LG21        0.0000 
      6 C6        -29.3450  -30.3830  107.4280 C.ar      1 LG21        0.0000 
      7 C7        -28.4950  -29.7370  108.5620 C.3       1 LG21        0.0000 
      8 C8        -27.4920  -28.7160  107.9760 C.3       1 LG21        0.0000 
      9 C9        -26.6740  -29.4460  106.8930 C.3       1 LG21        0.0000 
     10 C10       -27.5750  -29.6590  105.6520 C.3       1 LG21        0.0000 
     11 C11       -31.6820  -32.1470  104.1220 C.3       1 LG21        0.0000 
     12 C12       -32.6090  -31.1990  103.4150 C.ar      1 LG21        0.0000 
     13 N13       -32.7660  -29.9290  103.9350 N.ar      1 LG21        0.0000 
     14 C14       -33.5740  -29.0170  103.3130 C.ar      1 LG21        0.0000 
     15 C15       -34.2840  -29.3320  102.1030 C.ar      1 LG21        0.0000 
     16 C16       -34.1550  -30.6400  101.5420 C.ar      1 LG21        0.0000 
     17 C17       -33.3060  -31.5870  102.2000 C.ar      1 LG21        0.0000 
     18 C18       -35.1610  -28.2870  101.4210 C.2       1 LG21        0.0000 
     19 O19       -35.7560  -28.5550  100.3900 O.co2     1 LG21        0.0000 
     20 O20       -35.2810  -27.0540  101.9460 O.co2     1 LG21        0.0000 
     21 C21       -32.2710  -33.5350  104.3070 C.3       1 LG21        0.0000 
     22 C22       -31.0860  -33.3320  103.3910 C.3       1 LG21        0.0000 
     23 C23       -27.7130  -30.8430  109.2920 C.3       1 LG21        0.0000 
     24 C24       -29.3520  -29.0140  109.6060 C.3       1 LG21        0.0000 
     25 C25       -27.9170  -28.2960  105.0280 C.3       1 LG21        0.0000 
     26 C26       -26.7580  -30.4470  104.6230 C.3       1 LG21        0.0000 
     27 C27       -32.7380  -32.2640  107.1510 C.3       1 LG21        0.0000 
     28 H         -29.3906  -30.9165  104.0410 H         1 LG21        0.0000 
     29 H         -30.9278  -31.0587  108.7086 H         1 LG21        0.0000 
     30 H         -26.8369  -28.3775  108.7522 H         1 LG21        0.0000 
     31 H         -28.0312  -27.9048  107.5315 H         1 LG21        0.0000 
     32 H         -26.3566  -30.4032  107.2677 H         1 LG21        0.0000 
     33 H         -25.8274  -28.8428  106.6157 H         1 LG21        0.0000 
     34 H         -33.6976  -28.0626  103.7021 H         1 LG21        0.0000 
     35 H         -34.6489  -30.8911  100.7038 H         1 LG21        0.0000 
     36 H         -33.1865  -32.5166  101.8315 H         1 LG21        0.0000 
     37 H         -33.0500  -33.5919  103.7705 H         1 LG21        0.0000 
     38 H         -31.9501  -33.8774  105.1302 H         1 LG21        0.0000 
     39 H         -30.3048  -33.5999  103.8575 H         1 LG21        0.0000 
     40 H         -31.4048  -33.3144  102.4979 H         1 LG21        0.0000 
     41 H         -27.0995  -31.3341  108.6736 H         1 LG21        0.0000 
     42 H         -27.1499  -30.4736  110.0312 H         1 LG21        0.0000 
     43 H         -28.3234  -31.5221  109.6998 H         1 LG21        0.0000 
     44 H         -28.7926  -28.6056  110.3273 H         1 LG21        0.0000 
     45 H         -29.8895  -28.2757  109.1985 H         1 LG21        0.0000 
     46 H         -29.9971  -29.6349  110.0514 H         1 LG21        0.0000 
     47 H         -27.0955  -27.7982  104.7499 H         1 LG21        0.0000 
     48 H         -28.4902  -28.3934  104.2144 H         1 LG21        0.0000 
     49 H         -28.4131  -27.7087  105.6675 H         1 LG21        0.0000 
     50 H         -25.9033  -29.9819  104.3925 H         1 LG21        0.0000 
     51 H         -26.5151  -31.3568  104.9596 H         1 LG21        0.0000 
     52 H         -27.2615  -30.5754  103.7686 H         1 LG21        0.0000 
     53 H         -32.7752  -33.2371  106.9237 H         1 LG21        0.0000 
     54 H         -32.8703  -32.1886  108.1393 H         1 LG21        0.0000 
     55 H         -33.5273  -31.8310  106.7157 H         1 LG21        0.0000 
@<TRIPOS>BOND
     1    2    1 ar   
     2    6    1 ar   
     3   10    1 1    
     4    3    2 ar   
     5   28    2 1    
     6    4    3 ar   
     7   11    3 1    
     8    5    4 ar   
     9   27    4 1    
    10    6    5 ar   
    11   29    5 1    
    12    7    6 1    
    13    8    7 1    
    14   23    7 1    
    15   24    7 1    
    16    9    8 1    
    17   30    8 1    
    18   31    8 1    
    19   10    9 1    
    20   32    9 1    
    21   33    9 1    
    22   25   10 1    
    23   26   10 1    
    24   12   11 1    
    25   21   11 1    
    26   22   11 1    
    27   13   12 ar   
    28   17   12 ar   
    29   14   13 ar   
    30   15   14 ar   
    31   34   14 1    
    32   16   15 ar   
    33   18   15 1    
    34   17   16 ar   
    35   35   16 1    
    36   36   17 1    
    37   19   18 ar   
    38   20   18 ar   
    39   22   21 1    
    40   37   21 1    
    41   38   21 1    
    42   39   22 1    
    43   40   22 1    
    44   41   23 1    
    45   42   23 1    
    46   43   23 1    
    47   44   24 1    
    48   45   24 1    
    49   46   24 1    
    50   47   25 1    
    51   48   25 1    
    52   49   25 1    
    53   50   26 1    
    54   51   26 1    
    55   52   26 1    
    56   53   27 1    
    57   54   27 1    
    58   55   27 1    
@<TRIPOS>SUBSTRUCTURE
     1 LG21        1 GROUP   
@<TRIPOS>SET

