#    Name: 3EPP_2_CAVITY_N1_ALL.mol2
#    Modification time : Mon Mar 10 13:52:46 2014

@<TRIPOS>MOLECULE
3EPP_2_CAVITY_N1_ALL.mol2
  127     0     7     0     0
SMALL
NO_CHARGES


@<TRIPOS>ATOM
      1 CA          2.9424    5.7262  -17.8660 C.3       6 GLY6        0.0000 
      2 CA          2.1874    5.6676  -16.5712 C.3       6 GLY6        0.0000 
      3 O           2.6508    4.9285  -19.8099 O.2       2 ALA2        0.0000 
      4 CA          9.2321    9.5745  -12.2866 C.3       6 GLY6        0.0000 
      5 N           8.4771    9.5160  -10.9918 N.2       2 ALA2        0.0000 
      6 DU          8.1854    8.7183  -12.9357 H         7 CUB7        0.0000 
      7 DU          7.4304    8.6598  -11.6409 H         7 CUB7        0.0000 
      8 OG          5.6286    7.7451  -10.9952 O.2       1 SER1        0.0000 
      9 DU          5.3369    6.9474  -12.9391 H         7 CUB7        0.0000 
     10 OG          4.5819    6.8889  -11.6443 O.2       1 SER1        0.0000 
     11 DU          3.2434    5.2351  -14.2372 H         7 CUB7        0.0000 
     12 DU          4.4619    4.5544  -18.7707 H         7 CUB7        0.0000 
     13 DU          3.7068    4.4959  -17.4759 H         7 CUB7        0.0000 
     14 DU          2.9518    4.4374  -16.1811 H         7 CUB7        0.0000 
     15 DU          2.1967    4.3789  -14.8863 H         7 CUB7        0.0000 
     16 O           4.1702    3.7567  -20.7146 O.2       2 ALA2        0.0000 
     17 O           3.4151    3.6982  -19.4198 O.2       2 ALA2        0.0000 
     18 CA          2.6601    3.6397  -18.1250 C.3       6 GLY6        0.0000 
     19 CA          1.9050    3.5812  -16.8302 C.3       6 GLY6        0.0000 
     20 N           1.1500    3.5227  -15.5354 N.2       2 ALA2        0.0000 
     21 N           2.3684    2.8420  -20.0689 N.2       2 ALA2        0.0000 
     22 CA          9.9965    8.3442  -11.8965 C.3       6 GLY6        0.0000 
     23 N           9.2415    8.2857  -10.6017 N.2       2 ALA2        0.0000 
     24 N           8.4864    8.2272   -9.3069 N.2       2 ALA2        0.0000 
     25 CA          9.7048    7.5465  -13.8403 C.3       6 GLY6        0.0000 
     26 DU          8.9498    7.4880  -12.5456 H         7 CUB7        0.0000 
     27 OG          8.1947    7.4295  -11.2508 O.2       1 SER1        0.0000 
     28 NZ          7.4397    7.3710   -9.9560 N.2       4 LYS4        0.0000 
     29 DU          9.4131    6.7489  -15.7842 H         7 CUB7        0.0000 
     30 DU          8.6581    6.6904  -14.4894 H         7 CUB7        0.0000 
     31 DU          7.9030    6.6319  -13.1946 H         7 CUB7        0.0000 
     32 DU          7.1480    6.5733  -11.8998 H         7 CUB7        0.0000 
     33 OG          6.3930    6.5148  -10.6051 O.2       1 SER1        0.0000 
     34 OG          5.6379    6.4563   -9.3103 O.2       1 SER1        0.0000 
     35 DU          9.1215    5.9512  -17.7281 H         7 CUB7        0.0000 
     36 DU          6.8563    5.7757  -13.8437 H         7 CUB7        0.0000 
     37 DU          6.1013    5.7172  -12.5489 H         7 CUB7        0.0000 
     38 CA          5.3462    5.6587  -11.2541 C.3       6 GLY6        0.0000 
     39 N           4.5912    5.6001   -9.9593 N.2       2 ALA2        0.0000 
     40 DU          8.0747    5.0950  -18.3772 H         7 CUB7        0.0000 
     41 DU          5.8096    4.9195  -14.4928 H         7 CUB7        0.0000 
     42 CA          5.0545    4.8610  -13.1980 C.3       6 GLY6        0.0000 
     43 N           4.2995    4.8025  -11.9032 N.2       2 ALA2        0.0000 
     44 DU          6.2730    4.1803  -17.7315 H         7 CUB7        0.0000 
     45 DU          5.5179    4.1218  -16.4367 H         7 CUB7        0.0000 
     46 DU          4.7629    4.0633  -15.1419 H         7 CUB7        0.0000 
     47 CA          4.0078    4.0048  -13.8471 C.3       6 GLY6        0.0000 
     48 DU          5.9813    3.3827  -19.6753 H         7 CUB7        0.0000 
     49 DU          5.2262    3.3242  -18.3805 H         7 CUB7        0.0000 
     50 DU          4.4712    3.2656  -17.0858 H         7 CUB7        0.0000 
     51 N           3.7161    3.2071  -15.7910 N.2       2 ALA2        0.0000 
     52 N           2.9611    3.1486  -14.4962 N.2       2 ALA2        0.0000 
     53 N           2.2060    3.0901  -13.2014 N.2       2 ALA2        0.0000 
     54 CA          4.9345    2.5265  -20.3244 C.3       6 GLY6        0.0000 
     55 CA          4.1795    2.4680  -19.0296 C.3       6 GLY6        0.0000 
     56 N           3.4244    2.4095  -17.7348 N.2       2 ALA2        0.0000 
     57 N           2.6694    2.3509  -16.4401 N.2       2 ALA2        0.0000 
     58 N           1.9144    2.2924  -15.1453 N.2       2 ALA2        0.0000 
     59 O           3.1328    1.6118  -19.6787 O.2       2 ALA2        0.0000 
     60 N           2.3777    1.5533  -18.3839 N.2       2 ALA2        0.0000 
     61 N           1.6227    1.4948  -17.0891 N.2       2 ALA2        0.0000 
     62 CA         10.7609    7.1140  -11.5063 C.3       6 GLY6        0.0000 
     63 OG         10.0058    7.0555  -10.2115 O.2       1 SER1        0.0000 
     64 CA         11.9793    6.4333  -16.0398 C.3       6 GLY6        0.0000 
     65 CA         11.2242    6.3748  -14.7450 C.3       6 GLY6        0.0000 
     66 CA         10.4692    6.3163  -13.4502 C.3       6 GLY6        0.0000 
     67 OG          9.7141    6.2578  -12.1554 O.2       1 SER1        0.0000 
     68 OG          8.9591    6.1993  -10.8606 O.2       1 SER1        0.0000 
     69 CA         10.9326    5.5771  -16.6889 C.3       6 GLY6        0.0000 
     70 DU         10.1775    5.5186  -15.3941 H         7 CUB7        0.0000 
     71 DU          9.4225    5.4601  -14.0993 H         7 CUB7        0.0000 
     72 DU          8.6674    5.4016  -12.8045 H         7 CUB7        0.0000 
     73 OG          7.9124    5.3431  -11.5097 O.2       1 SER1        0.0000 
     74 OG          7.1573    5.2846  -10.2149 O.2       1 SER1        0.0000 
     75 N           6.4023    5.2261   -8.9201 N.2       2 ALA2        0.0000 
     76 CA          9.8858    4.7210  -17.3379 C.3       6 GLY6        0.0000 
     77 DU          8.3757    4.6039  -14.7484 H         7 CUB7        0.0000 
     78 CZ          7.6207    4.5454  -13.4536 C.ar      5 PHE5        0.0000 
     79 CA          6.8656    4.4869  -12.1588 C.3       6 GLY6        0.0000 
     80 CA          6.1106    4.4284  -10.8640 C.3       6 GLY6        0.0000 
     81 N           5.3555    4.3699   -9.5692 N.2       2 ALA2        0.0000 
     82 CA          9.5941    3.9233  -19.2818 C.3       6 GLY6        0.0000 
     83 DU          8.8391    3.8648  -17.9870 H         7 CUB7        0.0000 
     84 DU          8.0841    3.8063  -16.6922 H         7 CUB7        0.0000 
     85 CZ          7.3290    3.7477  -15.3975 C.ar      5 PHE5        0.0000 
     86 CZ          6.5740    3.6892  -14.1027 C.ar      5 PHE5        0.0000 
     87 DU          8.5474    3.0671  -19.9309 H         7 CUB7        0.0000 
     88 OD1         7.7924    3.0086  -18.6361 O.3       3 ASP3        0.0000 
     89 OD1         7.0373    2.9501  -17.3413 O.3       3 ASP3        0.0000 
     90 CZ          6.2823    2.8916  -16.0465 C.ar      5 PHE5        0.0000 
     91 CA          7.5007    2.2109  -20.5800 C.3       6 GLY6        0.0000 
     92 OD1         6.7456    2.1524  -19.2852 O.3       3 ASP3        0.0000 
     93 OD1         5.9906    2.0939  -17.9904 O.3       3 ASP3        0.0000 
     94 OD1         5.2355    2.0354  -16.6956 O.3       3 ASP3        0.0000 
     95 N           4.4805    1.9769  -15.4008 N.2       2 ALA2        0.0000 
     96 CA          5.6989    1.2962  -19.9343 C.3       6 GLY6        0.0000 
     97 OD1         4.9439    1.2377  -18.6395 O.3       3 ASP3        0.0000 
     98 OD1         4.1888    1.1792  -17.3447 O.3       3 ASP3        0.0000 
     99 N           3.4338    1.1207  -16.0499 N.2       2 ALA2        0.0000 
    100 CA          3.8971    0.3815  -19.2886 C.3       6 GLY6        0.0000 
    101 NZ          3.1421    0.3230  -17.9938 N.2       4 LYS4        0.0000 
    102 NZ          2.3870    0.2645  -16.6990 N.2       4 LYS4        0.0000 
    103 N           1.6320    0.2060  -15.4042 N.2       2 ALA2        0.0000 
    104 CA         12.2803    5.9422  -12.4110 C.3       6 GLY6        0.0000 
    105 OG         11.5252    5.8837  -11.1162 O.2       1 SER1        0.0000 
    106 O          11.9886    5.1445  -14.3549 O.2       2 ALA2        0.0000 
    107 O          11.2336    5.0860  -13.0601 O.2       2 ALA2        0.0000 
    108 OG         10.4785    5.0275  -11.7653 O.2       1 SER1        0.0000 
    109 CA         11.6969    4.3469  -16.2987 C.3       6 GLY6        0.0000 
    110 O          10.9419    4.2884  -15.0039 O.2       2 ALA2        0.0000 
    111 O          10.1868    4.2299  -13.7091 O.2       2 ALA2        0.0000 
    112 OG          9.4318    4.1713  -12.4144 O.2       1 SER1        0.0000 
    113 N          10.6502    3.4907  -16.9478 N.2       2 ALA2        0.0000 
    114 CA          9.8951    3.4322  -15.6530 C.3       6 GLY6        0.0000 
    115 CZ          9.1401    3.3737  -14.3582 C.ar      5 PHE5        0.0000 
    116 CZ          8.3851    3.3152  -13.0634 C.ar      5 PHE5        0.0000 
    117 N          10.3585    2.6930  -18.8917 N.2       2 ALA2        0.0000 
    118 N           9.6035    2.6345  -17.5969 N.2       2 ALA2        0.0000 
    119 DU          8.8484    2.5760  -16.3021 H         7 CUB7        0.0000 
    120 CZ          8.0934    2.5175  -15.0073 C.ar      5 PHE5        0.0000 
    121 N           9.3118    1.8368  -19.5408 N.2       2 ALA2        0.0000 
    122 OD1         8.5567    1.7783  -18.2460 O.3       3 ASP3        0.0000 
    123 OD1         7.8017    1.7198  -16.9512 O.3       3 ASP3        0.0000 
    124 CZ          7.0466    1.6613  -15.6564 C.ar      5 PHE5        0.0000 
    125 CA          9.9045    2.1434  -13.9681 C.3       6 GLY6        0.0000 
    126 O          10.3678    1.4043  -17.2067 O.2       2 ALA2        0.0000 
    127 CA          9.6128    1.3457  -15.9120 C.3       6 GLY6        0.0000 
@<TRIPOS>BOND
@<TRIPOS>SUBSTRUCTURE
     1 SER1        8 GROUP   
     2 ALA2        3 GROUP   
     3 ASP3       88 GROUP   
     4 LYS4       28 GROUP   
     5 PHE5       78 GROUP   
     6 GLY6        1 GROUP   
     7 CUB7        6 GROUP   
@<TRIPOS>SET

