#    Name: 3epp_SFG_2_INTS_M
#    Modification time : Tue Mar 25 02:16:36 2014

@<TRIPOS>MOLECULE
3epp_SFG_2_INTS_M
   62     0    12     0     0
SMALL
NO_CHARGES


@<TRIPOS>ATOM
      1 O           0.4590    1.2875  -15.5235 O.2       1 ALC1        0.0000 
      2 O           1.7980    0.9250  -15.7320 O.2       9 ALL1        0.0000 
      3 O          -0.8800    1.6500  -15.3150 O.2       5 ALP1        0.0000 
      4 O           2.4055    0.6970  -14.3585 O.2       1 ALC1        0.0000 
      5 O           3.0130    0.4690  -12.9850 O.2       5 ALP1        0.0000 
      6 NZ          5.5705    0.1225  -17.0065 N.4       3 LYC4        0.0000 
      7 NZ          4.5710    0.8930  -16.1050 N.4      11 LYL4        0.0000 
      8 NZ          6.5700   -0.6480  -17.9080 N.4       7 LYP4        0.0000 
      9 N           5.5705    0.1225  -17.0065 N.am      2 SEC2        0.0000 
     10 N           4.5710    0.8930  -16.1050 N.am     10 SEL2        0.0000 
     11 N           6.5700   -0.6480  -17.9080 N.am      6 SEP2        0.0000 
     12 NZ          5.4545    0.7925  -17.8125 N.4       3 LYC4        0.0000 
     13 NZ          4.3390    2.2330  -17.7170 N.4      11 LYL4        0.0000 
     14 CA          3.9185    2.5300  -13.0435 C.3       4 GLC5        0.0000 
     15 CA          2.8460    2.9690  -14.8560 C.3      12 GLL5        0.0000 
     16 CA          4.9910    2.0910  -11.2310 C.3       8 GLP5        0.0000 
     17 CA          3.6830    3.4285  -12.2775 C.3       4 GLC5        0.0000 
     18 CA          2.3750    4.7660  -13.3240 C.3      12 GLL5        0.0000 
     19 O          -2.0120    5.2920  -16.0315 O.2       1 ALC1        0.0000 
     20 O          -0.9830    6.1850  -15.7370 O.2       9 ALL1        0.0000 
     21 O          -3.0410    4.3990  -16.3260 O.2       5 ALP1        0.0000 
     22 O          -3.2090    7.1255  -15.3600 O.2       1 ALC1        0.0000 
     23 O          -2.4450    7.8820  -14.3520 O.2       9 ALL1        0.0000 
     24 O          -3.9730    6.3690  -16.3680 O.2       5 ALP1        0.0000 
     25 CA         -2.6755    3.6525  -13.7900 C.3       4 GLC5        0.0000 
     26 CA         -2.2790    5.6500  -13.2290 C.3      12 GLL5        0.0000 
     27 CA         -3.0720    1.6550  -14.3510 C.3       8 GLP5        0.0000 
     28 CA         -2.0770    4.0685  -11.9355 C.3       4 GLC5        0.0000 
     29 CA         -1.8750    2.4870  -10.6420 C.3       8 GLP5        0.0000 
     30 CA         -6.6550    6.1280  -11.6935 C.3       4 GLC5        0.0000 
     31 CA         -6.1960    4.8820  -10.2170 C.3      12 GLL5        0.0000 
     32 CA         -7.1140    7.3740  -13.1700 C.3       8 GLP5        0.0000 
     33 CA         -8.2780    5.1400  -10.6835 C.3       4 GLC5        0.0000 
     34 CA        -10.3600    5.3980  -11.1500 C.3       8 GLP5        0.0000 
     35 O          -8.0735    5.5135   -8.7635 O.2       1 ALC1        0.0000 
     36 O          -6.7100    5.2160   -9.0260 O.2       9 ALL1        0.0000 
     37 O          -9.4370    5.8110   -8.5010 O.2       5 ALP1        0.0000 
     38 N          -8.2060    3.6100  -10.8075 N.am      2 SEC2        0.0000 
     39 N          -6.8530    4.0440  -11.0550 N.am     10 SEL2        0.0000 
     40 N          -9.5590    3.1760  -10.5600 N.am      6 SEP2        0.0000 
     41 CA         -4.6915    2.6880  -13.3105 C.3       4 GLC5        0.0000 
     42 CA         -6.3110    3.7210  -12.2700 C.3      12 GLL5        0.0000 
     43 CA         -6.2630    3.8270  -14.3520 C.3       4 GLC5        0.0000 
     44 CA         -6.2150    3.9330  -16.4340 C.3       8 GLP5        0.0000 
     45 CA         -6.7125    5.5475  -12.7200 C.3       4 GLC5        0.0000 
     46 CA         -7.5175    2.2850  -11.4385 C.3       4 GLC5        0.0000 
     47 CA         -8.7240    0.8490  -10.6070 C.3       8 GLP5        0.0000 
     48 CA         -5.8415    2.7210  -10.5755 C.3       4 GLC5        0.0000 
     49 CA         -5.3720    1.7210   -8.8810 C.3       8 GLP5        0.0000 
     50 CA         -3.7235    3.3630  -13.1535 C.3       4 GLC5        0.0000 
     51 CA         -4.3750    5.0710  -11.9560 C.3      12 GLL5        0.0000 
     52 CA          1.5518    5.6465  -11.1740 C.3       4 GLC5        0.0000 
     53 CA          1.0900    5.3620  -12.7780 C.3      12 GLL5        0.0000 
     54 CA          1.3710    6.2290   -9.2970 C.3       8 GLP5        0.0000 
     55 CA          0.2023    3.2373  -12.5533 C.3       4 GLC5        0.0000 
     56 CA         -0.1010    1.2080  -11.8590 C.3       8 GLP5        0.0000 
     57 CA         -3.8213    7.1485  -13.2790 C.3       4 GLC5        0.0000 
     58 CA         -5.6960    7.9800  -13.1390 C.3       8 GLP5        0.0000 
     59 CA         -5.1642    6.6190  -12.2142 C.3       4 GLC5        0.0000 
     60 CA         -3.2538    3.8725  -10.9657 C.3       4 GLC5        0.0000 
     61 CA         -5.4575    3.4423   -9.6505 C.3       4 GLC5        0.0000 
     62 CA         -4.8900    5.4450  -10.6230 C.3      12 GLL5        0.0000 
@<TRIPOS>BOND
@<TRIPOS>SUBSTRUCTURE
     1 ALC1        1 GROUP        1 X    ALC  0     ROOT ALC X 1
     2 SEC2        9 GROUP        1 X    SEC  0     **** SEC X 2
     3 LYC4        6 GROUP        1 X    LYC  0     **** LYC X 4
     4 GLC5       14 GROUP        1 X    GLC  0     **** GLC X 6
     5 ALP1        3 GROUP        1 Y    ALP  0     ROOT ALP Y 8
     6 SEP2       11 GROUP        1 Y    SEP  0     **** SEP Y 9
     7 LYP4        8 GROUP        1 Y    LYP  0     **** LYP Y 11
     8 GLP5       16 GROUP        1 Y    GLP  0     **** GLP Y 13
     9 ALL1        2 GROUP        1 Z    ALL  0     ROOT ALL Z 15
    10 SEL2       10 GROUP        1 Z    SEL  0     **** SEL Z 16
    11 LYL4        7 GROUP        1 Z    LYL  0     **** LYL Z 18
    12 GLL5       15 GROUP        1 Z    GLL  0     **** GLL Z 20
@<TRIPOS>SET

