#    Name: 3epp_SFG_2_ligand
#    Modification time : Tue Mar 25 02:16:36 2014

@<TRIPOS>MOLECULE
3epp_SFG_2_ligand
   48    50     1     0     0
SMALL
NO_CHARGES


@<TRIPOS>ATOM
      1 N           1.7980    0.9250  -15.7320 N.4       1 SFG401      0.0000 
      2 CA          2.5580    2.1440  -16.1080 C.3       1 SFG401      0.0000 
      3 C           3.8860    1.7360  -16.6760 C.2       1 SFG401      0.0000 
      4 O           4.5710    0.8930  -16.1050 O.co2     1 SFG401      0.0000 
      5 OXT         4.3390    2.2330  -17.7170 O.co2     1 SFG401      0.0000 
      6 CB          2.8460    2.9690  -14.8560 C.3       1 SFG401      0.0000 
      7 CG          2.3080    4.3800  -14.8020 C.3       1 SFG401      0.0000 
      8 CD          2.3750    4.7660  -13.3240 C.3       1 SFG401      0.0000 
      9 NE          3.5220    5.6000  -13.0010 N.3       1 SFG401      0.0000 
     10 C5'         1.0900    5.3620  -12.7780 C.3       1 SFG401      0.0000 
     11 C4'        -0.0790    5.1710  -13.7170 C.3       1 SFG401      0.0000 
     12 O4'        -1.1850    4.7740  -12.9260 O.3       1 SFG401      0.0000 
     13 C3'        -0.4690    6.4770  -14.4350 C.3       1 SFG401      0.0000 
     14 O3'        -0.9830    6.1850  -15.7370 O.3       1 SFG401      0.0000 
     15 C2'        -1.6140    6.9840  -13.6090 C.3       1 SFG401      0.0000 
     16 O2'        -2.4450    7.8820  -14.3520 O.3       1 SFG401      0.0000 
     17 C1'        -2.2790    5.6500  -13.2290 C.3       1 SFG401      0.0000 
     18 N9         -3.1960    5.7160  -12.0710 N.pl3     1 SFG401      0.0000 
     19 C8         -2.9630    6.4440  -10.9580 C.2       1 SFG401      0.0000 
     20 N7         -3.9770    6.2920  -10.0760 N.2       1 SFG401      0.0000 
     21 C5         -4.8900    5.4450  -10.6230 C.ar      1 SFG401      0.0000 
     22 C6         -6.1960    4.8820  -10.2170 C.ar      1 SFG401      0.0000 
     23 N6         -6.7100    5.2160   -9.0260 N.pl3     1 SFG401      0.0000 
     24 N1         -6.8530    4.0440  -11.0550 N.ar      1 SFG401      0.0000 
     25 C2         -6.3110    3.7210  -12.2700 C.ar      1 SFG401      0.0000 
     26 N3         -5.1290    4.2080  -12.7150 N.ar      1 SFG401      0.0000 
     27 C4         -4.3750    5.0710  -11.9560 C.ar      1 SFG401      0.0000 
     28 H           2.0291    2.7309  -16.8023 H         1 SFG401      0.0000 
     29 H           3.9573    3.0005  -14.7060 H         1 SFG401      0.0000 
     30 H           2.4618    2.4020  -13.9676 H         1 SFG401      0.0000 
     31 H           1.2937    4.3999  -15.1286 H         1 SFG401      0.0000 
     32 H           2.9311    5.0334  -15.3683 H         1 SFG401      0.0000 
     33 H           2.5134    3.7846  -12.7604 H         1 SFG401      0.0000 
     34 H           1.2403    6.4352  -12.5984 H         1 SFG401      0.0000 
     35 H           0.8598    4.8939  -11.8112 H         1 SFG401      0.0000 
     36 H           0.1631    4.4355  -14.4469 H         1 SFG401      0.0000 
     37 H           0.3163    7.1397  -14.4097 H         1 SFG401      0.0000 
     38 H          -1.2065    7.4006  -12.7141 H         1 SFG401      0.0000 
     39 H          -2.7959    5.2841  -14.1059 H         1 SFG401      0.0000 
     40 H          -2.1744    7.0017  -10.8096 H         1 SFG401      0.0000 
     41 H          -7.7080    5.2205   -8.9631 H         1 SFG401      0.0000 
     42 H          -6.0497    5.4309   -8.3064 H         1 SFG401      0.0000 
     43 H          -6.8523    3.0514  -12.8926 H         1 SFG401      0.0000 
     44 H           2.0340    0.1462  -16.3132 H         1 SFG401      0.0000 
     45 H           1.9788    0.6512  -14.7874 H         1 SFG401      0.0000 
     46 H           0.8109    1.0629  -15.8134 H         1 SFG401      0.0000 
     47 H          -1.6959    5.5002  -15.5861 H         1 SFG401      0.0000 
     48 H          -2.9432    7.3009  -14.9955 H         1 SFG401      0.0000 
@<TRIPOS>BOND
     1    2    1 1    
     2   44    1 1    
     3   45    1 1    
     4   46    1 1    
     5    3    2 1    
     6    6    2 1    
     7   28    2 1    
     8    4    3 ar   
     9    5    3 ar   
    10    7    6 1    
    11   29    6 1    
    12   30    6 1    
    13    8    7 1    
    14   31    7 1    
    15   32    7 1    
    16    9    8 1    
    17   10    8 1    
    18   33    8 1    
    19   11   10 1    
    20   34   10 1    
    21   35   10 1    
    22   12   11 1    
    23   13   11 1    
    24   36   11 1    
    25   17   12 1    
    26   14   13 1    
    27   15   13 1    
    28   37   13 1    
    29   47   14 1    
    30   16   15 1    
    31   17   15 1    
    32   38   15 1    
    33   48   16 1    
    34   18   17 1    
    35   39   17 1    
    36   19   18 1    
    37   27   18 1    
    38   20   19 2    
    39   40   19 1    
    40   21   20 1    
    41   22   21 ar   
    42   27   21 ar   
    43   23   22 1    
    44   24   22 ar   
    45   41   23 1    
    46   42   23 1    
    47   25   24 ar   
    48   26   25 ar   
    49   43   25 1    
    50   27   26 ar   
@<TRIPOS>SUBSTRUCTURE
     1 SFG401      1 GROUP   
@<TRIPOS>SET

