#    Name: 1m8d_CLW_1_INTS_M
#    Modification time : Tue Mar 25 11:26:55 2014

@<TRIPOS>MOLECULE
1m8d_CLW_1_INTS_M
   23     0     9     0     0
SMALL
NO_CHARGES


@<TRIPOS>ATOM
      1 CA        126.7240  116.0765   31.5080 C.3       3 GLC5        0.0000 
      2 CA        126.0310  114.4120   30.6790 C.3       9 GLL5        0.0000 
      3 CA        127.4170  117.7410   32.3370 C.3       6 GLP5        0.0000 
      4 CA        127.7680  114.8960   29.7220 C.3       3 GLC5        0.0000 
      5 CA        129.5050  115.3800   28.7650 C.3       6 GLP5        0.0000 
      6 CA        126.7030  111.1810   32.9240 C.3       3 GLC5        0.0000 
      7 CA        127.3530  112.0510   31.2180 C.3       9 GLL5        0.0000 
      8 CA        126.0530  110.3110   34.6300 C.3       6 GLP5        0.0000 
      9 CA        128.1795  110.6015   31.4410 C.3       3 GLC5        0.0000 
     10 CA        129.0060  109.1520   31.6640 C.3       6 GLP5        0.0000 
     11 CA        129.1270  112.6505   31.3880 C.3       3 GLC5        0.0000 
     12 CA        130.9010  113.2500   31.5580 C.3       6 GLP5        0.0000 
     13 O         125.2580  117.2565   29.7325 O.2       1 ALC1        0.0000 
     14 O         124.4900  116.4450   30.4540 O.2       7 ALL1        0.0000 
     15 O         126.0260  118.0680   29.0110 O.2       4 ALP1        0.0000 
     16 N         122.6830  119.0450   30.0160 N.am      2 SEC2        0.0000 
     17 N         122.6580  117.7200   30.7480 N.am      8 SEL2        0.0000 
     18 N         122.7080  120.3700   29.2840 N.am      5 SEP2        0.0000 
     19 CA        125.7325  111.5825   33.1600 C.3       3 GLC5        0.0000 
     20 CA        125.9810  113.0750   31.3320 C.3       9 GLL5        0.0000 
     21 CA        125.4768  116.1103   32.3942 C.3       3 GLC5        0.0000 
     22 CA        123.7370  114.7170   31.5960 C.3       9 GLL5        0.0000 
     23 CA        126.6900  117.2540   33.5510 C.3       6 GLP5        0.0000 
@<TRIPOS>BOND
@<TRIPOS>SUBSTRUCTURE
     1 ALC1       13 GROUP        1 X    ALC  0     ROOT ALC X 1
     2 SEC2       16 GROUP        1 X    SEC  0     **** SEC X 2
     3 GLC5        1 GROUP        1 X    GLC  0     **** GLC X 6
     4 ALP1       15 GROUP        1 Y    ALP  0     ROOT ALP Y 8
     5 SEP2       18 GROUP        1 Y    SEP  0     **** SEP Y 9
     6 GLP5        3 GROUP        1 Y    GLP  0     **** GLP Y 13
     7 ALL1       14 GROUP        1 Z    ALL  0     ROOT ALL Z 15
     8 SEL2       17 GROUP        1 Z    SEL  0     **** SEL Z 16
     9 GLL5        2 GROUP        1 Z    GLL  0     **** GLL Z 20
@<TRIPOS>SET

