#    Name: 1m8d_CLW_1_ligand
#    Modification time : Tue Mar 25 11:26:55 2014

@<TRIPOS>MOLECULE
1m8d_CLW_1_ligand
   15    16     1     0     0
SMALL
NO_CHARGES


@<TRIPOS>ATOM
      1 C1        124.8430  112.6330   32.0480 C.ar      1 CLW906      0.0000 
      2 C2        123.7080  113.4410   32.1910 C.ar      1 CLW906      0.0000 
      3 C3        123.7370  114.7170   31.5960 C.ar      1 CLW906      0.0000 
      4 C4        124.7900  115.2160   30.8790 C.ar      1 CLW906      0.0000 
      5 C5        126.0310  114.4120   30.6790 C.ar      1 CLW906      0.0000 
      6 C6        125.9810  113.0750   31.3320 C.ar      1 CLW906      0.0000 
      7 CL1       127.3530  112.0510   31.2180 Cl        1 CLW906      0.0000 
      8 O1        122.7580  115.7020   31.6000 O.3       1 CLW906      0.0000 
      9 C7        123.2480  116.7170   30.9140 C.2       1 CLW906      0.0000 
     10 N1        124.4900  116.4450   30.4540 N.am      1 CLW906      0.0000 
     11 O2        122.6580  117.7200   30.7480 O.2       1 CLW906      0.0000 
     12 H         124.8561  111.6910   32.4729 H         1 CLW906      0.0000 
     13 H         122.8992  113.1245   32.6999 H         1 CLW906      0.0000 
     14 H         126.7759  114.7230   30.1852 H         1 CLW906      0.0000 
     15 H         125.0371  117.0262   29.9283 H         1 CLW906      0.0000 
@<TRIPOS>BOND
     1    2    1 ar   
     2    6    1 ar   
     3   12    1 1    
     4    3    2 ar   
     5   13    2 1    
     6    4    3 ar   
     7    8    3 1    
     8    5    4 ar   
     9   10    4 1    
    10    6    5 ar   
    11   14    5 1    
    12    7    6 1    
    13    9    8 1    
    14   10    9 am   
    15   11    9 2    
    16   15   10 1    
@<TRIPOS>SUBSTRUCTURE
     1 CLW906      1 GROUP   
@<TRIPOS>SET

