#    Name: 4DE3_1_CAVITY_N1_6.mol2
#    Modification time : Mon Mar 10 13:48:19 2014

@<TRIPOS>MOLECULE
4DE3_1_CAVITY_N1_6.mol2
   87     0     6     0     0
SMALL
NO_CHARGES


@<TRIPOS>ATOM
      1 CA         -8.9691   56.8599    8.3911 C.3       5 GLY6        0.0000 
      2 CA         -9.6831   57.2894    9.6384 C.3       5 GLY6        0.0000 
      3 CA        -10.3971   57.7190   10.8856 C.3       5 GLY6        0.0000 
      4 N         -11.1111   58.1486   12.1329 N.2       2 ALA2        0.0000 
      5 DU         -9.5200   55.9109   10.2066 H         6 CUB7        0.0000 
      6 O         -10.2340   56.3404   11.4538 O.2       2 ALA2        0.0000 
      7 O         -10.9480   56.7700   12.7011 O.2       2 ALA2        0.0000 
      8 CA         -9.0881   58.1252   11.4951 C.3       5 GLY6        0.0000 
      9 CA         -7.4969   55.8874    9.5688 C.3       5 GLY6        0.0000 
     10 N          -8.2109   56.3170   10.8161 N.2       2 ALA2        0.0000 
     11 O          -8.9249   56.7466   12.0633 O.2       2 ALA2        0.0000 
     12 O          -9.6390   57.1762   13.3106 O.2       2 ALA2        0.0000 
     13 OG         -7.3338   54.5088   10.1371 O.2       1 SER1        0.0000 
     14 DU         -8.0478   54.9384   11.3843 H         6 CUB7        0.0000 
     15 O          -8.7618   55.3680   12.6316 O.2       2 ALA2        0.0000 
     16 DU         -7.1706   53.1302   10.7053 H         6 CUB7        0.0000 
     17 DU         -7.8847   53.5598   11.9525 H         6 CUB7        0.0000 
     18 O          -8.5987   53.9894   13.1998 O.2       2 ALA2        0.0000 
     19 CA         -7.7215   52.1812   12.5207 C.3       5 GLY6        0.0000 
     20 CA         -8.4355   52.6108   13.7680 C.3       5 GLY6        0.0000 
     21 NZ        -11.1553   58.2619    8.4606 N.2       3 LYS4        0.0000 
     22 O         -12.4202   57.7425   11.5233 O.2       2 ALA2        0.0000 
     23 O         -12.2570   56.3639   12.0916 O.2       2 ALA2        0.0000 
     24 CA         -0.5506   54.0088    6.9766 C.3       5 GLY6        0.0000 
     25 CA         -0.3875   52.6302    7.5448 C.3       5 GLY6        0.0000 
     26 OG         -1.1015   53.0598    8.7921 O.2       1 SER1        0.0000 
     27 OG         -1.8155   53.4894   10.0393 O.2       1 SER1        0.0000 
     28 OG         -2.5295   53.9190   11.2865 O.2       1 SER1        0.0000 
     29 O          -3.2435   54.3486   12.5338 O.2       2 ALA2        0.0000 
     30 CA         -0.2243   51.2516    8.1130 C.3       5 GLY6        0.0000 
     31 DU         -0.9383   51.6812    9.3603 H         6 CUB7        0.0000 
     32 OG         -1.6524   52.1108   10.6075 O.2       1 SER1        0.0000 
     33 OG         -2.3664   52.5404   11.8548 O.2       1 SER1        0.0000 
     34 OG         -3.0804   52.9700   13.1020 O.2       1 SER1        0.0000 
     35 O          -0.0612   49.8731    8.6812 O.2       2 ALA2        0.0000 
     36 DU         -0.7752   50.3026    9.9285 H         6 CUB7        0.0000 
     37 DU         -1.4892   50.7322   11.1757 H         6 CUB7        0.0000 
     38 CA         -2.2032   51.1618   12.4230 C.3       5 GLY6        0.0000 
     39 CA         -2.9173   51.5914   13.6702 C.3       5 GLY6        0.0000 
     40 O           0.1019   48.4945    9.2495 O.2       2 ALA2        0.0000 
     41 CA         -0.6121   48.9241   10.4967 C.3       5 GLY6        0.0000 
     42 CA         -1.3261   49.3536   11.7440 C.3       5 GLY6        0.0000 
     43 CA         -2.0401   49.7832   12.9912 C.3       5 GLY6        0.0000 
     44 CA         -1.1630   47.9751   12.3122 C.3       5 GLY6        0.0000 
     45 CA          0.9216   53.0364    8.1543 C.3       5 GLY6        0.0000 
     46 CA          0.2075   53.4660    9.4016 C.3       5 GLY6        0.0000 
     47 N          -0.5065   53.8955   10.6488 N.2       2 ALA2        0.0000 
     48 CA         -1.2205   54.3251   11.8961 C.3       5 GLY6        0.0000 
     49 CA          1.0847   51.6578    8.7225 C.3       5 GLY6        0.0000 
     50 OG          0.3707   52.0874    9.9698 O.2       1 SER1        0.0000 
     51 OG         -0.3433   52.5170   11.2170 O.2       1 SER1        0.0000 
     52 OG         -1.0574   52.9465   12.4643 O.2       1 SER1        0.0000 
     53 N           1.2478   50.2792    9.2908 N.2       2 ALA2        0.0000 
     54 N           0.5338   50.7088   10.5380 N.2       2 ALA2        0.0000 
     55 OG         -0.1802   51.1384   11.7852 O.2       1 SER1        0.0000 
     56 OG         -0.8942   51.5680   13.0325 O.2       1 SER1        0.0000 
     57 OG         -6.0247   54.9149   10.7466 O.2       1 SER1        0.0000 
     58 N          -6.7388   55.3445   11.9938 N.2       2 ALA2        0.0000 
     59 O          -7.4528   55.7741   13.2411 O.2       2 ALA2        0.0000 
     60 OG         -5.1476   53.1068   10.0675 O.2       1 SER1        0.0000 
     61 OG         -5.8616   53.5363   11.3148 O.2       1 SER1        0.0000 
     62 DU         -6.5756   53.9659   12.5620 H         6 CUB7        0.0000 
     63 O          -7.2896   54.3955   13.8093 O.2       2 ALA2        0.0000 
     64 OG         -4.9844   51.7282   10.6358 O.2       1 SER1        0.0000 
     65 DU         -5.6985   52.1578   11.8830 H         6 CUB7        0.0000 
     66 CZ         -6.4125   52.5873   13.1303 C.ar      4 PHE5        0.0000 
     67 O          -7.1265   53.0169   14.3775 O.2       2 ALA2        0.0000 
     68 CZ         -5.5353   50.7792   12.4512 C.ar      4 PHE5        0.0000 
     69 OG         -1.8596   53.6027    6.3671 O.2       1 SER1        0.0000 
     70 N          -5.4297   55.7507   12.6033 N.2       2 ALA2        0.0000 
     71 OG         -1.6965   52.2241    6.9353 O.2       1 SER1        0.0000 
     72 OG         -2.4105   52.6537    8.1825 O.2       1 SER1        0.0000 
     73 OG         -4.5526   53.9425   11.9243 O.2       1 SER1        0.0000 
     74 OG         -5.2666   54.3721   13.1715 O.2       1 SER1        0.0000 
     75 N          -5.9806   54.8017   14.4188 N.2       2 ALA2        0.0000 
     76 O          -1.5334   50.8455    7.5035 O.2       2 ALA2        0.0000 
     77 OG         -2.2474   51.2751    8.7508 O.2       1 SER1        0.0000 
     78 OG         -2.9614   51.7047    9.9980 O.2       1 SER1        0.0000 
     79 OG         -3.6754   52.1343   11.2453 O.2       1 SER1        0.0000 
     80 DU         -4.3894   52.5639   12.4925 H         6 CUB7        0.0000 
     81 N          -5.1035   52.9935   13.7398 N.2       2 ALA2        0.0000 
     82 DU         -2.0842   49.8965    9.3190 H         6 CUB7        0.0000 
     83 DU         -2.7983   50.3261   10.5662 H         6 CUB7        0.0000 
     84 DU         -3.5123   50.7557   11.8135 H         6 CUB7        0.0000 
     85 CZ         -4.2263   51.1853   13.0607 C.ar      4 PHE5        0.0000 
     86 CZ         -4.9403   51.6149   14.3080 C.ar      4 PHE5        0.0000 
     87 OG         -3.3491   49.3771   12.3817 O.2       1 SER1        0.0000 
@<TRIPOS>BOND
@<TRIPOS>SUBSTRUCTURE
     1 SER1       13 GROUP   
     2 ALA2        4 GROUP   
     3 LYS4       21 GROUP   
     4 PHE5       66 GROUP   
     5 GLY6        1 GROUP   
     6 CUB7        5 GROUP   
@<TRIPOS>SET

