#    Name: 4de3_DN8_1_INTS_M
#    Modification time : Tue Mar 25 09:38:35 2014

@<TRIPOS>MOLECULE
4de3_DN8_1_INTS_M
   44     0     9     0     0
SMALL
NO_CHARGES


@<TRIPOS>ATOM
      1 N         -10.2275   55.1280   13.4300 N.am      2 SEC2        0.0000 
      2 N          -8.8980   55.8690   13.4010 N.am      8 SEL2        0.0000 
      3 N         -11.5570   54.3870   13.4590 N.am      5 SEP2        0.0000 
      4 N          -8.8060   55.2820   14.8400 N.am      2 SEC2        0.0000 
      5 N          -8.7140   54.6950   16.2790 N.am      5 SEP2        0.0000 
      6 CA         -8.9950   59.1040    7.6615 C.3       3 GLC5        0.0000 
      7 CA         -9.6910   57.6170    9.0100 C.3       9 GLL5        0.0000 
      8 CA         -8.2990   60.5910    6.3130 C.3       6 GLP5        0.0000 
      9 CA        -11.1165   57.4610   13.6330 C.3       3 GLC5        0.0000 
     10 CA        -10.2150   57.7410   11.7670 C.3       9 GLL5        0.0000 
     11 CA        -12.0180   57.1810   15.4990 C.3       6 GLP5        0.0000 
     12 CA        -11.9785   60.8005   13.4890 C.3       3 GLC5        0.0000 
     13 CA        -12.0240   59.9130   11.5790 C.3       9 GLL5        0.0000 
     14 CA        -11.9330   61.6880   15.3990 C.3       6 GLP5        0.0000 
     15 CA        -12.0580   61.8690   11.5595 C.3       3 GLC5        0.0000 
     16 CA        -12.0920   63.8250   11.5400 C.3       6 GLP5        0.0000 
     17 CA        -10.0830   60.0035    8.0325 C.3       3 GLC5        0.0000 
     18 CA        -10.5960   58.5780    9.5220 C.3       9 GLL5        0.0000 
     19 CA         -9.5700   61.4290    6.5430 C.3       6 GLP5        0.0000 
     20 CA         -3.4250   52.1545   15.0985 C.3       3 GLC5        0.0000 
     21 CA         -4.8380   52.9950   14.0690 C.3       9 GLL5        0.0000 
     22 CA         -2.0120   51.3140   16.1280 C.3       6 GLP5        0.0000 
     23 N          -3.1140   54.4740   10.2455 N.am      2 SEC2        0.0000 
     24 N          -2.5220   53.9710   11.4090 N.am      8 SEL2        0.0000 
     25 N          -3.7060   54.9770    9.0820 N.am      5 SEP2        0.0000 
     26 N           0.2710   53.1850   12.1325 N.am      2 SEC2        0.0000 
     27 N          -1.1770   53.7360   11.4080 N.am      8 SEL2        0.0000 
     28 N           1.7190   52.6340   12.8570 N.am      5 SEP2        0.0000 
     29 N           0.4105   52.8690   12.7115 N.am      2 SEC2        0.0000 
     30 N          -0.8980   53.1040   12.5660 N.am      8 SEL2        0.0000 
     31 O          -2.0540   52.8905   14.6030 O.2       1 ALC1        0.0000 
     32 O          -2.1100   53.0170   13.2490 O.2       7 ALL1        0.0000 
     33 O          -1.9980   52.7640   15.9570 O.2       4 ALP1        0.0000 
     34 CA         -8.3325   58.2943   11.6032 C.3       3 GLC5        0.0000 
     35 CA         -9.3210   56.8030   11.2640 C.3       9 GLL5        0.0000 
     36 CA         -7.4790   59.8110   12.6310 C.3       6 GLP5        0.0000 
     37 CA         -7.7565   58.0493    9.1583 C.3       3 GLC5        0.0000 
     38 CA         -9.0510   56.7520    9.8870 C.3       9 GLL5        0.0000 
     39 CA         -6.1420   58.9140    8.8680 C.3       6 GLP5        0.0000 
     40 CA         -9.0038   58.9975   11.9790 C.3       3 GLC5        0.0000 
     41 CA        -10.8420   58.6270   10.8870 C.3       9 GLL5        0.0000 
     42 CA         -7.7585   51.8945   14.5177 C.3       3 GLC5        0.0000 
     43 CA         -7.1350   53.7290   13.6200 C.3       9 GLL5        0.0000 
     44 CA         -8.8550   50.3900   15.0180 C.3       6 GLP5        0.0000 
@<TRIPOS>BOND
@<TRIPOS>SUBSTRUCTURE
     1 ALC1       31 GROUP        1 X    ALC  0     ROOT ALC X 1
     2 SEC2        1 GROUP        1 X    SEC  0     **** SEC X 2
     3 GLC5        6 GROUP        1 X    GLC  0     **** GLC X 6
     4 ALP1       33 GROUP        1 Y    ALP  0     ROOT ALP Y 8
     5 SEP2        3 GROUP        1 Y    SEP  0     **** SEP Y 9
     6 GLP5        8 GROUP        1 Y    GLP  0     **** GLP Y 13
     7 ALL1       32 GROUP        1 Z    ALL  0     ROOT ALL Z 15
     8 SEL2        2 GROUP        1 Z    SEL  0     **** SEL Z 16
     9 GLL5        7 GROUP        1 Z    GLL  0     **** GLL Z 20
@<TRIPOS>SET

