#    Name: 4de3_DN8_1_ligand
#    Modification time : Tue Mar 25 09:38:35 2014

@<TRIPOS>MOLECULE
4de3_DN8_1_ligand
   31    33     1     0     0
SMALL
NO_CHARGES


@<TRIPOS>ATOM
      1 O21        -8.8980   55.8690   13.4010 O.2       1 DN8301      0.0000 
      2 C7         -8.6180   55.8480   12.1980 C.2       1 DN8301      0.0000 
      3 C4         -9.3210   56.8030   11.2640 C.ar      1 DN8301      0.0000 
      4 C3         -9.0510   56.7520    9.8870 C.ar      1 DN8301      0.0000 
      5 C2         -9.6910   57.6170    9.0100 C.ar      1 DN8301      0.0000 
      6 C5        -10.2150   57.7410   11.7670 C.ar      1 DN8301      0.0000 
      7 C6        -10.8420   58.6270   10.8870 C.ar      1 DN8301      0.0000 
      8 BR1       -12.0240   59.9130   11.5790 Br        1 DN8301      0.0000 
      9 C1        -10.5960   58.5780    9.5220 C.ar      1 DN8301      0.0000 
     10 N8         -7.7270   55.0220   11.6640 N.am      1 DN8301      0.0000 
     11 C9         -6.7450   54.3770   12.4450 C.ar      1 DN8301      0.0000 
     12 C14        -7.1350   53.7290   13.6200 C.ar      1 DN8301      0.0000 
     13 C13        -6.1890   53.0690   14.4150 C.ar      1 DN8301      0.0000 
     14 C12        -4.8380   52.9950   14.0690 C.ar      1 DN8301      0.0000 
     15 C11        -4.4380   53.6120   12.8800 C.ar      1 DN8301      0.0000 
     16 C10        -5.3880   54.2990   12.0990 C.ar      1 DN8301      0.0000 
     17 C15        -3.0910   53.5560   12.5310 C.2       1 DN8301      0.0000 
     18 N19        -2.5220   53.9710   11.4090 N.2       1 DN8301      0.0000 
     19 N18        -1.1770   53.7360   11.4080 N.2       1 DN8301      0.0000 
     20 N17        -0.8980   53.1040   12.5660 N.2       1 DN8301      0.0000 
     21 N16        -2.1100   53.0170   13.2490 N.pl3     1 DN8301      0.0000 
     22 H          -8.3711   56.0643    9.5315 H         1 DN8301      0.0000 
     23 H          -9.5198   57.5709    8.0060 H         1 DN8301      0.0000 
     24 H         -10.4137   57.7849   12.7685 H         1 DN8301      0.0000 
     25 H         -11.0581   59.2250    8.8810 H         1 DN8301      0.0000 
     26 H          -7.7229   54.8192   10.6342 H         1 DN8301      0.0000 
     27 H          -8.1236   53.7357   13.9047 H         1 DN8301      0.0000 
     28 H          -6.5078   52.6159   15.2992 H         1 DN8301      0.0000 
     29 H          -4.1731   52.5131   14.6564 H         1 DN8301      0.0000 
     30 H          -5.0654   54.7697   11.2251 H         1 DN8301      0.0000 
     31 H          -2.1905   52.6097   14.1316 H         1 DN8301      0.0000 
@<TRIPOS>BOND
     1    2    1 2    
     2    3    2 1    
     3   10    2 am   
     4    4    3 ar   
     5    6    3 ar   
     6    5    4 ar   
     7   22    4 1    
     8    9    5 ar   
     9   23    5 1    
    10    7    6 ar   
    11   24    6 1    
    12    8    7 1    
    13    9    7 ar   
    14   25    9 1    
    15   11   10 1    
    16   26   10 1    
    17   12   11 ar   
    18   16   11 ar   
    19   13   12 ar   
    20   27   12 1    
    21   14   13 ar   
    22   28   13 1    
    23   15   14 ar   
    24   29   14 1    
    25   16   15 ar   
    26   17   15 1    
    27   30   16 1    
    28   18   17 2    
    29   21   17 1    
    30   19   18 1    
    31   20   19 2    
    32   21   20 1    
    33   31   21 1    
@<TRIPOS>SUBSTRUCTURE
     1 DN8301      1 GROUP   
@<TRIPOS>SET

