#    Name: 2i0v_6C3_1_INTS_M
#    Modification time : Tue Mar 25 17:18:09 2014

@<TRIPOS>MOLECULE
2i0v_6C3_1_INTS_M
   62     0     9     0     0
SMALL
NO_CHARGES


@<TRIPOS>ATOM
      1 CA          5.9140   26.6230    4.4625 C.3       3 GLC5        0.0000 
      2 CA          7.6680   26.1070    5.6790 C.3       9 GLL5        0.0000 
      3 CA          4.1600   27.1390    3.2460 C.3       6 GLP5        0.0000 
      4 CA          9.4485   28.5320    8.4395 C.3       3 GLC5        0.0000 
      5 CA          7.5420   28.4900    8.7370 C.3       9 GLL5        0.0000 
      6 CA         11.3550   28.5740    8.1420 C.3       6 GLP5        0.0000 
      7 CA          2.4965   28.8340    5.2980 C.3       3 GLC5        0.0000 
      8 CA          4.3540   29.4760    5.3790 C.3       9 GLL5        0.0000 
      9 CA          0.6390   28.1920    5.2170 C.3       6 GLP5        0.0000 
     10 CA          5.0345   31.0335    2.3310 C.3       3 GLC5        0.0000 
     11 CA          5.0360   30.2980    4.4500 C.3       9 GLL5        0.0000 
     12 CA          5.0330   31.7690    0.2120 C.3       6 GLP5        0.0000 
     13 CA          4.4995   29.0670    8.9290 C.3       3 GLC5        0.0000 
     14 CA          6.0920   30.5850    8.8630 C.3       9 GLL5        0.0000 
     15 CA          2.9070   27.5490    8.9950 C.3       6 GLP5        0.0000 
     16 CA          6.8035   33.3175    9.8190 C.3       3 GLC5        0.0000 
     17 CA          4.7470   32.6220    9.7320 C.3       9 GLL5        0.0000 
     18 CA          8.8600   34.0130    9.9060 C.3       6 GLP5        0.0000 
     19 O           9.8200   25.2370    9.9370 O.2       1 ALC1        0.0000 
     20 O           8.9220   26.4320    9.1730 O.2       7 ALL1        0.0000 
     21 O          10.7180   24.0420   10.7010 O.2       4 ALP1        0.0000 
     22 CA          5.7935   24.3655    4.3750 C.3       3 GLC5        0.0000 
     23 CA          7.8720   24.1940    3.8030 C.3       9 GLL5        0.0000 
     24 CA          3.7150   24.5370    4.9470 C.3       6 GLP5        0.0000 
     25 CA          8.4055   22.7735    3.3705 C.3       3 GLC5        0.0000 
     26 CA          8.9390   21.3530    2.9380 C.3       6 GLP5        0.0000 
     27 CA          9.0630   25.7105    3.5050 C.3       3 GLC5        0.0000 
     28 CA         10.2540   27.2270    3.2070 C.3       6 GLP5        0.0000 
     29 N           9.8105   27.8785   11.6550 N.am      2 SEC2        0.0000 
     30 N           8.7180   27.9500   10.8330 N.am      8 SEL2        0.0000 
     31 N          10.9030   27.8070   12.4770 N.am      5 SEP2        0.0000 
     32 CA          5.8885   28.0850    9.8535 C.3       3 GLC5        0.0000 
     33 CA          6.9910   29.6970    9.4580 C.3       9 GLL5        0.0000 
     34 CA          4.7860   26.4730   10.2490 C.3       6 GLP5        0.0000 
     35 CA          6.2355   25.1565    6.7438 C.3       3 GLC5        0.0000 
     36 CA          7.8980   26.6870    6.9720 C.3       9 GLL5        0.0000 
     37 CA          4.6880   23.9160    7.1620 C.3       6 GLP5        0.0000 
     38 CA          6.1015   27.3645    9.1562 C.3       3 GLC5        0.0000 
     39 CA          7.2920   28.0220    7.3900 C.3       9 GLL5        0.0000 
     40 CA          3.8102   28.3245    7.4260 C.3       3 GLC5        0.0000 
     41 CA          5.0730   28.7240    6.3350 C.3       9 GLL5        0.0000 
     42 CA          4.4367   28.1195    4.5515 C.3       3 GLC5        0.0000 
     43 CA          4.9503   28.7370    3.8533 C.3       3 GLC5        0.0000 
     44 CA          7.6368   29.0880    3.3310 C.3       3 GLC5        0.0000 
     45 CA          6.4450   30.3720    4.4710 C.3       9 GLL5        0.0000 
     46 CA          8.4640   28.1750    1.7140 C.3       6 GLP5        0.0000 
     47 CA          8.7779   29.7296    6.4339 C.3       3 GLC5        0.0000 
     48 CA          7.1740   29.6300    5.4250 C.3       9 GLL5        0.0000 
     49 CA         10.5220   30.4370    6.7140 C.3       6 GLP5        0.0000 
     50 CA          5.4973   28.1788    4.5730 C.3       3 GLC5        0.0000 
     51 CA          6.6462   24.1998    6.4805 C.3       3 GLC5        0.0000 
     52 CA          8.2090   24.8470    5.3410 C.3       9 GLL5        0.0000 
     53 CA          8.7718   22.9183    4.3685 C.3       3 GLC5        0.0000 
     54 CA          8.0950   24.1246    8.5849 C.3       3 GLC5        0.0000 
     55 CA          9.0000   24.1200    6.2570 C.3       9 GLL5        0.0000 
     56 CA          7.2030   23.5400   10.1850 C.3       6 GLP5        0.0000 
     57 CA         11.1613   24.2765    7.1662 C.3       3 GLC5        0.0000 
     58 CA          9.2490   24.6620    7.5360 C.3       9 GLL5        0.0000 
     59 CA         13.1980   24.1620    7.4360 C.3       6 GLP5        0.0000 
     60 CA         10.0832   22.6780    7.5202 C.3       3 GLC5        0.0000 
     61 CA         11.0420   20.9650    8.1440 C.3       6 GLP5        0.0000 
     62 CA         10.0644   27.0303    7.8126 C.3       3 GLC5        0.0000 
@<TRIPOS>BOND
@<TRIPOS>SUBSTRUCTURE
     1 ALC1       19 GROUP        1 X    ALC  0     ROOT ALC X 1
     2 SEC2       29 GROUP        1 X    SEC  0     **** SEC X 2
     3 GLC5        1 GROUP        1 X    GLC  0     **** GLC X 6
     4 ALP1       21 GROUP        1 Y    ALP  0     ROOT ALP Y 8
     5 SEP2       31 GROUP        1 Y    SEP  0     **** SEP Y 9
     6 GLP5        3 GROUP        1 Y    GLP  0     **** GLP Y 13
     7 ALL1       20 GROUP        1 Z    ALL  0     ROOT ALL Z 15
     8 SEL2       30 GROUP        1 Z    SEL  0     **** SEL Z 16
     9 GLL5        2 GROUP        1 Z    GLL  0     **** GLL Z 20
@<TRIPOS>SET

