#    Name: 2i0v_6C3_1_ligand
#    Modification time : Tue Mar 25 17:18:10 2014

@<TRIPOS>MOLECULE
2i0v_6C3_1_ligand
   37    40     1     0     0
SMALL
NO_CHARGES


@<TRIPOS>ATOM
      1 C1          8.6990   25.9350    7.8890 C.ar      1 6C31000     0.0000 
      2 C2          7.8980   26.6870    6.9720 C.ar      1 6C31000     0.0000 
      3 C3          7.6680   26.1070    5.6790 C.ar      1 6C31000     0.0000 
      4 C7          7.2920   28.0220    7.3900 C.2       1 6C31000     0.0000 
      5 C8          7.5420   28.4900    8.7370 C.2       1 6C31000     0.0000 
      6 C9          8.4250   27.6200    9.6670 C.2       1 6C31000     0.0000 
      7 C10         5.0730   28.7240    6.3350 C.ar      1 6C31000     0.0000 
      8 C11         4.3540   29.4760    5.3790 C.ar      1 6C31000     0.0000 
      9 C12         5.0360   30.2980    4.4500 C.ar      1 6C31000     0.0000 
     10 C13         6.4450   30.3720    4.4710 C.ar      1 6C31000     0.0000 
     11 C14         7.1740   29.6300    5.4250 C.ar      1 6C31000     0.0000 
     12 C15         6.4950   28.8070    6.3750 C.ar      1 6C31000     0.0000 
     13 C16         6.0920   30.5850    8.8630 C.2       1 6C31000     0.0000 
     14 C19         4.7470   32.6220    9.7320 C.3       1 6C31000     0.0000 
     15 C4          8.2090   24.8470    5.3410 C.ar      1 6C31000     0.0000 
     16 C5          9.0000   24.1200    6.2570 C.ar      1 6C31000     0.0000 
     17 C6          9.2490   24.6620    7.5360 C.ar      1 6C31000     0.0000 
     18 N1          8.9220   26.4320    9.1730 N.am      1 6C31000     0.0000 
     19 CL1         7.8720   24.1940    3.8030 Cl        1 6C31000     0.0000 
     20 O1          8.7180   27.9500   10.8330 O.2       1 6C31000     0.0000 
     21 C17         6.9910   29.6970    9.4580 C.2       1 6C31000     0.0000 
     22 O2          7.1850   30.2100   10.7360 O.3       1 6C31000     0.0000 
     23 N2          6.4370   31.3470   10.9590 N.2       1 6C31000     0.0000 
     24 C18         5.7720   31.5570    9.8210 C.2       1 6C31000     0.0000 
     25 H           7.1019   26.6225    4.9988 H         1 6C31000     0.0000 
     26 H           4.5828   28.1245    6.9940 H         1 6C31000     0.0000 
     27 H           3.3313   29.4268    5.3570 H         1 6C31000     0.0000 
     28 H           4.5054   30.8378    3.7640 H         1 6C31000     0.0000 
     29 H           6.9362   30.9609    3.7977 H         1 6C31000     0.0000 
     30 H           8.1945   29.6767    5.4425 H         1 6C31000     0.0000 
     31 H           5.7618   30.5416    7.9854 H         1 6C31000     0.0000 
     32 H           9.3857   23.2163    5.9979 H         1 6C31000     0.0000 
     33 H           9.8167   24.1561    8.2112 H         1 6C31000     0.0000 
     34 H           9.5280   25.8397    9.8223 H         1 6C31000     0.0000 
     35 H           4.7260   33.1871   10.5568 H         1 6C31000     0.0000 
     36 H           4.9150   33.2356    8.9605 H         1 6C31000     0.0000 
     37 H           3.8288   32.2446    9.6118 H         1 6C31000     0.0000 
@<TRIPOS>BOND
     1    2    1 ar   
     2   17    1 ar   
     3   18    1 1    
     4    3    2 ar   
     5    4    2 1    
     6   15    3 ar   
     7   25    3 1    
     8    5    4 2    
     9   12    4 1    
    10    6    5 1    
    11   21    5 1    
    12   18    6 am   
    13   20    6 2    
    14    8    7 ar   
    15   12    7 ar   
    16   26    7 1    
    17    9    8 ar   
    18   27    8 1    
    19   10    9 ar   
    20   28    9 1    
    21   11   10 ar   
    22   29   10 1    
    23   12   11 ar   
    24   30   11 1    
    25   21   13 2    
    26   24   13 1    
    27   31   13 1    
    28   24   14 1    
    29   35   14 1    
    30   36   14 1    
    31   37   14 1    
    32   16   15 ar   
    33   19   15 1    
    34   17   16 ar   
    35   32   16 1    
    36   33   17 1    
    37   34   18 1    
    38   22   21 1    
    39   23   22 1    
    40   24   23 2    
@<TRIPOS>SUBSTRUCTURE
     1 6C31000     1 GROUP   
@<TRIPOS>SET

