#    Name: 3dog_NNN_1_INTS_M
#    Modification time : Mon Mar 24 23:54:55 2014

@<TRIPOS>MOLECULE
3dog_NNN_1_INTS_M
   51     0     9     0     0
SMALL
NO_CHARGES


@<TRIPOS>ATOM
      1 CA         -2.7400   18.8580  -19.6135 C.3       3 GLC5        0.0000 
      2 CA         -3.3850   20.2860  -20.5990 C.3       9 GLL5        0.0000 
      3 CA         -2.0950   17.4300  -18.6280 C.3       6 GLP5        0.0000 
      4 CA         -4.3390   18.6935  -21.7955 C.3       3 GLC5        0.0000 
      5 CA         -5.2930   17.1010  -22.9920 C.3       6 GLP5        0.0000 
      6 CA         -8.0105   21.8540  -18.1435 C.3       3 GLC5        0.0000 
      7 CA         -6.4180   21.1290  -18.7660 C.3       9 GLL5        0.0000 
      8 CA         -9.6030   22.5790  -17.5210 C.3       6 GLP5        0.0000 
      9 CA         -6.5275   20.2930  -17.0865 C.3       3 GLC5        0.0000 
     10 CA         -6.6370   19.4570  -15.4070 C.3       6 GLP5        0.0000 
     11 O          -3.9150   23.1875  -21.1200 O.2       1 ALC1        0.0000 
     12 O          -4.7450   22.1530  -21.4960 O.2       7 ALL1        0.0000 
     13 O          -3.0850   24.2220  -20.7440 O.2       4 ALP1        0.0000 
     14 N         -10.5515   23.7680  -24.9395 N.am      2 SEC2        0.0000 
     15 N          -9.4070   22.7640  -24.1960 N.am      8 SEL2        0.0000 
     16 N         -11.6960   24.7720  -25.6830 N.am      5 SEP2        0.0000 
     17 CA        -11.6955   21.0080  -20.5020 C.3       3 GLC5        0.0000 
     18 CA         -9.9970   20.0640  -20.6670 C.3       9 GLL5        0.0000 
     19 CA        -13.3940   21.9520  -20.3370 C.3       6 GLP5        0.0000 
     20 CA         -9.6450   22.0665  -20.7480 C.3       3 GLC5        0.0000 
     21 CA         -9.2930   24.0690  -20.8290 C.3       6 GLP5        0.0000 
     22 CA         -9.8000   21.3215  -19.0940 C.3       3 GLC5        0.0000 
     23 CA         -7.5180   18.4435  -23.6215 C.3       3 GLC5        0.0000 
     24 CA         -8.7740   18.5970  -22.3160 C.3       9 GLL5        0.0000 
     25 CA         -6.2620   18.2900  -24.9270 C.3       6 GLP5        0.0000 
     26 CA        -10.2175   17.5080  -22.1185 C.3       3 GLC5        0.0000 
     27 CA        -11.6610   16.4190  -21.9210 C.3       6 GLP5        0.0000 
     28 CA         -7.1365   19.9900  -23.8350 C.3       3 GLC5        0.0000 
     29 CA         -8.0110   21.6900  -22.7430 C.3       9 GLL5        0.0000 
     30 O          -8.2705   25.2930  -25.2925 O.2       1 ALC1        0.0000 
     31 O          -7.2950   24.6330  -24.5340 O.2       7 ALL1        0.0000 
     32 O          -9.2460   25.9530  -26.0510 O.2       4 ALP1        0.0000 
     33 CA         -6.8465   25.6705  -22.7000 C.3       3 GLC5        0.0000 
     34 CA         -6.3120   25.7000  -24.5290 C.3       9 GLL5        0.0000 
     35 CA         -7.3810   25.6410  -20.8710 C.3       6 GLP5        0.0000 
     36 CA         -8.9760   22.7070  -21.8163 C.3       3 GLC5        0.0000 
     37 CA         -9.3070   21.0000  -22.8640 C.3       9 GLL5        0.0000 
     38 CA        -11.2428   18.6705  -21.6953 C.3       3 GLC5        0.0000 
     39 CA         -9.7400   19.7660  -22.1460 C.3       9 GLL5        0.0000 
     40 CA        -12.6170   17.4260  -21.9840 C.3       6 GLP5        0.0000 
     41 CA         -9.5784   19.4070  -24.2677 C.3       3 GLC5        0.0000 
     42 CA        -10.0080   19.3240  -26.1250 C.3       6 GLP5        0.0000 
     43 CA         -4.9642   23.2993  -27.8379 C.3       3 GLC5        0.0000 
     44 CA         -5.9840   25.2930  -26.9880 C.3       9 GLL5        0.0000 
     45 CA         -5.2540   21.3980  -27.9300 C.3       6 GLP5        0.0000 
     46 CA         -4.1399   23.6159  -25.8896 C.3       3 GLC5        0.0000 
     47 CA         -3.2190   25.4250  -26.6910 C.3       9 GLL5        0.0000 
     48 CA         -4.3050   21.7390  -25.6080 C.3       6 GLP5        0.0000 
     49 CA         -5.7006   27.3586  -24.9372 C.3       3 GLC5        0.0000 
     50 CA         -4.0400   25.5920  -25.5740 C.3       9 GLL5        0.0000 
     51 CA         -6.4480   29.1140  -24.5230 C.3       6 GLP5        0.0000 
@<TRIPOS>BOND
@<TRIPOS>SUBSTRUCTURE
     1 ALC1       11 GROUP        1 X    ALC  0     ROOT ALC X 1
     2 SEC2       14 GROUP        1 X    SEC  0     **** SEC X 2
     3 GLC5        1 GROUP        1 X    GLC  0     **** GLC X 6
     4 ALP1       13 GROUP        1 Y    ALP  0     ROOT ALP Y 8
     5 SEP2       16 GROUP        1 Y    SEP  0     **** SEP Y 9
     6 GLP5        3 GROUP        1 Y    GLP  0     **** GLP Y 13
     7 ALL1       12 GROUP        1 Z    ALL  0     ROOT ALL Z 15
     8 SEL2       15 GROUP        1 Z    SEL  0     **** SEL Z 16
     9 GLL5        2 GROUP        1 Z    GLL  0     **** GLL Z 20
@<TRIPOS>SET

