#    Name: 3dog_NNN_1_ligand
#    Modification time : Mon Mar 24 23:54:55 2014

@<TRIPOS>MOLECULE
3dog_NNN_1_ligand
   52    54     1     0     0
SMALL
NO_CHARGES


@<TRIPOS>ATOM
      1 O1         -2.5540   20.7970  -21.6490 O.3       1 NNN299      0.0000 
      2 C15        -3.3850   20.2860  -20.5990 C.3       1 NNN299      0.0000 
      3 C12        -4.7100   21.0530  -20.5460 C.3       1 NNN299      0.0000 
      4 C13        -5.0110   21.5430  -19.1290 C.3       1 NNN299      0.0000 
      5 C14        -6.4180   21.1290  -18.7660 C.3       1 NNN299      0.0000 
      6 N2         -4.7450   22.1530  -21.4960 N.pl3     1 NNN299      0.0000 
      7 C2         -5.8830   22.3340  -22.1840 C.2       1 NNN299      0.0000 
      8 N1         -6.0120   23.3920  -23.0170 N.2       1 NNN299      0.0000 
      9 C6         -7.1600   23.5810  -23.7100 C.2       1 NNN299      0.0000 
     10 N5         -8.1590   22.7090  -23.5580 N.pl3     1 NNN299      0.0000 
     11 N7         -9.4070   22.7640  -24.1960 N.2       1 NNN299      0.0000 
     12 C8        -10.1250   21.6920  -23.7510 C.2       1 NNN299      0.0000 
     13 C9'        -9.3070   21.0000  -22.8640 C.2       1 NNN299      0.0000 
     14 C9         -9.7400   19.7660  -22.1460 C.3       1 NNN299      0.0000 
     15 C10        -9.9970   20.0640  -20.6670 C.3       1 NNN299      0.0000 
     16 C11        -8.7740   18.5970  -22.3160 C.3       1 NNN299      0.0000 
     17 C4         -8.0110   21.6900  -22.7430 C.2       1 NNN299      0.0000 
     18 N3         -6.8960   21.4490  -22.0320 N.2       1 NNN299      0.0000 
     19 N6         -7.2950   24.6330  -24.5340 N.pl3     1 NNN299      0.0000 
     20 CA'        -6.3120   25.7000  -24.5290 C.3       1 NNN299      0.0000 
     21 C1'        -5.4210   25.5290  -25.7290 C.ar      1 NNN299      0.0000 
     22 C6'        -5.9840   25.2930  -26.9880 C.ar      1 NNN299      0.0000 
     23 C5'        -5.1600   25.1230  -28.0990 C.ar      1 NNN299      0.0000 
     24 C4'        -3.7770   25.1930  -27.9480 C.ar      1 NNN299      0.0000 
     25 C3'        -3.2190   25.4250  -26.6910 C.ar      1 NNN299      0.0000 
     26 C2'        -4.0400   25.5920  -25.5740 C.ar      1 NNN299      0.0000 
     27 H          -2.9035   20.3843  -19.6174 H         1 NNN299      0.0000 
     28 H          -3.6202   19.2243  -20.7492 H         1 NNN299      0.0000 
     29 H          -5.5088   20.3277  -20.8047 H         1 NNN299      0.0000 
     30 H          -4.9252   22.6202  -19.1002 H         1 NNN299      0.0000 
     31 H          -4.3068   21.0957  -18.4416 H         1 NNN299      0.0000 
     32 H          -3.9216   22.7253  -21.5951 H         1 NNN299      0.0000 
     33 H         -11.0068   21.4529  -23.9895 H         1 NNN299      0.0000 
     34 H         -10.7168   19.4469  -22.5733 H         1 NNN299      0.0000 
     35 H          -8.0832   24.7270  -25.1903 H         1 NNN299      0.0000 
     36 H          -5.6997   25.6629  -23.6280 H         1 NNN299      0.0000 
     37 H          -6.7943   26.6758  -24.5851 H         1 NNN299      0.0000 
     38 H          -7.0041   25.2455  -27.0907 H         1 NNN299      0.0000 
     39 H          -5.5695   24.9475  -29.0219 H         1 NNN299      0.0000 
     40 H          -3.1645   25.0733  -28.7658 H         1 NNN299      0.0000 
     41 H          -2.1963   25.4735  -26.5854 H         1 NNN299      0.0000 
     42 H          -3.6284   25.7587  -24.6533 H         1 NNN299      0.0000 
     43 H          -6.5308   20.1357  -18.7901 H         1 NNN299      0.0000 
     44 H          -6.6680   21.4301  -17.8458 H         1 NNN299      0.0000 
     45 H          -7.0928   21.5159  -19.3945 H         1 NNN299      0.0000 
     46 H          -9.1770   20.4081  -20.2095 H         1 NNN299      0.0000 
     47 H         -10.7113   20.7532  -20.5457 H         1 NNN299      0.0000 
     48 H         -10.2897   19.2477  -20.1691 H         1 NNN299      0.0000 
     49 H          -7.8611   18.8165  -21.9719 H         1 NNN299      0.0000 
     50 H          -9.0849   17.7837  -21.8241 H         1 NNN299      0.0000 
     51 H          -8.6707   18.3372  -23.2761 H         1 NNN299      0.0000 
     52 H          -2.6239   21.7917  -21.5734 H         1 NNN299      0.0000 
@<TRIPOS>BOND
     1    2    1 1    
     2   52    1 1    
     3    3    2 1    
     4   27    2 1    
     5   28    2 1    
     6    4    3 1    
     7    6    3 1    
     8   29    3 1    
     9    5    4 1    
    10   30    4 1    
    11   31    4 1    
    12   43    5 1    
    13   44    5 1    
    14   45    5 1    
    15    7    6 1    
    16   32    6 1    
    17    8    7 1    
    18   18    7 2    
    19    9    8 2    
    20   10    9 1    
    21   19    9 1    
    22   11   10 1    
    23   17   10 1    
    24   12   11 2    
    25   13   12 1    
    26   33   12 1    
    27   14   13 1    
    28   17   13 2    
    29   15   14 1    
    30   16   14 1    
    31   34   14 1    
    32   46   15 1    
    33   47   15 1    
    34   48   15 1    
    35   49   16 1    
    36   50   16 1    
    37   51   16 1    
    38   18   17 1    
    39   20   19 1    
    40   35   19 1    
    41   21   20 1    
    42   36   20 1    
    43   37   20 1    
    44   22   21 ar   
    45   26   21 ar   
    46   23   22 ar   
    47   38   22 1    
    48   24   23 ar   
    49   39   23 1    
    50   25   24 ar   
    51   40   24 1    
    52   26   25 ar   
    53   41   25 1    
    54   42   26 1    
@<TRIPOS>SUBSTRUCTURE
     1 NNN299      1 GROUP   
@<TRIPOS>SET

