#    Name: 4mpe_PV8_1_INTS_M
#    Modification time : Tue Mar 25 12:18:05 2014

@<TRIPOS>MOLECULE
4mpe_PV8_1_INTS_M
   45     0     9     0     0
SMALL
NO_CHARGES


@<TRIPOS>ATOM
      1 CA         10.0755    1.8995  -38.1640 C.3       3 GLC5        0.0000 
      2 CA         11.4320    3.0810  -37.7410 C.3       9 GLL5        0.0000 
      3 CA          8.7190    0.7180  -38.5870 C.3       6 GLP5        0.0000 
      4 CA         11.5880    5.2125  -39.3700 C.3       3 GLC5        0.0000 
      5 CA         10.7350    4.3000  -37.6560 C.3       9 GLL5        0.0000 
      6 CA         12.4410    6.1250  -41.0840 C.3       6 GLP5        0.0000 
      7 CA          8.8695    4.7720  -35.2770 C.3       3 GLC5        0.0000 
      8 CA         10.5880    4.8910  -36.4020 C.3       9 GLL5        0.0000 
      9 CA          7.1510    4.6530  -34.1520 C.3       6 GLP5        0.0000 
     10 CA         11.5025    5.2880  -33.3820 C.3       3 GLC5        0.0000 
     11 CA         11.1020    4.3400  -35.2390 C.3       9 GLL5        0.0000 
     12 CA         11.9030    6.2360  -31.5250 C.3       6 GLP5        0.0000 
     13 CA          9.7625    4.0740  -33.7100 C.3       3 GLC5        0.0000 
     14 CA          8.4230    3.8080  -32.1810 C.3       6 GLP5        0.0000 
     15 CA         10.0055    1.9385  -36.9625 C.3       3 GLC5        0.0000 
     16 CA         11.9450    2.5240  -36.5670 C.3       9 GLL5        0.0000 
     17 CA          8.0660    1.3530  -37.3580 C.3       6 GLP5        0.0000 
     18 CA         19.7495    1.0500  -40.5505 C.3       3 GLC5        0.0000 
     19 CA         18.5850    0.7450  -38.8440 C.3       9 GLL5        0.0000 
     20 CA         20.9140    1.3550  -42.2570 C.3       6 GLP5        0.0000 
     21 O          20.6545    1.0185  -39.5625 O.2       1 ALC1        0.0000 
     22 O          19.6670    0.1640  -39.4320 O.2       7 ALL1        0.0000 
     23 O          21.6420    1.8730  -39.6930 O.2       4 ALP1        0.0000 
     24 N          10.8285   -0.2595  -37.7125 N.am      2 SEC2        0.0000 
     25 N          12.1000   -0.1590  -37.2620 N.am      8 SEL2        0.0000 
     26 N           9.5570   -0.3600  -38.1630 N.am      5 SEP2        0.0000 
     27 N          12.0600   -0.1550  -38.8675 N.am      2 SEC2        0.0000 
     28 N          12.0200   -0.1510  -40.4730 N.am      5 SEP2        0.0000 
     29 CA         12.2383    5.2637  -37.2593 C.3       3 GLC5        0.0000 
     30 CA         13.3930    6.8370  -36.8200 C.3       6 GLP5        0.0000 
     31 CA          9.3637    2.9742  -37.1935 C.3       3 GLC5        0.0000 
     32 CA         11.5418    2.8163  -33.4565 C.3       3 GLC5        0.0000 
     33 CA         11.6310    1.9030  -31.6410 C.3       6 GLP5        0.0000 
     34 CA         12.3585    5.3521  -36.1914 C.3       3 GLC5        0.0000 
     35 CA         11.8030    3.1190  -35.3050 C.3       9 GLL5        0.0000 
     36 CA         17.0950    1.4428  -40.0885 C.3       3 GLC5        0.0000 
     37 CA         17.3990    0.0300  -38.8020 C.3       9 GLL5        0.0000 
     38 CA         16.1980    2.4980  -41.3540 C.3       6 GLP5        0.0000 
     39 CA         18.9143    3.8902  -38.7400 C.3       3 GLC5        0.0000 
     40 CA         18.6920    2.0670  -38.2790 C.3       9 GLL5        0.0000 
     41 CA         19.6670    5.4270  -39.5000 C.3       6 GLP5        0.0000 
     42 CA         17.1797    2.4257  -39.6670 C.3       3 GLC5        0.0000 
     43 CA         15.2402    1.7255  -39.2392 C.3       3 GLC5        0.0000 
     44 CA         15.0350    2.2380  -37.0670 C.3       9 GLL5        0.0000 
     45 CA         14.8220    2.2300  -40.7570 C.3       6 GLP5        0.0000 
@<TRIPOS>BOND
@<TRIPOS>SUBSTRUCTURE
     1 ALC1       21 GROUP        1 X    ALC  0     ROOT ALC X 1
     2 SEC2       24 GROUP        1 X    SEC  0     **** SEC X 2
     3 GLC5        1 GROUP        1 X    GLC  0     **** GLC X 6
     4 ALP1       23 GROUP        1 Y    ALP  0     ROOT ALP Y 8
     5 SEP2       26 GROUP        1 Y    SEP  0     **** SEP Y 9
     6 GLP5        3 GROUP        1 Y    GLP  0     **** GLP Y 13
     7 ALL1       22 GROUP        1 Z    ALL  0     ROOT ALL Z 15
     8 SEL2       25 GROUP        1 Z    SEL  0     **** SEL Z 16
     9 GLL5        2 GROUP        1 Z    GLL  0     **** GLL Z 20
@<TRIPOS>SET

