#    Name: 4mpe_PV8_1_ligand
#    Modification time : Tue Mar 25 12:18:05 2014

@<TRIPOS>MOLECULE
4mpe_PV8_1_ligand
   32    34     1     0     0
SMALL
NO_CHARGES


@<TRIPOS>ATOM
      1 C11        15.0350    2.2380  -37.0670 C.3       1 PV8501      0.0000 
      2 O01        11.6050    2.4720  -38.9340 O.co2     1 PV8501      0.0000 
      3 C02        11.4320    3.0810  -37.7410 C.ar      1 PV8501      0.0000 
      4 C03        10.7350    4.3000  -37.6560 C.ar      1 PV8501      0.0000 
      5 C04        10.5880    4.8910  -36.4020 C.ar      1 PV8501      0.0000 
      6 O05         9.9640    6.0470  -36.3110 O.co2     1 PV8501      0.0000 
      7 C06        11.1020    4.3400  -35.2390 C.ar      1 PV8501      0.0000 
      8 C07        11.8030    3.1190  -35.3050 C.ar      1 PV8501      0.0000 
      9 C08        11.9450    2.5240  -36.5670 C.ar      1 PV8501      0.0000 
     10 S09        12.8290    1.0200  -36.6230 S.o2      1 PV8501      0.0000 
     11 N10        14.1500    1.2570  -37.6340 N.pl3     1 PV8501      0.0000 
     12 C12        16.3860    1.8950  -37.6350 C.ar      1 PV8501      0.0000 
     13 C13        16.3010    0.6250  -38.1810 C.ar      1 PV8501      0.0000 
     14 C14        17.3990    0.0300  -38.8020 C.ar      1 PV8501      0.0000 
     15 C15        18.5850    0.7450  -38.8440 C.ar      1 PV8501      0.0000 
     16 O16        19.6670    0.1640  -39.4320 O.3       1 PV8501      0.0000 
     17 C17        18.6920    2.0670  -38.2790 C.ar      1 PV8501      0.0000 
     18 C18        17.6310    2.6400  -37.6810 C.ar      1 PV8501      0.0000 
     19 C19        14.9120    0.1260  -38.0030 C.3       1 PV8501      0.0000 
     20 O20        12.1000   -0.1590  -37.2620 O.2       1 PV8501      0.0000 
     21 O21        13.1960    0.5910  -35.3100 O.2       1 PV8501      0.0000 
     22 H          15.0777    2.1630  -35.9947 H         1 PV8501      0.0000 
     23 H          14.7711    3.2355  -37.3716 H         1 PV8501      0.0000 
     24 H          10.3519    4.7325  -38.4881 H         1 PV8501      0.0000 
     25 H          10.9799    4.8054  -34.3383 H         1 PV8501      0.0000 
     26 H          12.1848    2.6942  -34.4784 H         1 PV8501      0.0000 
     27 H          17.3272   -0.8958  -39.2082 H         1 PV8501      0.0000 
     28 H          19.6042    2.5411  -38.3550 H         1 PV8501      0.0000 
     29 H          17.6507    3.5621  -37.2606 H         1 PV8501      0.0000 
     30 H          14.5706   -0.3057  -38.9382 H         1 PV8501      0.0000 
     31 H          14.9081   -0.6357  -37.2302 H         1 PV8501      0.0000 
     32 H          20.1415    0.9117  -39.8967 H         1 PV8501      0.0000 
@<TRIPOS>BOND
     1   11    1 1    
     2   12    1 1    
     3   22    1 1    
     4   23    1 1    
     5    3    2 1    
     6    4    3 ar   
     7    9    3 ar   
     8    5    4 ar   
     9   24    4 1    
    10    6    5 1    
    11    7    5 ar   
    12    8    7 ar   
    13   25    7 1    
    14    9    8 ar   
    15   26    8 1    
    16   10    9 1    
    17   11   10 1    
    18   20   10 2    
    19   21   10 2    
    20   19   11 1    
    21   13   12 ar   
    22   18   12 ar   
    23   14   13 ar   
    24   19   13 1    
    25   15   14 ar   
    26   27   14 1    
    27   16   15 1    
    28   17   15 ar   
    29   32   16 1    
    30   18   17 ar   
    31   28   17 1    
    32   29   18 1    
    33   30   19 1    
    34   31   19 1    
@<TRIPOS>SUBSTRUCTURE
     1 PV8501      1 GROUP   
@<TRIPOS>SET

