#    Name: 3d0e_G93_1_INTS_M
#    Modification time : Mon Mar 24 22:32:16 2014

@<TRIPOS>MOLECULE
3d0e_G93_1_INTS_M
   89     0    12     0     0
SMALL
NO_CHARGES


@<TRIPOS>ATOM
      1 O          22.6075  -12.7320    9.5595 O.2       1 ALC1        0.0000 
      2 O          22.3620  -14.2920    9.3140 O.2       9 ALL1        0.0000 
      3 O          22.8530  -11.1720    9.8050 O.2       5 ALP1        0.0000 
      4 CA         23.5275  -14.5465    8.7100 C.3       4 GLC5        0.0000 
      5 CA         22.3130  -14.8950   10.5380 C.3      12 GLL5        0.0000 
      6 CA         24.7420  -14.1980    6.8820 C.3       8 GLP5        0.0000 
      7 CA         20.5325  -13.8505   11.2090 C.3       4 GLC5        0.0000 
      8 CA         18.7520  -12.8060   11.8800 C.3       8 GLP5        0.0000 
      9 CA         24.2425  -17.1375   10.8440 C.3       4 GLC5        0.0000 
     10 CA         22.3560  -16.2720   10.7260 C.3      12 GLL5        0.0000 
     11 CA         26.1290  -18.0030   10.9620 C.3       8 GLP5        0.0000 
     12 CA         24.0510  -18.6990   10.9235 C.3       4 GLC5        0.0000 
     13 CA         21.9730  -19.3950   10.8850 C.3      12 GLL5        0.0000 
     14 CA         20.4625  -18.0250   10.7600 C.3       4 GLC5        0.0000 
     15 CA         18.9520  -16.6550   10.6350 C.3       8 GLP5        0.0000 
     16 CA         24.0220  -19.3315   13.3250 C.3       4 GLC5        0.0000 
     17 CA         23.1600  -19.9980   11.5980 C.3      12 GLL5        0.0000 
     18 CA         24.8840  -18.6650   15.0520 C.3       8 GLP5        0.0000 
     19 CA         23.9495  -21.4810   12.6175 C.3       4 GLC5        0.0000 
     20 CA         24.7390  -22.9640   13.6370 C.3       8 GLP5        0.0000 
     21 CA         24.8075  -19.7405   11.2030 C.3       4 GLC5        0.0000 
     22 CA         26.4550  -19.4830   10.8080 C.3       8 GLP5        0.0000 
     23 CA         21.6970  -13.0355    4.4600 C.3       4 GLC5        0.0000 
     24 CA         23.0250  -14.3660    3.6270 C.3      12 GLL5        0.0000 
     25 CA         20.3690  -11.7050    5.2930 C.3       8 GLP5        0.0000 
     26 CA         26.0095  -17.2425    3.8640 C.3       4 GLC5        0.0000 
     27 CA         25.2950  -15.2760    3.0820 C.3      12 GLL5        0.0000 
     28 CA         26.7240  -19.2090    4.6460 C.3       8 GLP5        0.0000 
     29 CA         26.9010  -15.1515    2.2490 C.3       4 GLC5        0.0000 
     30 CA         28.5070  -15.0270    1.4160 C.3       8 GLP5        0.0000 
     31 CA         25.8900  -14.9435    4.9515 C.3       4 GLC5        0.0000 
     32 CA         26.4850  -14.6110    6.8210 C.3       8 GLP5        0.0000 
     33 N          22.3055  -17.0760    1.4225 N.am      2 SEC2        0.0000 
     34 N          23.3240  -16.2800    2.1780 N.am     10 SEL2        0.0000 
     35 N          21.2870  -17.8720    0.6670 N.am      6 SEP2        0.0000 
     36 O          24.0825  -17.2520    1.6925 O.2       1 ALC1        0.0000 
     37 O          23.3240  -16.2800    2.1780 O.2       9 ALL1        0.0000 
     38 O          24.8410  -18.2240    1.2070 O.2       5 ALP1        0.0000 
     39 CA         24.4840  -20.4960    5.4130 C.3       4 GLC5        0.0000 
     40 CA         22.9220  -20.5070    6.5930 C.3      12 GLL5        0.0000 
     41 CA         26.0460  -20.4850    4.2330 C.3       8 GLP5        0.0000 
     42 CA         21.7980  -20.2575    5.0985 C.3       4 GLC5        0.0000 
     43 CA         20.6740  -20.0080    3.6040 C.3       8 GLP5        0.0000 
     44 CA         23.8645  -23.3780    8.0685 C.3       4 GLC5        0.0000 
     45 CA         22.0360  -22.7210    8.1490 C.3      12 GLL5        0.0000 
     46 CA         25.6930  -24.0350    7.9880 C.3       8 GLP5        0.0000 
     47 CA         18.5440  -23.8145    9.5490 C.3       4 GLC5        0.0000 
     48 CA         20.1950  -23.1780    9.7950 C.3      12 GLL5        0.0000 
     49 CA         16.8930  -24.4510    9.3030 C.3       8 GLP5        0.0000 
     50 OD1        18.1005  -23.3830   11.6855 O.co2     3 ASC3        0.0000 
     51 OD1        19.7470  -24.0150   10.9020 O.co2    11 ASL3        0.0000 
     52 OD1        16.4540  -22.7510   12.4690 O.co2     7 ASP3        0.0000 
     53 OD1        19.1125  -23.0170   11.4900 O.co2     3 ASC3        0.0000 
     54 OD1        18.4780  -22.0190   12.0780 O.co2     7 ASP3        0.0000 
     55 OD1        19.2355  -25.0070   10.0990 O.co2     3 ASC3        0.0000 
     56 OD1        18.7240  -25.9990    9.2960 O.co2     7 ASP3        0.0000 
     57 CA         21.2640  -25.1555   13.6365 C.3       4 GLC5        0.0000 
     58 CA         20.6670  -24.6070   11.8580 C.3      12 GLL5        0.0000 
     59 CA         21.8610  -25.7040   15.4150 C.3       8 GLP5        0.0000 
     60 CA         22.2900  -25.8365   12.9720 C.3       4 GLC5        0.0000 
     61 CA         22.0000  -25.0130   11.2320 C.3      12 GLL5        0.0000 
     62 CA         22.5800  -26.6600   14.7120 C.3       8 GLP5        0.0000 
     63 CA         22.1907  -18.1932    4.4008 C.3       4 GLC5        0.0000 
     64 CA         23.2300  -18.1920    6.2720 C.3      12 GLL5        0.0000 
     65 CA         21.0190  -18.6650    2.9500 C.3       8 GLP5        0.0000 
     66 CA         24.4250  -19.2295    8.7230 C.3       4 GLC5        0.0000 
     67 CA         22.9190  -17.9470    7.6130 C.3      12 GLL5        0.0000 
     68 CA         26.0830  -19.9710    9.4150 C.3       8 GLP5        0.0000 
     69 CA         23.9414  -16.0161    6.8071 C.3       4 GLC5        0.0000 
     70 CA         21.2704  -17.1301    6.5186 C.3       4 GLC5        0.0000 
     71 CA         23.4950  -17.2510    5.4310 C.3      12 GLL5        0.0000 
     72 CA         19.4000  -16.4260    6.3050 C.3       8 GLP5        0.0000 
     73 CA         24.0697  -14.7347   10.9600 C.3       4 GLC5        0.0000 
     74 CA         25.8050  -13.8860   11.2880 C.3       8 GLP5        0.0000 
     75 CA         20.6433  -16.1193   10.6335 C.3       4 GLC5        0.0000 
     76 CA         25.1421  -18.1686    4.9129 C.3       4 GLC5        0.0000 
     77 CA         22.4080  -17.3727    3.4378 C.3       4 GLC5        0.0000 
     78 CA         23.7580  -16.5350    4.5080 C.3      12 GLL5        0.0000 
     79 CA         21.9127  -14.9310    2.0965 C.3       4 GLC5        0.0000 
     80 CA         20.3950  -14.8660    0.7080 C.3       8 GLP5        0.0000 
     81 CA         24.0765  -14.7106    5.3291 C.3       4 GLC5        0.0000 
     82 CA         24.3924  -14.1780    1.8588 C.3       4 GLC5        0.0000 
     83 CA         23.8360  -15.6260    3.3430 C.3      12 GLL5        0.0000 
     84 CA         24.4220  -13.2200    0.4340 C.3       8 GLP5        0.0000 
     85 CA         24.4243  -20.1965    8.3422 C.3       4 GLC5        0.0000 
     86 CA         23.5980  -24.5675    8.7658 C.3       4 GLC5        0.0000 
     87 CA         22.5070  -23.9270   10.2930 C.3      12 GLL5        0.0000 
     88 CA         25.1980  -25.3220    7.7930 C.3       8 GLP5        0.0000 
     89 CA         23.4963  -23.7170   12.1997 C.3       4 GLC5        0.0000 
@<TRIPOS>BOND
@<TRIPOS>SUBSTRUCTURE
     1 ALC1        1 GROUP        1 X    ALC  0     ROOT ALC X 1
     2 SEC2       33 GROUP        1 X    SEC  0     **** SEC X 2
     3 ASC3       50 GROUP        1 X    ASC  0     **** ASC X 3
     4 GLC5        4 GROUP        1 X    GLC  0     **** GLC X 6
     5 ALP1        3 GROUP        1 Y    ALP  0     ROOT ALP Y 8
     6 SEP2       35 GROUP        1 Y    SEP  0     **** SEP Y 9
     7 ASP3       52 GROUP        1 Y    ASP  0     **** ASP Y 10
     8 GLP5        6 GROUP        1 Y    GLP  0     **** GLP Y 13
     9 ALL1        2 GROUP        1 Z    ALL  0     ROOT ALL Z 15
    10 SEL2       34 GROUP        1 Z    SEL  0     **** SEL Z 16
    11 ASL3       51 GROUP        1 Z    ASL  0     **** ASL Z 17
    12 GLL5        5 GROUP        1 Z    GLL  0     **** GLL Z 20
@<TRIPOS>SET

