#    Name: 3d0e_G93_1_ligand
#    Modification time : Mon Mar 24 22:32:16 2014

@<TRIPOS>MOLECULE
3d0e_G93_1_ligand
   62    65     1     0     0
SMALL
NO_CHARGES


@<TRIPOS>ATOM
      1 C3         23.4950  -17.2510    5.4310 C.2       1 G931        0.0000 
      2 N2         22.3560  -18.5990    9.7030 N.pl3     1 G931        0.0000 
      3 N3         22.8530  -16.8290    8.3640 N.2       1 G931        0.0000 
      4 C2         23.2300  -18.1920    6.2720 C.ar      1 G931        0.0000 
      5 O2         22.3080  -21.4340    8.7240 O.3       1 G931        0.0000 
      6 N1         23.2120  -19.4600    5.8090 N.ar      1 G931        0.0000 
      7 C1         22.9190  -17.9470    7.6130 C.ar      1 G931        0.0000 
      8 N6         22.3620  -14.2920    9.3140 N.4       1 G931        0.0000 
      9 C17        22.3130  -14.8950   10.5380 C.2       1 G931        0.0000 
     10 N5         22.1870  -14.2090   11.6860 N.pl3     1 G931        0.0000 
     11 O3         22.1900  -15.2830   12.6420 O.3       1 G931        0.0000 
     12 N4         22.3110  -16.5930   12.0410 N.pl3     1 G931        0.0000 
     13 C16        22.3560  -16.2720   10.7260 C.2       1 G931        0.0000 
     14 C15        22.5090  -17.2610    9.5990 C.2       1 G931        0.0000 
     15 C13        21.9730  -19.3950   10.8850 C.3       1 G931        0.0000 
     16 C14        23.1600  -19.9980   11.5980 C.3       1 G931        0.0000 
     17 C4         23.7580  -16.5350    4.5080 C.2       1 G931        0.0000 
     18 C5         23.8360  -15.6260    3.3430 C.3       1 G931        0.0000 
     19 C7         23.0250  -14.3660    3.6270 C.3       1 G931        0.0000 
     20 C6         25.2950  -15.2760    3.0820 C.3       1 G931        0.0000 
     21 O1         23.3240  -16.2800    2.1780 O.3       1 G931        0.0000 
     22 C12        22.6150  -19.0290    8.4490 C.ar      1 G931        0.0000 
     23 C9         22.6090  -20.3370    7.9460 C.ar      1 G931        0.0000 
     24 C8         22.9220  -20.5070    6.5930 C.ar      1 G931        0.0000 
     25 C10        22.0360  -22.7210    8.1490 C.3       1 G931        0.0000 
     26 C11        21.4890  -23.6990    9.1840 C.3       1 G931        0.0000 
     27 C18        20.1950  -23.1780    9.7950 C.3       1 G931        0.0000 
     28 N7         19.7470  -24.0150   10.9020 N.4       1 G931        0.0000 
     29 C19        20.6670  -24.6070   11.8580 C.3       1 G931        0.0000 
     30 C20        22.0000  -25.0130   11.2320 C.3       1 G931        0.0000 
     31 C21        22.5070  -23.9270   10.2930 C.3       1 G931        0.0000 
     32 H          23.3769  -16.2174    6.3950 H         1 G931        0.0000 
     33 H          22.1162  -13.3293   11.8713 H         1 G931        0.0000 
     34 H          22.3428  -17.3782   12.4785 H         1 G931        0.0000 
     35 H          21.2896  -20.2109   10.5857 H         1 G931        0.0000 
     36 H          21.4150  -18.7638   11.6008 H         1 G931        0.0000 
     37 H          25.1716  -16.6254    4.5861 H         1 G931        0.0000 
     38 H          22.9226  -21.4793    6.2113 H         1 G931        0.0000 
     39 H          22.9474  -23.1669    7.7141 H         1 G931        0.0000 
     40 H          21.2967  -22.6475    7.3325 H         1 G931        0.0000 
     41 H          21.2880  -24.6438    8.7026 H         1 G931        0.0000 
     42 H          19.4323  -23.1390    9.0021 H         1 G931        0.0000 
     43 H          20.3665  -22.1442   10.1323 H         1 G931        0.0000 
     44 H          20.2234  -25.5078   12.3239 H         1 G931        0.0000 
     45 H          20.8817  -23.9026   12.6844 H         1 G931        0.0000 
     46 H          21.8667  -25.9392   10.6752 H         1 G931        0.0000 
     47 H          22.7310  -25.1782   12.0220 H         1 G931        0.0000 
     48 H          22.6476  -23.0066   10.8485 H         1 G931        0.0000 
     49 H          23.4505  -24.2375    9.8584 H         1 G931        0.0000 
     50 H          22.9075  -14.8187    8.6621 H         1 G931        0.0000 
     51 H          21.4510  -14.1858    8.9156 H         1 G931        0.0000 
     52 H          22.7675  -13.3794    9.3656 H         1 G931        0.0000 
     53 H          23.6807  -20.6086   11.0014 H         1 G931        0.0000 
     54 H          23.7934  -19.2961   11.9237 H         1 G931        0.0000 
     55 H          22.8815  -20.5341   12.3949 H         1 G931        0.0000 
     56 H          23.3692  -13.8753    4.4275 H         1 G931        0.0000 
     57 H          23.0502  -13.7269    2.8583 H         1 G931        0.0000 
     58 H          22.0631  -14.5752    3.8027 H         1 G931        0.0000 
     59 H          25.7141  -14.8210    3.8677 H         1 G931        0.0000 
     60 H          25.8431  -16.0896    2.8877 H         1 G931        0.0000 
     61 H          25.3953  -14.6614    2.2996 H         1 G931        0.0000 
     62 H          24.0100  -16.9695    1.9459 H         1 G931        0.0000 
@<TRIPOS>BOND
     1    4    1 1    
     2   17    1 2    
     3   32    1 1    
     4   14    2 1    
     5   15    2 1    
     6   22    2 1    
     7    7    3 1    
     8   14    3 2    
     9    6    4 ar   
    10    7    4 ar   
    11   23    5 1    
    12   25    5 1    
    13   24    6 ar   
    14   22    7 ar   
    15    9    8 1    
    16   50    8 1    
    17   51    8 1    
    18   52    8 1    
    19   10    9 1    
    20   13    9 2    
    21   11   10 1    
    22   33   10 1    
    23   12   11 1    
    24   13   12 1    
    25   34   12 1    
    26   14   13 1    
    27   16   15 1    
    28   35   15 1    
    29   36   15 1    
    30   53   16 1    
    31   54   16 1    
    32   55   16 1    
    33   18   17 1    
    34   37   17 1    
    35   19   18 1    
    36   20   18 1    
    37   21   18 1    
    38   56   19 1    
    39   57   19 1    
    40   58   19 1    
    41   59   20 1    
    42   60   20 1    
    43   61   20 1    
    44   62   21 1    
    45   23   22 ar   
    46   24   23 ar   
    47   38   24 1    
    48   26   25 1    
    49   39   25 1    
    50   40   25 1    
    51   27   26 1    
    52   31   26 1    
    53   41   26 1    
    54   28   27 1    
    55   42   27 1    
    56   43   27 1    
    57   29   28 1    
    58   30   29 1    
    59   44   29 1    
    60   45   29 1    
    61   31   30 1    
    62   46   30 1    
    63   47   30 1    
    64   48   31 1    
    65   49   31 1    
@<TRIPOS>SUBSTRUCTURE
     1 G931        1 GROUP   
@<TRIPOS>SET

