#    Name: 3vxi_ASC_1_INTS_M
#    Modification time : Tue Mar 25 01:48:46 2014

@<TRIPOS>MOLECULE
3vxi_ASC_1_INTS_M
   22     0     9     0     0
SMALL
NO_CHARGES


@<TRIPOS>ATOM
      1 CA         -5.3765    6.9525   30.6295 C.3       3 GLC5        0.0000 
      2 CA         -4.3260    8.1150   29.2280 C.3       9 GLL5        0.0000 
      3 CA         -6.4270    5.7900   32.0310 C.3       6 GLP5        0.0000 
      4 CA         -4.2785    9.6510   27.9085 C.3       3 GLC5        0.0000 
      5 CA         -3.2230    9.0270   29.7220 C.3       9 GLL5        0.0000 
      6 CA         -5.3340   10.2750   26.0950 C.3       6 GLP5        0.0000 
      7 CA         -4.2550    7.8335   32.5305 C.3       3 GLC5        0.0000 
      8 CA         -2.7810    8.5740   31.1240 C.3       9 GLL5        0.0000 
      9 CA         -5.7290    7.0930   33.9370 C.3       6 GLP5        0.0000 
     10 CA         -0.2785    7.6245   30.8750 C.3       3 GLC5        0.0000 
     11 CA         -1.5000    9.3130   31.5350 C.3       9 GLL5        0.0000 
     12 CA          0.9430    5.9360   30.2150 C.3       6 GLP5        0.0000 
     13 N          -1.6705    7.2195   25.6850 N.am      2 SEC2        0.0000 
     14 N          -1.7390    7.3070   27.1490 N.am      8 SEL2        0.0000 
     15 N          -1.6020    7.1320   24.2210 N.am      5 SEP2        0.0000 
     16 O          -5.8540    6.2570   27.8185 O.2       1 ALC1        0.0000 
     17 O          -4.5410    6.3710   27.5220 O.2       7 ALL1        0.0000 
     18 O          -7.1670    6.1430   28.1150 O.2       4 ALP1        0.0000 
     19 O          -6.3695    7.1170   28.9335 O.2       1 ALC1        0.0000 
     20 O          -5.5720    8.0910   29.7520 O.2       7 ALL1        0.0000 
     21 CA         -5.1638    8.3865   27.4767 C.3       3 GLC5        0.0000 
     22 CA         -6.2440    9.0410   26.2450 C.3       6 GLP5        0.0000 
@<TRIPOS>BOND
@<TRIPOS>SUBSTRUCTURE
     1 ALC1       16 GROUP        1 X    ALC  0     ROOT ALC X 1
     2 SEC2       13 GROUP        1 X    SEC  0     **** SEC X 2
     3 GLC5        1 GROUP        1 X    GLC  0     **** GLC X 6
     4 ALP1       18 GROUP        1 Y    ALP  0     ROOT ALP Y 8
     5 SEP2       15 GROUP        1 Y    SEP  0     **** SEP Y 9
     6 GLP5        3 GROUP        1 Y    GLP  0     **** GLP Y 13
     7 ALL1       17 GROUP        1 Z    ALL  0     ROOT ALL Z 15
     8 SEL2       14 GROUP        1 Z    SEL  0     **** SEL Z 16
     9 GLL5        2 GROUP        1 Z    GLL  0     **** GLL Z 20
@<TRIPOS>SET

