#    Name: 3vxi_ASC_1_ligand
#    Modification time : Tue Mar 25 01:48:46 2014

@<TRIPOS>MOLECULE
3vxi_ASC_1_ligand
   20    20     1     0     0
SMALL
NO_CHARGES


@<TRIPOS>ATOM
      1 C1         -2.5180    7.7510   27.9770 C.2       1 ASC502      0.0000 
      2 C2         -3.8410    7.3490   28.1890 C.2       1 ASC502      0.0000 
      3 C3         -4.3260    8.1150   29.2280 C.2       1 ASC502      0.0000 
      4 C4         -3.2230    9.0270   29.7220 C.3       1 ASC502      0.0000 
      5 C5         -2.7810    8.5740   31.1240 C.3       1 ASC502      0.0000 
      6 C6         -1.5000    9.3130   31.5350 C.3       1 ASC502      0.0000 
      7 O1         -1.7390    7.3070   27.1490 O.2       1 ASC502      0.0000 
      8 O2         -4.5410    6.3710   27.5220 O.3       1 ASC502      0.0000 
      9 O3         -5.5720    8.0910   29.7520 O.3       1 ASC502      0.0000 
     10 O4         -2.1220    8.7480   28.8350 O.3       1 ASC502      0.0000 
     11 O5         -2.5540    7.1470   31.1440 O.3       1 ASC502      0.0000 
     12 O6         -1.1340    9.0170   32.8910 O.3       1 ASC502      0.0000 
     13 H          -3.5122   10.0062   29.7169 H         1 ASC502      0.0000 
     14 H          -3.5607    8.8488   31.8226 H         1 ASC502      0.0000 
     15 H          -1.6779   10.3908   31.3907 H         1 ASC502      0.0000 
     16 H          -0.7065    9.0193   30.8292 H         1 ASC502      0.0000 
     17 H          -5.4855    6.4694   27.8356 H         1 ASC502      0.0000 
     18 H          -6.0749    7.4313   29.1935 H         1 ASC502      0.0000 
     19 H          -3.3073    6.7578   30.6139 H         1 ASC502      0.0000 
     20 H          -0.1975    8.6706   32.8364 H         1 ASC502      0.0000 
@<TRIPOS>BOND
     1    2    1 1    
     2    7    1 2    
     3   10    1 1    
     4    3    2 2    
     5    8    2 1    
     6    4    3 1    
     7    9    3 1    
     8    5    4 1    
     9   10    4 1    
    10   13    4 1    
    11    6    5 1    
    12   11    5 1    
    13   14    5 1    
    14   12    6 1    
    15   15    6 1    
    16   16    6 1    
    17   17    8 1    
    18   18    9 1    
    19   19   11 1    
    20   20   12 1    
@<TRIPOS>SUBSTRUCTURE
     1 ASC502      1 GROUP   
@<TRIPOS>SET

