#    Name: 4fjz_4FJ_1_INTS_M
#    Modification time : Mon Mar 24 20:09:14 2014

@<TRIPOS>MOLECULE
4fjz_4FJ_1_INTS_M
   88     0     6     0     0
SMALL
NO_CHARGES


@<TRIPOS>ATOM
      1 CA         22.0700   19.0725   23.0240 C.3       2 GLC5        0.0000 
      2 CA         22.2990   17.8390   21.5940 C.3       6 GLL5        0.0000 
      3 CA         21.8410   20.3060   24.4540 C.3       4 GLP5        0.0000 
      4 CA         21.7835   17.1060   23.5950 C.3       2 GLC5        0.0000 
      5 CA         21.2680   16.3730   25.5960 C.3       4 GLP5        0.0000 
      6 CA         23.5485   17.0765   22.8185 C.3       2 GLC5        0.0000 
      7 CA         24.7980   16.3140   24.0430 C.3       4 GLP5        0.0000 
      8 CA         23.9750   17.5155   17.7530 C.3       2 GLC5        0.0000 
      9 CA         24.4700   16.1860   18.9580 C.3       6 GLL5        0.0000 
     10 CA         23.4800   18.8450   16.5480 C.3       4 GLP5        0.0000 
     11 CA         25.7015   16.1995   16.4875 C.3       2 GLC5        0.0000 
     12 CA         26.8010   14.5500   17.4180 C.3       6 GLL5        0.0000 
     13 CA         24.6020   17.8490   15.5570 C.3       4 GLP5        0.0000 
     14 CA         23.8020   10.4080   24.5020 C.3       2 GLC5        0.0000 
     15 CA         22.3300   11.6770   24.0350 C.3       6 GLL5        0.0000 
     16 CA         25.2740    9.1390   24.9690 C.3       4 GLP5        0.0000 
     17 CA         23.4860   12.9325   25.1565 C.3       2 GLC5        0.0000 
     18 CA         24.6420   14.1880   26.2780 C.3       4 GLP5        0.0000 
     19 CA         22.6500    9.6055   24.7195 C.3       2 GLC5        0.0000 
     20 CA         21.0340   10.9050   24.0250 C.3       6 GLL5        0.0000 
     21 CA         24.2660    8.3060   25.4140 C.3       4 GLP5        0.0000 
     22 CA         19.5755   10.0380   23.5080 C.3       2 GLC5        0.0000 
     23 CA         18.1170    9.1710   22.9910 C.3       4 GLP5        0.0000 
     24 CA         20.1245   10.3230   25.9455 C.3       2 GLC5        0.0000 
     25 CA         19.2150    9.7410   27.8660 C.3       4 GLP5        0.0000 
     26 N          28.8705   14.4145   17.3765 N.am      1 SEC2        0.0000 
     27 N          27.9490   15.0920   18.0870 N.am      5 SEL2        0.0000 
     28 N          29.7920   13.7370   16.6660 N.am      3 SEP2        0.0000 
     29 CA         25.7560   16.0235   22.0280 C.3       2 GLC5        0.0000 
     30 CA         26.7140   15.7330   20.0130 C.3       6 GLL5        0.0000 
     31 CA         25.0065   11.3910   21.3280 C.3       2 GLC5        0.0000 
     32 CA         24.2430   12.9880   22.3480 C.3       6 GLL5        0.0000 
     33 CA         25.7700    9.7940   20.3080 C.3       4 GLP5        0.0000 
     34 N          18.9345   10.7935   25.0195 N.am      1 SEC2        0.0000 
     35 N          20.0510   11.6220   24.7780 N.am      5 SEL2        0.0000 
     36 N          17.8180    9.9650   25.2610 N.am      3 SEP2        0.0000 
     37 CA         18.8915   10.9795   23.5200 C.3       2 GLC5        0.0000 
     38 CA         19.6660   12.7880   24.0490 C.3       6 GLL5        0.0000 
     39 CA         18.3895   11.4325   25.2900 C.3       2 GLC5        0.0000 
     40 CA         17.1130   10.0770   26.5310 C.3       4 GLP5        0.0000 
     41 CA         17.3385   15.5630   13.9290 C.3       2 GLC5        0.0000 
     42 CA         19.1890   15.4280   14.8190 C.3       6 GLL5        0.0000 
     43 CA         15.4880   15.6980   13.0390 C.3       4 GLP5        0.0000 
     44 CA         19.1235   15.7165   12.9520 C.3       2 GLC5        0.0000 
     45 CA         19.0580   16.0050   11.0850 C.3       4 GLP5        0.0000 
     46 CA         21.1075   18.0295   16.7200 C.3       2 GLC5        0.0000 
     47 CA         20.1190   16.9230   18.0150 C.3       6 GLL5        0.0000 
     48 CA         22.0960   19.1360   15.4250 C.3       4 GLP5        0.0000 
     49 CA         20.7925   19.6955   22.6535 C.3       2 GLC5        0.0000 
     50 CA         19.7440   19.0850   20.8530 C.3       6 GLL5        0.0000 
     51 CA         17.7877   19.9215   24.4173 C.3       2 GLC5        0.0000 
     52 CA         18.5780   20.9090   22.5530 C.3       6 GLL5        0.0000 
     53 CA         17.3260   19.5350   26.4010 C.3       4 GLP5        0.0000 
     54 CA         20.5158   20.6693   23.3470 C.3       2 GLC5        0.0000 
     55 CA         18.9322   22.8532   22.4105 C.3       2 GLC5        0.0000 
     56 CA         19.8030   21.1560   21.9270 C.3       6 GLL5        0.0000 
     57 CA         18.6740   24.6740   22.5810 C.3       4 GLP5        0.0000 
     58 CA         21.9899   13.0042   20.4964 C.3       2 GLC5        0.0000 
     59 CA         22.5010   14.4610   21.5820 C.3       6 GLL5        0.0000 
     60 CA         21.0430   11.9190   19.2180 C.3       4 GLP5        0.0000 
     61 CA         24.1940   14.7713   23.2208 C.3       2 GLC5        0.0000 
     62 CA         22.9370   13.4690   22.4490 C.3       6 GLL5        0.0000 
     63 CA         25.2755   14.5065   16.1887 C.3       2 GLC5        0.0000 
     64 CA         25.7330   14.0460   18.3930 C.3       6 GLL5        0.0000 
     65 CA         24.2840   14.7150   14.4720 C.3       4 GLP5        0.0000 
     66 CA         27.8390   13.3630   17.5857 C.3       2 GLC5        0.0000 
     67 CA         29.4110   12.4280   17.2660 C.3       4 GLP5        0.0000 
     68 CA         28.2405   15.5542   20.9468 C.3       2 GLC5        0.0000 
     69 CA         27.5480   16.2420   18.8420 C.3       6 GLL5        0.0000 
     70 CA         29.3500   15.1210   22.4660 C.3       4 GLP5        0.0000 
     71 CA         22.6265   10.0220   22.9905 C.3       2 GLC5        0.0000 
     72 CA         23.5710    8.7530   21.9510 C.3       4 GLP5        0.0000 
     73 CA         20.7680   14.8120   24.7645 C.3       2 GLC5        0.0000 
     74 CA         20.8700   13.7140   23.8170 C.3       6 GLL5        0.0000 
     75 CA         24.2989   15.4415   22.4406 C.3       2 GLC5        0.0000 
     76 CA         22.6360   17.9342   18.2077 C.3       2 GLC5        0.0000 
     77 CA         22.0520   16.5460   19.4270 C.3       6 GLL5        0.0000 
     78 CA         22.5183   17.3193   17.1795 C.3       2 GLC5        0.0000 
     79 CA         21.3220   16.2630   18.2680 C.3       6 GLL5        0.0000 
     80 CA         22.8570   14.9495   15.6245 C.3       2 GLC5        0.0000 
     81 CA         21.7910   15.3240   17.3540 C.3       6 GLL5        0.0000 
     82 CA         21.1779   13.6689   18.1118 C.3       2 GLC5        0.0000 
     83 CA         21.0690   15.0440   16.2000 C.3       6 GLL5        0.0000 
     84 CA         20.7763   17.0607   15.2337 C.3       2 GLC5        0.0000 
     85 CA         21.9370   18.0990   14.3150 C.3       4 GLP5        0.0000 
     86 CA         18.3702   14.6103   15.8712 C.3       2 GLC5        0.0000 
     87 CA         19.8730   15.7040   15.9490 C.3       6 GLL5        0.0000 
     88 CA         17.1250   13.1980   15.5900 C.3       4 GLP5        0.0000 
@<TRIPOS>BOND
@<TRIPOS>SUBSTRUCTURE
     1 SEC2       26 GROUP        1 X    SEC  0     ROOT SEC X 2
     2 GLC5        1 GROUP        1 X    GLC  0     **** GLC X 6
     3 SEP2       28 GROUP        1 Y    SEP  0     ROOT SEP Y 9
     4 GLP5        3 GROUP        1 Y    GLP  0     **** GLP Y 13
     5 SEL2       27 GROUP        1 Z    SEL  0     ROOT SEL Z 16
     6 GLL5        2 GROUP        1 Z    GLL  0     **** GLL Z 20
@<TRIPOS>SET

