#    Name: 4fjz_4FJ_1_ligand
#    Modification time : Mon Mar 24 20:09:14 2014

@<TRIPOS>MOLECULE
4fjz_4FJ_1_ligand
   69    75     1     0     0
SMALL
NO_CHARGES


@<TRIPOS>ATOM
      1 C11        22.2990   17.8390   21.5940 C.3       1 4FJ1205     0.0000 
      2 C13        17.9210   19.7070   22.3140 C.ar      1 4FJ1205     0.0000 
      3 C14        18.5780   20.9090   22.5530 C.ar      1 4FJ1205     0.0000 
      4 C16        24.4700   16.1860   18.9580 C.3       1 4FJ1205     0.0000 
      5 C17        25.4250   15.1050   19.4690 C.3       1 4FJ1205     0.0000 
      6 C19        23.3720   14.9590   20.6190 C.ar      1 4FJ1205     0.0000 
      7 C21        22.9370   13.4690   22.4490 C.ar      1 4FJ1205     0.0000 
      8 C22        22.5010   14.4610   21.5820 C.ar      1 4FJ1205     0.0000 
      9 C23        25.7330   14.0460   18.3930 C.3       1 4FJ1205     0.0000 
     10 C24        26.8010   14.5500   17.4180 C.3       1 4FJ1205     0.0000 
     11 C25        27.5480   16.2420   18.8420 C.3       1 4FJ1205     0.0000 
     12 C27        22.3300   11.6770   24.0350 C.3       1 4FJ1205     0.0000 
     13 C28        21.0340   10.9050   24.0250 C.3       1 4FJ1205     0.0000 
     14 C30        20.8700   13.7140   23.8170 C.3       1 4FJ1205     0.0000 
     15 O1         27.9490   15.0920   18.0870 O.3       1 4FJ1205     0.0000 
     16 C26        26.7140   15.7330   20.0130 C.3       1 4FJ1205     0.0000 
     17 C18        24.6630   14.4280   20.5760 C.ar      1 4FJ1205     0.0000 
     18 N4         25.0590   13.4670   21.4260 N.ar      1 4FJ1205     0.0000 
     19 C20        24.2430   12.9880   22.3480 C.ar      1 4FJ1205     0.0000 
     20 N5         22.0700   12.9660   23.4080 N.3       1 4FJ1205     0.0000 
     21 O2         20.0510   11.6220   24.7780 O.3       1 4FJ1205     0.0000 
     22 C29        19.6660   12.7880   24.0490 C.3       1 4FJ1205     0.0000 
     23 N2         23.2140   15.9090   19.6810 N.pl3     1 4FJ1205     0.0000 
     24 C7         22.0520   16.5460   19.4270 C.ar      1 4FJ1205     0.0000 
     25 C8         21.5320   17.5010   20.3080 C.ar      1 4FJ1205     0.0000 
     26 C1         21.3220   16.2630   18.2680 C.ar      1 4FJ1205     0.0000 
     27 C6         21.7910   15.3240   17.3540 C.ar      1 4FJ1205     0.0000 
     28 C5         21.0690   15.0440   16.2000 C.ar      1 4FJ1205     0.0000 
     29 C4         19.8730   15.7040   15.9490 C.ar      1 4FJ1205     0.0000 
     30 F1         19.1890   15.4280   14.8190 F         1 4FJ1205     0.0000 
     31 C3         19.4010   16.6440   16.8580 C.ar      1 4FJ1205     0.0000 
     32 C2         20.1190   16.9230   18.0150 C.ar      1 4FJ1205     0.0000 
     33 N1         19.6460   17.8330   18.8740 N.pl3     1 4FJ1205     0.0000 
     34 C9         20.3150   18.1410   19.9980 C.ar      1 4FJ1205     0.0000 
     35 C10        19.7440   19.0850   20.8530 C.ar      1 4FJ1205     0.0000 
     36 C12        18.5150   18.7880   21.4540 C.ar      1 4FJ1205     0.0000 
     37 C15        19.8030   21.1560   21.9270 C.ar      1 4FJ1205     0.0000 
     38 N3         20.3490   20.2610   21.1080 N.ar      1 4FJ1205     0.0000 
     39 H          17.0284   19.5039   22.7565 H         1 4FJ1205     0.0000 
     40 H          18.1718   21.6072   23.1798 H         1 4FJ1205     0.0000 
     41 H          24.3437   16.0673   17.9068 H         1 4FJ1205     0.0000 
     42 H          24.8604   17.1430   19.2166 H         1 4FJ1205     0.0000 
     43 H          21.5451   14.8245   21.6498 H         1 4FJ1205     0.0000 
     44 H          24.8207   13.8226   17.8448 H         1 4FJ1205     0.0000 
     45 H          26.0872   13.1400   18.8792 H         1 4FJ1205     0.0000 
     46 H          26.3237   15.3043   16.7630 H         1 4FJ1205     0.0000 
     47 H          27.0801   13.7019   16.7632 H         1 4FJ1205     0.0000 
     48 H          26.9330   16.9161   18.2568 H         1 4FJ1205     0.0000 
     49 H          28.3994   16.7805   19.2423 H         1 4FJ1205     0.0000 
     50 H          23.0765   11.1184   23.4813 H         1 4FJ1205     0.0000 
     51 H          22.6569   11.8023   25.0613 H         1 4FJ1205     0.0000 
     52 H          21.2207    9.9131   24.4516 H         1 4FJ1205     0.0000 
     53 H          20.7214   10.7704   22.9834 H         1 4FJ1205     0.0000 
     54 H          20.5912   14.4484   23.0481 H         1 4FJ1205     0.0000 
     55 H          21.0578   14.2676   24.7479 H         1 4FJ1205     0.0000 
     56 H          27.2723   14.9855   20.5577 H         1 4FJ1205     0.0000 
     57 H          26.4616   16.5576   20.6637 H         1 4FJ1205     0.0000 
     58 H          24.5436   12.2490   23.0170 H         1 4FJ1205     0.0000 
     59 H          19.2509   12.5338   23.0621 H         1 4FJ1205     0.0000 
     60 H          18.9010   13.3701   24.5846 H         1 4FJ1205     0.0000 
     61 H          22.6797   14.8335   17.5350 H         1 4FJ1205     0.0000 
     62 H          21.4216   14.3461   15.5303 H         1 4FJ1205     0.0000 
     63 H          18.5146   17.1362   16.6731 H         1 4FJ1205     0.0000 
     64 H          18.7345   18.3175   18.6683 H         1 4FJ1205     0.0000 
     65 H          18.0550   17.8916   21.2581 H         1 4FJ1205     0.0000 
     66 H          20.2746   22.0675   22.1247 H         1 4FJ1205     0.0000 
     67 H          23.2125   18.1959   21.3987 H         1 4FJ1205     0.0000 
     68 H          21.8244   18.5305   22.1386 H         1 4FJ1205     0.0000 
     69 H          22.4168   17.0359   22.1781 H         1 4FJ1205     0.0000 
@<TRIPOS>BOND
     1   25    1 1    
     2   67    1 1    
     3   68    1 1    
     4   69    1 1    
     5    3    2 ar   
     6   36    2 ar   
     7   39    2 1    
     8   37    3 ar   
     9   40    3 1    
    10    5    4 1    
    11   23    4 1    
    12   41    4 1    
    13   42    4 1    
    14    9    5 1    
    15   16    5 1    
    16   17    5 1    
    17    8    6 ar   
    18   17    6 ar   
    19   23    6 1    
    20    8    7 ar   
    21   19    7 ar   
    22   20    7 1    
    23   43    8 1    
    24   10    9 1    
    25   44    9 1    
    26   45    9 1    
    27   15   10 1    
    28   46   10 1    
    29   47   10 1    
    30   15   11 1    
    31   16   11 1    
    32   48   11 1    
    33   49   11 1    
    34   13   12 1    
    35   20   12 1    
    36   50   12 1    
    37   51   12 1    
    38   21   13 1    
    39   52   13 1    
    40   53   13 1    
    41   20   14 1    
    42   22   14 1    
    43   54   14 1    
    44   55   14 1    
    45   56   16 1    
    46   57   16 1    
    47   18   17 ar   
    48   19   18 ar   
    49   58   19 1    
    50   22   21 1    
    51   59   22 1    
    52   60   22 1    
    53   24   23 1    
    54   25   24 ar   
    55   26   24 ar   
    56   34   25 ar   
    57   27   26 ar   
    58   32   26 ar   
    59   28   27 ar   
    60   61   27 1    
    61   29   28 ar   
    62   62   28 1    
    63   30   29 1    
    64   31   29 ar   
    65   32   31 ar   
    66   63   31 1    
    67   33   32 ar   
    68   34   33 ar   
    69   64   33 1    
    70   35   34 1    
    71   36   35 ar   
    72   38   35 ar   
    73   65   36 1    
    74   38   37 ar   
    75   66   37 1    
@<TRIPOS>SUBSTRUCTURE
     1 4FJ1205     1 GROUP   
@<TRIPOS>SET

