#    Name: 3ia4_MTX_1_INTS_M
#    Modification time : Tue Mar 25 16:01:54 2014

@<TRIPOS>MOLECULE
3ia4_MTX_1_INTS_M
   83     0    12     0     0
SMALL
NO_CHARGES


@<TRIPOS>ATOM
      1 N          46.4635    3.2010  -17.5855 N.am      2 SEC2        0.0000 
      2 N          46.1280    2.1970  -18.4130 N.am     10 SEL2        0.0000 
      3 N          46.7990    4.2050  -16.7580 N.am      6 SEP2        0.0000 
      4 CA         48.2445   -0.1510  -19.3470 C.3       4 GLC5        0.0000 
      5 CA         46.9270    1.1100  -18.4630 C.3      12 GLL5        0.0000 
      6 CA         49.5620   -1.4120  -20.2310 C.3       8 GLP5        0.0000 
      7 CA         46.7770   -0.7940  -17.8510 C.3       4 GLC5        0.0000 
      8 CA         46.6270   -2.6980  -17.2390 C.3       8 GLP5        0.0000 
      9 CA         46.4460    1.1920  -16.5740 C.3       4 GLC5        0.0000 
     10 CA         45.9650    1.2740  -14.6850 C.3       8 GLP5        0.0000 
     11 CA         47.4610    2.4660  -19.8980 C.3       4 GLC5        0.0000 
     12 CA         47.9950    3.8220  -21.3330 C.3       8 GLP5        0.0000 
     13 O          47.4420    2.6845  -17.2680 O.2       1 ALC1        0.0000 
     14 O          48.0850    1.1640  -17.7780 O.2       9 ALL1        0.0000 
     15 O          46.7990    4.2050  -16.7580 O.2       5 ALP1        0.0000 
     16 O          48.4490    2.2705  -17.0875 O.2       1 ALC1        0.0000 
     17 O          48.8130    3.3770  -16.3970 O.2       5 ALP1        0.0000 
     18 CA         47.4835   -0.7145  -20.0675 C.3       4 GLC5        0.0000 
     19 CA         45.4050   -0.0170  -19.9040 C.3      12 GLL5        0.0000 
     20 CA         46.0160   -1.3575  -18.5715 C.3       4 GLC5        0.0000 
     21 O          45.8265   -2.3105  -20.2290 O.2       1 ALC1        0.0000 
     22 O          45.0940   -1.1100  -20.5580 O.2       9 ALL1        0.0000 
     23 O          46.5590   -3.5110  -19.9000 O.2       5 ALP1        0.0000 
     24 O          44.0385   -1.9775  -21.1880 O.2       1 ALC1        0.0000 
     25 O          42.9830   -2.8450  -21.8180 O.2       5 ALP1        0.0000 
     26 CA         43.4825    5.0130  -19.9080 C.3       4 GLC5        0.0000 
     27 CA         42.9730    3.3450  -19.8790 C.3      12 GLL5        0.0000 
     28 CA         43.9920    6.6810  -19.9370 C.3       8 GLP5        0.0000 
     29 CA         43.5685    2.8125  -17.6705 C.3       4 GLC5        0.0000 
     30 CA         44.9590    2.2060  -19.1560 C.3      12 GLL5        0.0000 
     31 CA         42.1780    3.4190  -16.1850 C.3       8 GLP5        0.0000 
     32 CA         46.4770    3.0140  -20.2445 C.3       4 GLC5        0.0000 
     33 CA         40.3675    2.3815  -23.0660 C.3       4 GLC5        0.0000 
     34 CA         41.3680    2.1400  -21.4250 C.3      12 GLL5        0.0000 
     35 CA         39.3670    2.6230  -24.7070 C.3       8 GLP5        0.0000 
     36 CA         41.6410    0.3205  -20.2325 C.3       4 GLC5        0.0000 
     37 CA         41.9140   -1.4990  -19.0400 C.3       8 GLP5        0.0000 
     38 CA         40.1675    3.1955  -19.0850 C.3       4 GLC5        0.0000 
     39 CA         39.3930    3.5950  -20.9180 C.3      12 GLL5        0.0000 
     40 CA         40.9420    2.7960  -17.2520 C.3       8 GLP5        0.0000 
     41 CA         39.3800    3.1090  -22.8125 C.3       4 GLC5        0.0000 
     42 CA         42.6350    6.2040  -25.9150 C.3       4 GLC5        0.0000 
     43 CA         42.4000    6.5420  -23.8590 C.3      12 GLL5        0.0000 
     44 CA         42.8700    5.8660  -27.9710 C.3       8 GLP5        0.0000 
     45 CA         42.2280    7.9130  -21.7840 C.3       4 GLC5        0.0000 
     46 CA         41.1910    6.7370  -23.2040 C.3      12 GLL5        0.0000 
     47 CA         43.2650    9.0890  -20.3640 C.3       8 GLP5        0.0000 
     48 N          42.4365    9.2420  -26.4015 N.am      2 SEC2        0.0000 
     49 N          42.3760    8.6530  -25.1780 N.am     10 SEL2        0.0000 
     50 N          42.4970    9.8310  -27.6250 N.am      6 SEP2        0.0000 
     51 CA         44.0550    7.1150  -26.7205 C.3       4 GLC5        0.0000 
     52 CA         45.2400    8.3640  -25.4700 C.3      12 GLL5        0.0000 
     53 NZ         46.8305    6.1625  -27.5615 N.4       3 LYC4        0.0000 
     54 NZ         46.5260    6.3740  -25.8580 N.4      11 LYL4        0.0000 
     55 NZ         47.5200    4.7450  -28.8770 N.4       7 LYP4        0.0000 
     56 N          47.0560    5.4090  -26.7020 N.am      2 SEC2        0.0000 
     57 N          46.5260    6.3740  -25.8580 N.am     10 SEL2        0.0000 
     58 N          47.5860    4.4440  -27.5460 N.am      6 SEP2        0.0000 
     59 N          46.8305    6.1625  -27.5615 N.am      2 SEC2        0.0000 
     60 N          47.1350    5.9510  -29.2650 N.am      6 SEP2        0.0000 
     61 NZ         47.6825    8.9785  -27.9835 N.4       3 LYC4        0.0000 
     62 NZ         46.5900    7.9460  -27.4000 N.4      11 LYL4        0.0000 
     63 NZ         48.7750   10.0110  -28.5670 N.4       7 LYP4        0.0000 
     64 N          47.6825    8.9785  -27.9835 N.am      2 SEC2        0.0000 
     65 N          46.5900    7.9460  -27.4000 N.am     10 SEL2        0.0000 
     66 N          48.7750   10.0110  -28.5670 N.am      6 SEP2        0.0000 
     67 N          46.8625    6.9485  -28.3325 N.am      2 SEC2        0.0000 
     68 CA         47.9490    8.2500  -24.7945 C.3       4 GLC5        0.0000 
     69 CA         46.1210    9.2860  -24.6170 C.3      12 GLL5        0.0000 
     70 CA         49.7770    7.2140  -24.9720 C.3       8 GLP5        0.0000 
     71 N          43.5180   10.5695  -26.7225 N.am      2 SEC2        0.0000 
     72 N          44.5390   11.3080  -25.8200 N.am     10 SEL2        0.0000 
     73 CA         41.5161    2.6261  -19.0429 C.3       4 GLC5        0.0000 
     74 CA         40.5501    3.6744  -23.7040 C.3       4 GLC5        0.0000 
     75 CA         42.5110    4.3420  -22.9960 C.3      12 GLL5        0.0000 
     76 CA         43.2255    4.1965  -25.3387 C.3       4 GLC5        0.0000 
     77 CA         43.6740    3.5700  -27.2740 C.3       8 GLP5        0.0000 
     78 CA         40.9696    5.2344  -25.0126 C.3       4 GLC5        0.0000 
     79 CA         43.0430    5.3040  -23.8110 C.3      12 GLL5        0.0000 
     80 CA         39.5200    4.4970  -26.3540 C.3       8 GLP5        0.0000 
     81 CA         45.7080    9.0853  -22.3347 C.3       4 GLC5        0.0000 
     82 CA         45.7160    8.4090  -20.4770 C.3       8 GLP5        0.0000 
     83 CA         42.8889    5.9010  -21.4239 C.3       4 GLC5        0.0000 
@<TRIPOS>BOND
@<TRIPOS>SUBSTRUCTURE
     1 ALC1       13 GROUP        1 X    ALC  0     ROOT ALC X 1
     2 SEC2        1 GROUP        1 X    SEC  0     **** SEC X 2
     3 LYC4       53 GROUP        1 X    LYC  0     **** LYC X 4
     4 GLC5        4 GROUP        1 X    GLC  0     **** GLC X 6
     5 ALP1       15 GROUP        1 Y    ALP  0     ROOT ALP Y 8
     6 SEP2        3 GROUP        1 Y    SEP  0     **** SEP Y 9
     7 LYP4       55 GROUP        1 Y    LYP  0     **** LYP Y 11
     8 GLP5        6 GROUP        1 Y    GLP  0     **** GLP Y 13
     9 ALL1       14 GROUP        1 Z    ALL  0     ROOT ALL Z 15
    10 SEL2        2 GROUP        1 Z    SEL  0     **** SEL Z 16
    11 LYL4       54 GROUP        1 Z    LYL  0     **** LYL Z 18
    12 GLL5        5 GROUP        1 Z    GLL  0     **** GLL Z 20
@<TRIPOS>SET

