#    Name: 3ia4_MTX_1_ligand
#    Modification time : Tue Mar 25 16:01:54 2014

@<TRIPOS>MOLECULE
3ia4_MTX_1_ligand
   53    55     1     0     0
SMALL
NO_CHARGES


@<TRIPOS>ATOM
      1 N1         46.1280    2.1970  -18.4130 N.ar      1 MTX164      0.0000 
      2 C2         46.9270    1.1100  -18.4630 C.ar      1 MTX164      0.0000 
      3 NA2        48.0850    1.1640  -17.7780 N.pl3     1 MTX164      0.0000 
      4 N3         46.5730    0.0110  -19.1930 N.ar      1 MTX164      0.0000 
      5 C4         45.4050   -0.0170  -19.9040 C.ar      1 MTX164      0.0000 
      6 NA4        45.0940   -1.1100  -20.5580 N.pl3     1 MTX164      0.0000 
      7 C4A        44.6100    1.0860  -19.8890 C.ar      1 MTX164      0.0000 
      8 N5         43.4560    1.0890  -20.6380 N.ar      1 MTX164      0.0000 
      9 C6         42.6520    2.2000  -20.6060 C.ar      1 MTX164      0.0000 
     10 C7         42.9730    3.3450  -19.8790 C.ar      1 MTX164      0.0000 
     11 N8         44.1650    3.3480  -19.1410 N.ar      1 MTX164      0.0000 
     12 C8A        44.9590    2.2060  -19.1560 C.ar      1 MTX164      0.0000 
     13 C9         41.3680    2.1400  -21.4250 C.3       1 MTX164      0.0000 
     14 N10        40.7140    3.4400  -21.5740 N.pl3     1 MTX164      0.0000 
     15 CM         39.3930    3.5950  -20.9180 C.3       1 MTX164      0.0000 
     16 C11        42.4000    6.5420  -23.8590 C.ar      1 MTX164      0.0000 
     17 C12        41.1910    6.7370  -23.2040 C.ar      1 MTX164      0.0000 
     18 C13        40.6230    5.7200  -22.4640 C.ar      1 MTX164      0.0000 
     19 C14        41.2880    4.4990  -22.3480 C.ar      1 MTX164      0.0000 
     20 C15        42.5110    4.3420  -22.9960 C.ar      1 MTX164      0.0000 
     21 C16        43.0430    5.3040  -23.8110 C.ar      1 MTX164      0.0000 
     22 C          43.0810    7.6030  -24.6110 C.2       1 MTX164      0.0000 
     23 O          42.3760    8.6530  -25.1780 O.2       1 MTX164      0.0000 
     24 N          44.4080    7.5150  -24.6660 N.am      1 MTX164      0.0000 
     25 CA         45.2400    8.3640  -25.4700 C.3       1 MTX164      0.0000 
     26 CT         46.1670    7.5060  -26.3020 C.2       1 MTX164      0.0000 
     27 O1         46.5260    6.3740  -25.8580 O.co2     1 MTX164      0.0000 
     28 O2         46.5900    7.9460  -27.4000 O.co2     1 MTX164      0.0000 
     29 CB         46.1210    9.2860  -24.6170 C.3       1 MTX164      0.0000 
     30 CG         45.2790   10.2370  -23.7680 C.3       1 MTX164      0.0000 
     31 CD         44.5000   11.2830  -24.5720 C.2       1 MTX164      0.0000 
     32 OE1        43.7890   12.1550  -23.9920 O.co2     1 MTX164      0.0000 
     33 OE2        44.5390   11.3080  -25.8200 O.co2     1 MTX164      0.0000 
     34 H          48.6831    0.3669  -17.8613 H         1 MTX164      0.0000 
     35 H          48.2437    1.9964  -17.2470 H         1 MTX164      0.0000 
     36 H          45.8619   -1.6660  -20.8761 H         1 MTX164      0.0000 
     37 H          44.1174   -1.2876  -20.6789 H         1 MTX164      0.0000 
     38 H          42.3643    4.1548  -19.8813 H         1 MTX164      0.0000 
     39 H          40.6849    1.4167  -20.9385 H         1 MTX164      0.0000 
     40 H          41.6143    1.7148  -22.4175 H         1 MTX164      0.0000 
     41 H          40.7158    7.6526  -23.2737 H         1 MTX164      0.0000 
     42 H          39.7178    5.8542  -21.9995 H         1 MTX164      0.0000 
     43 H          43.0378    3.4461  -22.8466 H         1 MTX164      0.0000 
     44 H          43.8760    5.1358  -24.3665 H         1 MTX164      0.0000 
     45 H          44.9233    6.7841  -24.0944 H         1 MTX164      0.0000 
     46 H          44.6635    8.9762  -26.1385 H         1 MTX164      0.0000 
     47 H          46.7689    9.8675  -25.2745 H         1 MTX164      0.0000 
     48 H          46.7458    8.6761  -23.9629 H         1 MTX164      0.0000 
     49 H          45.9389   10.7582  -23.0527 H         1 MTX164      0.0000 
     50 H          44.5648    9.6454  -23.1691 H         1 MTX164      0.0000 
     51 H          39.4508    3.4564  -19.9293 H         1 MTX164      0.0000 
     52 H          39.0105    4.5073  -21.0642 H         1 MTX164      0.0000 
     53 H          38.7253    2.9378  -21.2676 H         1 MTX164      0.0000 
@<TRIPOS>BOND
     1    2    1 ar   
     2   12    1 ar   
     3    3    2 1    
     4    4    2 ar   
     5   34    3 1    
     6   35    3 1    
     7    5    4 ar   
     8    6    5 1    
     9    7    5 ar   
    10   36    6 1    
    11   37    6 1    
    12    8    7 ar   
    13   12    7 ar   
    14    9    8 ar   
    15   10    9 ar   
    16   13    9 1    
    17   11   10 ar   
    18   38   10 1    
    19   12   11 ar   
    20   14   13 1    
    21   39   13 1    
    22   40   13 1    
    23   15   14 1    
    24   19   14 1    
    25   51   15 1    
    26   52   15 1    
    27   53   15 1    
    28   17   16 ar   
    29   21   16 ar   
    30   22   16 1    
    31   18   17 ar   
    32   41   17 1    
    33   19   18 ar   
    34   42   18 1    
    35   20   19 ar   
    36   21   20 ar   
    37   43   20 1    
    38   44   21 1    
    39   23   22 2    
    40   24   22 am   
    41   25   24 1    
    42   45   24 1    
    43   26   25 1    
    44   29   25 1    
    45   46   25 1    
    46   27   26 ar   
    47   28   26 ar   
    48   30   29 1    
    49   47   29 1    
    50   48   29 1    
    51   31   30 1    
    52   49   30 1    
    53   50   30 1    
    54   32   31 ar   
    55   33   31 ar   
@<TRIPOS>SUBSTRUCTURE
     1 MTX164      1 GROUP   
@<TRIPOS>SET

