#    Name: 1RYA_1_CAVITY_N1_6.mol2
#    Modification time : Tue Mar 11 07:14:39 2014

@<TRIPOS>MOLECULE
1RYA_1_CAVITY_N1_6.mol2
  124     0     7     0     0
SMALL
NO_CHARGES


@<TRIPOS>ATOM
      1 O          31.4387   27.6661   48.1071 O.2       2 ALA2        0.0000 
      2 OG         32.5060   27.3251   47.1098 O.2       1 SER1        0.0000 
      3 NZ         26.2134   29.3142   50.9758 N.2       4 LYS4        0.0000 
      4 NZ         27.2807   28.9733   49.9786 N.2       4 LYS4        0.0000 
      5 OD1        29.4153   28.2913   47.9840 O.3       3 ASP3        0.0000 
      6 OG         30.4827   27.9503   46.9867 O.2       1 SER1        0.0000 
      7 CA         26.3247   29.2574   48.8582 C.3       6 GLY6        0.0000 
      8 CZ         29.5266   28.2344   45.8664 C.ar      5 PHE5        0.0000 
      9 O          31.8823   29.0989   48.0920 O.2       2 ALA2        0.0000 
     10 O          32.9497   28.7579   47.0947 O.2       2 ALA2        0.0000 
     11 N          30.9263   29.3831   46.9716 N.2       2 ALA2        0.0000 
     12 CA         29.9702   29.6672   45.8512 C.3       6 GLY6        0.0000 
     13 O          32.3259   30.5318   48.0768 O.2       2 ALA2        0.0000 
     14 O          33.3933   30.1908   47.0795 O.2       2 ALA2        0.0000 
     15 OD1        34.4606   29.8498   46.0823 O.3       3 ASP3        0.0000 
     16 N          31.3699   30.8159   46.9564 N.2       2 ALA2        0.0000 
     17 OG         32.4372   30.4749   45.9592 O.2       1 SER1        0.0000 
     18 CZ         33.5045   30.1339   44.9619 C.ar      5 PHE5        0.0000 
     19 CZ         31.4811   30.7591   44.8388 C.ar      5 PHE5        0.0000 
     20 O          32.7695   31.9646   48.0616 O.2       2 ALA2        0.0000 
     21 O          33.8369   31.6236   47.0644 O.2       2 ALA2        0.0000 
     22 OG         34.9042   31.2826   46.0671 O.2       1 SER1        0.0000 
     23 NZ         31.8135   32.2487   46.9413 N.2       4 LYS4        0.0000 
     24 NZ         32.8808   31.9077   45.9440 N.2       4 LYS4        0.0000 
     25 OG         33.9481   31.5667   44.9467 O.2       1 SER1        0.0000 
     26 NZ         31.9248   32.1919   44.8236 N.2       4 LYS4        0.0000 
     27 NZ         33.3244   33.3406   45.9288 N.2       4 LYS4        0.0000 
     28 N          32.0200   22.7994   50.3933 N.2       2 ALA2        0.0000 
     29 CA         33.0873   22.4584   49.3961 C.3       6 GLY6        0.0000 
     30 N          29.9966   23.4245   50.2702 N.2       2 ALA2        0.0000 
     31 N          31.0640   23.0835   49.2730 N.2       2 ALA2        0.0000 
     32 CA         32.1313   22.7425   48.2757 C.3       6 GLY6        0.0000 
     33 DU         26.9059   24.3906   51.1444 H         7 CUB7        0.0000 
     34 DU         27.9733   24.0496   50.1471 H         7 CUB7        0.0000 
     35 DU         30.1079   23.3676   48.1526 H         7 CUB7        0.0000 
     36 CA         31.1752   23.0267   47.1553 C.3       6 GLY6        0.0000 
     37 DU         23.8153   25.3568   52.0186 H         7 CUB7        0.0000 
     38 DU         24.8826   25.0158   51.0213 H         7 CUB7        0.0000 
     39 CZ         25.9499   24.6748   50.0240 C.ar      5 PHE5        0.0000 
     40 DU         27.0172   24.3338   49.0268 H         7 CUB7        0.0000 
     41 DU         28.0845   23.9928   48.0295 H         7 CUB7        0.0000 
     42 CZ         29.1519   23.6518   47.0322 C.ar      5 PHE5        0.0000 
     43 CZ         30.2192   23.3108   46.0350 C.ar      5 PHE5        0.0000 
     44 CA         31.2865   22.9698   45.0377 C.3       6 GLY6        0.0000 
     45 O          22.8592   25.6409   50.8982 O.2       2 ALA2        0.0000 
     46 O          23.9265   25.2999   49.9009 O.2       2 ALA2        0.0000 
     47 CZ         24.9938   24.9589   48.9037 C.ar      5 PHE5        0.0000 
     48 DU         26.0612   24.6179   47.9064 H         7 CUB7        0.0000 
     49 CZ         27.1285   24.2769   46.9091 C.ar      5 PHE5        0.0000 
     50 CZ         28.1958   23.9359   45.9119 C.ar      5 PHE5        0.0000 
     51 O          24.0378   25.2431   47.7833 O.2       2 ALA2        0.0000 
     52 O          25.1051   24.9021   46.7860 O.2       2 ALA2        0.0000 
     53 N          29.3729   25.1983   51.2523 N.2       2 ALA2        0.0000 
     54 N          30.4403   24.8573   50.2551 N.2       2 ALA2        0.0000 
     55 N          31.5076   24.5163   49.2578 N.2       2 ALA2        0.0000 
     56 N          32.5749   24.1753   48.2605 N.2       2 ALA2        0.0000 
     57 CA         24.1476   26.8464   54.1211 C.3       6 GLY6        0.0000 
     58 O          25.2149   26.5055   53.1238 O.2       2 ALA2        0.0000 
     59 O          26.2822   26.1645   52.1265 O.2       2 ALA2        0.0000 
     60 O          27.3496   25.8235   51.1292 O.2       2 ALA2        0.0000 
     61 N          28.4169   25.4825   50.1320 N.2       2 ALA2        0.0000 
     62 DU         29.4842   25.1415   49.1347 H         7 CUB7        0.0000 
     63 DU         30.5515   24.8005   48.1374 H         7 CUB7        0.0000 
     64 N          31.6188   24.4595   47.1402 N.2       2 ALA2        0.0000 
     65 N          32.6862   24.1185   46.1429 N.2       2 ALA2        0.0000 
     66 CA         23.1915   27.1306   53.0007 C.3       6 GLY6        0.0000 
     67 CA         24.2589   26.7896   52.0034 C.3       6 GLY6        0.0000 
     68 DU         25.3262   26.4486   51.0062 H         7 CUB7        0.0000 
     69 DU         26.3935   26.1076   50.0089 H         7 CUB7        0.0000 
     70 DU         27.4608   25.7666   49.0116 H         7 CUB7        0.0000 
     71 DU         29.5955   25.0846   47.0171 H         7 CUB7        0.0000 
     72 OG         30.6628   24.7436   46.0198 O.2       1 SER1        0.0000 
     73 OG         31.7301   24.4026   45.0225 O.2       1 SER1        0.0000 
     74 O          23.3028   27.0737   50.8831 O.2       2 ALA2        0.0000 
     75 O          24.3701   26.7327   49.8858 O.2       2 ALA2        0.0000 
     76 DU         25.4374   26.3917   48.8885 H         7 CUB7        0.0000 
     77 CA         26.5048   26.0507   47.8912 C.3       6 GLY6        0.0000 
     78 CA         27.5721   25.7098   46.8940 C.3       6 GLY6        0.0000 
     79 CZ         28.6394   25.3688   45.8967 C.ar      5 PHE5        0.0000 
     80 CZ         29.7067   25.0278   44.8994 C.ar      5 PHE5        0.0000 
     81 O          24.4814   26.6759   47.7681 O.2       2 ALA2        0.0000 
     82 CA         25.5487   26.3349   46.7709 C.3       6 GLY6        0.0000 
     83 N          30.8839   26.2902   50.2399 N.2       2 ALA2        0.0000 
     84 O          31.9512   25.9492   49.2426 O.2       2 ALA2        0.0000 
     85 O          33.0185   25.6082   48.2454 O.2       2 ALA2        0.0000 
     86 N          28.8605   26.9153   50.1168 N.2       2 ALA2        0.0000 
     87 N          29.9278   26.5743   49.1195 N.2       2 ALA2        0.0000 
     88 DU         30.9951   26.2333   48.1223 H         7 CUB7        0.0000 
     89 OG         32.0624   25.8923   47.1250 O.2       1 SER1        0.0000 
     90 CA         24.7025   28.2224   51.9883 C.3       6 GLY6        0.0000 
     91 O          25.7698   27.8814   50.9910 O.2       2 ALA2        0.0000 
     92 O          26.8371   27.5404   49.9937 O.2       2 ALA2        0.0000 
     93 OD1        27.9044   27.1994   48.9964 O.3       3 ASP3        0.0000 
     94 OD1        28.9717   26.8584   47.9992 O.3       3 ASP3        0.0000 
     95 OG         30.0391   26.5174   47.0019 O.2       1 SER1        0.0000 
     96 O          23.7464   28.5066   50.8679 O.2       2 ALA2        0.0000 
     97 CA         24.8137   28.1656   49.8706 C.3       6 GLY6        0.0000 
     98 CA         25.8810   27.8246   48.8734 C.3       6 GLY6        0.0000 
     99 O          26.9484   27.4836   47.8761 O.2       2 ALA2        0.0000 
    100 O          28.0157   27.1426   46.8788 O.2       2 ALA2        0.0000 
    101 OG         29.0830   26.8016   45.8815 O.2       1 SER1        0.0000 
    102 N          24.9250   28.1087   47.7530 N.2       2 ALA2        0.0000 
    103 CZ         26.7537   19.6943   48.0750 C.ar      5 PHE5        0.0000 
    104 CZ         27.8210   19.3533   47.0777 C.ar      5 PHE5        0.0000 
    105 CZ         25.7977   19.9785   46.9546 C.ar      5 PHE5        0.0000 
    106 CZ         29.2207   20.5020   48.1829 C.ar      5 PHE5        0.0000 
    107 CZ         27.1973   21.1271   48.0598 C.ar      5 PHE5        0.0000 
    108 CZ         28.2646   20.7861   47.0626 C.ar      5 PHE5        0.0000 
    109 CZ         26.2413   21.4113   46.9395 C.ar      5 PHE5        0.0000 
    110 CZ         24.2179   22.0364   46.8164 C.ar      5 PHE5        0.0000 
    111 O          25.2852   21.6954   45.8191 O.2       2 ALA2        0.0000 
    112 N          32.6437   21.0255   49.4112 N.2       2 ALA2        0.0000 
    113 CA         30.6204   21.6507   49.2881 C.3       6 GLY6        0.0000 
    114 CZ         27.5297   22.6168   50.1623 C.ar      5 PHE5        0.0000 
    115 DU         28.5970   22.2758   49.1650 H         7 CUB7        0.0000 
    116 CZ         29.6643   21.9348   48.1678 C.ar      5 PHE5        0.0000 
    117 CZ         26.5736   22.9010   49.0419 C.ar      5 PHE5        0.0000 
    118 CZ         27.6409   22.5600   48.0447 C.ar      5 PHE5        0.0000 
    119 CZ         23.4829   23.8671   49.9161 C.ar      5 PHE5        0.0000 
    120 CZ         25.6176   23.1851   47.9216 C.ar      5 PHE5        0.0000 
    121 CZ         26.6849   22.8441   46.9243 C.ar      5 PHE5        0.0000 
    122 CZ         23.5942   23.8102   47.7985 C.ar      5 PHE5        0.0000 
    123 O          24.6615   23.4692   46.8012 O.2       2 ALA2        0.0000 
    124 O          25.7288   23.1282   45.8039 O.2       2 ALA2        0.0000 
@<TRIPOS>BOND
@<TRIPOS>SUBSTRUCTURE
     1 SER1        2 GROUP   
     2 ALA2        1 GROUP   
     3 ASP3        5 GROUP   
     4 LYS4        3 GROUP   
     5 PHE5        8 GROUP   
     6 GLY6        7 GROUP   
     7 CUB7       33 GROUP   
@<TRIPOS>SET

