#    Name: 1rya_GDP_1_INTS_M
#    Modification time : Tue Mar 25 01:29:26 2014

@<TRIPOS>MOLECULE
1rya_GDP_1_INTS_M
   41     0    15     0     0
SMALL
NO_CHARGES


@<TRIPOS>ATOM
      1 NZ         33.4365   27.1330   48.5375 N.4       3 LYC4        0.0000 
      2 NZ         32.0860   26.7960   48.3000 N.4      13 LYL4        0.0000 
      3 NZ         35.0900   28.6160   49.3810 N.4       8 LYP4        0.0000 
      4 N          33.4365   27.1330   48.5375 N.am      2 SEC2        0.0000 
      5 N          32.0860   26.7960   48.3000 N.am     12 SEL2        0.0000 
      6 N          34.7870   27.4700   48.7750 N.am      7 SEP2        0.0000 
      7 NZ         32.6395   29.1770   49.4225 N.4       3 LYC4        0.0000 
      8 NZ         31.1650   28.9670   49.0140 N.4      13 LYL4        0.0000 
      9 Zn         30.4935   29.3935   49.6590 Zn        4 ZIC7        0.0000 
     10 Zn         31.1650   28.9670   49.0140 Zn       14 ZIL7        0.0000 
     11 Zn         29.8220   29.8200   50.3040 Zn        9 ZIP7        0.0000 
     12 N          32.6395   29.1770   49.4225 N.am      2 SEC2        0.0000 
     13 N          31.1650   28.9670   49.0140 N.am     12 SEL2        0.0000 
     14 N          34.1140   29.3870   49.8310 N.am      7 SEP2        0.0000 
     15 N          26.8245   28.5415   46.5770 N.am      2 SEC2        0.0000 
     16 N          27.2930   27.5690   47.5180 N.am     12 SEL2        0.0000 
     17 N          26.3560   29.5140   45.6360 N.am      7 SEP2        0.0000 
     18 Zn         29.0990   29.1800   49.9670 Zn        4 ZIC7        0.0000 
     19 Zn         28.3760   28.5400   49.6300 Zn       14 ZIL7        0.0000 
     20 N          28.3405   28.4000   51.3585 N.am      2 SEC2        0.0000 
     21 N          28.3760   28.5400   49.6300 N.am     12 SEL2        0.0000 
     22 N          28.3050   28.2600   53.0870 N.am      7 SEP2        0.0000 
     23 CA         29.3665   26.4350   52.2690 C.3       5 GLC5        0.0000 
     24 CA         28.4040   25.5990   50.5460 C.3      15 GLL5        0.0000 
     25 CA         30.3290   27.2710   53.9920 C.3      10 GLP5        0.0000 
     26 N          25.3620   23.9555   44.9760 N.am      2 SEC2        0.0000 
     27 N          25.7000   23.4380   46.3200 N.am     12 SEL2        0.0000 
     28 N          25.0240   24.4730   43.6320 N.am      7 SEP2        0.0000 
     29 N          22.6625   20.4200   45.3435 N.am      2 SEC2        0.0000 
     30 N          23.7000   21.3980   45.3100 N.am     12 SEL2        0.0000 
     31 N          21.6250   19.4420   45.3770 N.am      7 SEP2        0.0000 
     32 N          23.4490   22.2820   44.2605 N.am      2 SEC2        0.0000 
     33 N          23.1980   23.1660   43.2110 N.am      7 SEP2        0.0000 
     34 O          24.2765   18.6845   46.2095 O.2       1 ALC1        0.0000 
     35 O          24.9700   19.8400   46.2990 O.2      11 ALL1        0.0000 
     36 O          23.5830   17.5290   46.1200 O.2       6 ALP1        0.0000 
     37 O          24.8610   17.8445   46.7575 O.2       1 ALC1        0.0000 
     38 O          26.1390   18.1600   47.3950 O.2      11 ALL1        0.0000 
     39 CA         28.8867   22.2850   46.5830 C.3       5 GLC5        0.0000 
     40 CA         28.4070   22.7540   48.6630 C.3      15 GLL5        0.0000 
     41 CA         28.7550   21.4260   44.6900 C.3      10 GLP5        0.0000 
@<TRIPOS>BOND
@<TRIPOS>SUBSTRUCTURE
     1 ALC1       34 GROUP        1 X    ALC  0     ROOT ALC X 1
     2 SEC2        4 GROUP        1 X    SEC  0     **** SEC X 2
     3 LYC4        1 GROUP        1 X    LYC  0     **** LYC X 4
     4 ZIC7        9 GROUP        1 X    ZIC  0     **** ZIC X 5
     5 GLC5       23 GROUP        1 X    GLC  0     **** GLC X 6
     6 ALP1       36 GROUP        1 Y    ALP  0     ROOT ALP Y 8
     7 SEP2        6 GROUP        1 Y    SEP  0     **** SEP Y 9
     8 LYP4        3 GROUP        1 Y    LYP  0     **** LYP Y 11
     9 ZIP7       11 GROUP        1 Y    ZIP  0     **** ZIP Y 12
    10 GLP5       25 GROUP        1 Y    GLP  0     **** GLP Y 13
    11 ALL1       35 GROUP        1 Z    ALL  0     ROOT ALL Z 15
    12 SEL2        5 GROUP        1 Z    SEL  0     **** SEL Z 16
    13 LYL4        2 GROUP        1 Z    LYL  0     **** LYL Z 18
    14 ZIL7       10 GROUP        1 Z    ZIL  0     **** ZIL Z 19
    15 GLL5       24 GROUP        1 Z    GLL  0     **** GLL Z 20
@<TRIPOS>SET

