#    Name: 1rya_GDP_1_ligand
#    Modification time : Tue Mar 25 01:29:26 2014

@<TRIPOS>MOLECULE
1rya_GDP_1_ligand
   40    42     1     0     0
SMALL
NO_CHARGES


@<TRIPOS>ATOM
      1 PB         31.1260   27.8770   47.9700 P.3       1 GDP770      0.0000 
      2 O1B        32.0860   26.7960   48.3000 O.co2     1 GDP770      0.0000 
      3 O2B        31.3110   28.3720   46.5480 O.co2     1 GDP770      0.0000 
      4 O3B        31.1650   28.9670   49.0140 O.co2     1 GDP770      0.0000 
      5 O3A        29.7130   27.1070   48.0460 O.3       1 GDP770      0.0000 
      6 PA         28.2620   27.4240   48.6240 P.3       1 GDP770      0.0000 
      7 O1A        27.2930   27.5690   47.5180 O.co2     1 GDP770      0.0000 
      8 O2A        28.3760   28.5400   49.6300 O.co2     1 GDP770      0.0000 
      9 O5'        27.9030   26.0240   49.2850 O.3       1 GDP770      0.0000 
     10 C5'        28.4040   25.5990   50.5460 C.3       1 GDP770      0.0000 
     11 C4'        28.8910   24.1540   50.4880 C.3       1 GDP770      0.0000 
     12 O4'        27.9060   23.3440   49.8540 O.3       1 GDP770      0.0000 
     13 C3'        30.1460   23.9300   49.6680 C.3       1 GDP770      0.0000 
     14 O3'        30.8940   22.8620   50.2540 O.3       1 GDP770      0.0000 
     15 C2'        29.6300   23.5340   48.2890 C.3       1 GDP770      0.0000 
     16 O2'        30.4920   22.7070   47.5450 O.3       1 GDP770      0.0000 
     17 C1'        28.4070   22.7540   48.6630 C.3       1 GDP770      0.0000 
     18 N9         27.3130   22.7830   47.6830 N.pl3     1 GDP770      0.0000 
     19 C8         26.7350   23.8710   47.0780 C.2       1 GDP770      0.0000 
     20 N7         25.7000   23.4380   46.3200 N.2       1 GDP770      0.0000 
     21 C5         25.6210   22.0890   46.4410 C.2       1 GDP770      0.0000 
     22 C6         24.7460   21.1400   45.9300 C.2       1 GDP770      0.0000 
     23 O6         23.7000   21.3980   45.3100 O.2       1 GDP770      0.0000 
     24 N1         24.9700   19.8400   46.2990 N.am      1 GDP770      0.0000 
     25 C2         25.9860   19.4620   47.1420 C.2       1 GDP770      0.0000 
     26 N2         26.1390   18.1600   47.3950 N.pl3     1 GDP770      0.0000 
     27 N3         26.8330   20.3850   47.6700 N.2       1 GDP770      0.0000 
     28 C4         26.6190   21.6720   47.3160 C.2       1 GDP770      0.0000 
     29 H          27.6330   25.6588   51.3328 H         1 GDP770      0.0000 
     30 H          29.2509   26.2222   50.8799 H         1 GDP770      0.0000 
     31 H          29.0697   23.7942   51.4895 H         1 GDP770      0.0000 
     32 H          30.6748   24.8325   49.5954 H         1 GDP770      0.0000 
     33 H          29.3101   24.4127   47.7879 H         1 GDP770      0.0000 
     34 H          28.6930   21.7298   48.8685 H         1 GDP770      0.0000 
     35 H          27.0237   24.7807   47.1816 H         1 GDP770      0.0000 
     36 H          24.3305   19.0902   45.9170 H         1 GDP770      0.0000 
     37 H          26.8835   17.9171   48.0168 H         1 GDP770      0.0000 
     38 H          25.4953   17.5447   46.9399 H         1 GDP770      0.0000 
     39 H          30.9564   22.1666   49.5381 H         1 GDP770      0.0000 
     40 H          29.8877   22.0851   47.0468 H         1 GDP770      0.0000 
@<TRIPOS>BOND
     1    2    1 ar   
     2    3    1 ar   
     3    4    1 ar   
     4    5    1 1    
     5    6    5 1    
     6    7    6 ar   
     7    8    6 ar   
     8    9    6 1    
     9   10    9 1    
    10   11   10 1    
    11   29   10 1    
    12   30   10 1    
    13   12   11 1    
    14   13   11 1    
    15   31   11 1    
    16   17   12 1    
    17   14   13 1    
    18   15   13 1    
    19   32   13 1    
    20   39   14 1    
    21   16   15 1    
    22   17   15 1    
    23   33   15 1    
    24   40   16 1    
    25   18   17 1    
    26   34   17 1    
    27   19   18 1    
    28   28   18 1    
    29   20   19 2    
    30   35   19 1    
    31   21   20 1    
    32   22   21 1    
    33   28   21 2    
    34   23   22 2    
    35   24   22 am   
    36   25   24 1    
    37   36   24 1    
    38   26   25 1    
    39   27   25 2    
    40   37   26 1    
    41   38   26 1    
    42   28   27 1    
@<TRIPOS>SUBSTRUCTURE
     1 GDP770      1 GROUP   
@<TRIPOS>SET

