#    Name: 4j8t_DOG_2_INTS_M
#    Modification time : Tue Mar 25 05:35:25 2014

@<TRIPOS>MOLECULE
4j8t_DOG_2_INTS_M
   61     0     9     0     0
SMALL
NO_CHARGES


@<TRIPOS>ATOM
      1 N          -0.8780  -23.5950   30.5755 N.am      2 SEC2        0.0000 
      2 N          -0.2230  -24.6320   31.2040 N.am      8 SEL2        0.0000 
      3 N          -1.5330  -22.5580   29.9470 N.am      5 SEP2        0.0000 
      4 CA          2.1095  -26.2135   31.8805 C.3       3 GLC5        0.0000 
      5 CA          0.2140  -26.8820   31.8710 C.3       9 GLL5        0.0000 
      6 CA          4.0050  -25.5450   31.8900 C.3       6 GLP5        0.0000 
      7 CA          0.6365  -28.1125   30.2720 C.3       3 GLC5        0.0000 
      8 CA          1.0590  -29.3430   28.6730 C.3       6 GLP5        0.0000 
      9 CA         -1.8720  -24.8535   34.4960 C.3       3 GLC5        0.0000 
     10 CA         -1.0800  -26.5740   33.6290 C.3       9 GLL5        0.0000 
     11 CA         -2.6640  -23.1330   35.3630 C.3       6 GLP5        0.0000 
     12 CA         -4.1880  -29.1000   32.5640 C.3       3 GLC5        0.0000 
     13 CA         -2.2960  -29.5790   32.2770 C.3       9 GLL5        0.0000 
     14 CA         -6.0800  -28.6210   32.8510 C.3       6 GLP5        0.0000 
     15 CA         -1.2945  -29.3815   30.3630 C.3       3 GLC5        0.0000 
     16 CA         -0.2930  -29.1840   28.4490 C.3       6 GLP5        0.0000 
     17 CA         -2.6820  -28.2135   31.2415 C.3       3 GLC5        0.0000 
     18 CA         -3.0680  -26.8480   30.2060 C.3       6 GLP5        0.0000 
     19 CA         -3.5790  -30.3540   31.0580 C.3       3 GLC5        0.0000 
     20 CA         -4.8620  -31.1290   29.8390 C.3       6 GLP5        0.0000 
     21 N           0.6570  -30.6170   30.4800 N.am      2 SEC2        0.0000 
     22 N          -0.1930  -31.1140   31.2510 N.am      8 SEL2        0.0000 
     23 N           1.5070  -30.1200   29.7090 N.am      5 SEP2        0.0000 
     24 CA         -0.6560  -28.5970   36.7790 C.3       3 GLC5        0.0000 
     25 CA         -0.1590  -30.0620   35.3130 C.3       9 GLL5        0.0000 
     26 CA         -1.1530  -27.1320   38.2450 C.3       6 GLP5        0.0000 
     27 O          -3.6665  -29.2465   34.9235 O.2       1 ALC1        0.0000 
     28 O          -2.3100  -29.3120   34.9110 O.2       7 ALL1        0.0000 
     29 O          -5.0230  -29.1810   34.9360 O.2       4 ALP1        0.0000 
     30 CA         -4.0955  -30.4905   34.3900 C.3       3 GLC5        0.0000 
     31 CA         -2.2250  -31.5460   34.8080 C.3       9 GLL5        0.0000 
     32 CA         -5.9660  -29.4350   33.9720 C.3       6 GLP5        0.0000 
     33 CA         -2.6385  -29.7920   37.2805 C.3       3 GLC5        0.0000 
     34 CA         -2.4790  -31.7760   36.2660 C.3       9 GLL5        0.0000 
     35 CA         -2.7980  -27.8080   38.2950 C.3       6 GLP5        0.0000 
     36 CA         -5.2610  -32.1220   33.9285 C.3       3 GLC5        0.0000 
     37 CA         -3.7310  -33.7180   33.7250 C.3       9 GLL5        0.0000 
     38 CA         -6.7910  -30.5260   34.1320 C.3       6 GLP5        0.0000 
     39 CA         -4.4925  -33.0760   31.8940 C.3       3 GLC5        0.0000 
     40 CA         -5.2540  -32.4340   30.0630 C.3       6 GLP5        0.0000 
     41 CA          0.7455  -35.1575   32.9565 C.3       3 GLC5        0.0000 
     42 CA         -0.5840  -35.5790   34.4470 C.3       9 GLL5        0.0000 
     43 CA          2.0750  -34.7360   31.4660 C.3       6 GLP5        0.0000 
     44 CA          0.5212  -25.6246   33.9105 C.3       3 GLC5        0.0000 
     45 CA         -0.2960  -27.5390   32.8350 C.3       9 GLL5        0.0000 
     46 CA          1.6030  -24.3570   34.8300 C.3       6 GLP5        0.0000 
     47 CA         -1.8142  -26.8701   31.5985 C.3       3 GLC5        0.0000 
     48 CA          2.3150  -28.9260   33.1035 C.3       3 GLC5        0.0000 
     49 CA          0.0480  -28.9410   33.1700 C.3       9 GLL5        0.0000 
     50 CA          4.2820  -28.8350   32.3400 C.3       6 GLP5        0.0000 
     51 CA          1.5303  -29.8038   36.0953 C.3       3 GLC5        0.0000 
     52 CA          0.6480  -29.0930   34.5640 C.3       9 GLL5        0.0000 
     53 CA          2.8160  -30.0300   37.2520 C.3       6 GLP5        0.0000 
     54 CA          0.5745  -33.3177   32.0373 C.3       3 GLC5        0.0000 
     55 CA         -0.4860  -31.2990   32.5170 C.3       9 GLL5        0.0000 
     56 CA         -4.7580  -34.8007   36.3450 C.3       3 GLC5        0.0000 
     57 CA         -2.7260  -34.2330   35.8160 C.3       9 GLL5        0.0000 
     58 CA         -6.4950  -35.9950   36.5520 C.3       6 GLP5        0.0000 
     59 CA         -1.7933  -36.8653   32.9675 C.3       3 GLC5        0.0000 
     60 CA         -1.8450  -35.1920   33.7650 C.3       9 GLL5        0.0000 
     61 CA         -2.3720  -38.3450   31.8290 C.3       6 GLP5        0.0000 
@<TRIPOS>BOND
@<TRIPOS>SUBSTRUCTURE
     1 ALC1       27 GROUP        1 X    ALC  0     ROOT ALC X 1
     2 SEC2        1 GROUP        1 X    SEC  0     **** SEC X 2
     3 GLC5        4 GROUP        1 X    GLC  0     **** GLC X 6
     4 ALP1       29 GROUP        1 Y    ALP  0     ROOT ALP Y 8
     5 SEP2        3 GROUP        1 Y    SEP  0     **** SEP Y 9
     6 GLP5        6 GROUP        1 Y    GLP  0     **** GLP Y 13
     7 ALL1       28 GROUP        1 Z    ALL  0     ROOT ALL Z 15
     8 SEL2        2 GROUP        1 Z    SEL  0     **** SEL Z 16
     9 GLL5        5 GROUP        1 Z    GLL  0     **** GLL Z 20
@<TRIPOS>SET

