#    Name: 4j8t_DOG_2_ligand
#    Modification time : Tue Mar 25 05:35:25 2014

@<TRIPOS>MOLECULE
4j8t_DOG_2_ligand
   62    66     1     0     0
SMALL
NO_CHARGES


@<TRIPOS>ATOM
      1 O23        -0.2230  -24.6320   31.2040 O.2       1 DOG201      0.0000 
      2 C23        -0.2740  -25.5360   31.9950 C.2       1 DOG201      0.0000 
      3 C22         0.2140  -26.8820   31.8710 C.2       1 DOG201      0.0000 
      4 O21        -1.1680  -25.4670   32.9120 O.3       1 DOG201      0.0000 
      5 C21        -1.0800  -26.5740   33.6290 C.3       1 DOG201      0.0000 
      6 C20        -0.2960  -27.5390   32.8350 C.2       1 DOG201      0.0000 
      7 C17         0.0480  -28.9410   33.1700 C.3       1 DOG201      0.0000 
      8 C16         0.6480  -29.0930   34.5640 C.3       1 DOG201      0.0000 
      9 C13        -1.1230  -29.9880   33.0820 C.3       1 DOG201      0.0000 
     10 C18        -2.2960  -29.5790   32.2770 C.3       1 DOG201      0.0000 
     11 C12        -0.4860  -31.2990   32.5170 C.3       1 DOG201      0.0000 
     12 O12        -0.1930  -31.1140   31.2510 O.3       1 DOG201      0.0000 
     13 C14        -1.4860  -30.2230   34.5670 C.3       1 DOG201      0.0000 
     14 C15        -0.1590  -30.0620   35.3130 C.3       1 DOG201      0.0000 
     15 O14        -2.3100  -29.3120   34.9110 O.3       1 DOG201      0.0000 
     16 C8         -2.2250  -31.5460   34.8080 C.3       1 DOG201      0.0000 
     17 C7         -2.4790  -31.7760   36.2660 C.3       1 DOG201      0.0000 
     18 C9         -1.5450  -32.7540   34.1560 C.3       1 DOG201      0.0000 
     19 C11        -1.3660  -32.5000   32.7000 C.3       1 DOG201      0.0000 
     20 C10        -2.4490  -33.9790   34.3580 C.3       1 DOG201      0.0000 
     21 C19        -3.7310  -33.7180   33.7250 C.3       1 DOG201      0.0000 
     22 C5         -2.7260  -34.2330   35.8160 C.3       1 DOG201      0.0000 
     23 C6         -3.3160  -32.9800   36.4600 C.3       1 DOG201      0.0000 
     24 C4         -1.5000  -34.6010   36.5380 C.3       1 DOG201      0.0000 
     25 C3         -0.7530  -35.7550   35.9400 C.3       1 DOG201      0.0000 
     26 O32        -1.4710  -36.8320   36.1570 O.3       1 DOG201      0.0000 
     27 C2         -0.5840  -35.5790   34.4470 C.3       1 DOG201      0.0000 
     28 C1         -1.8450  -35.1920   33.7650 C.3       1 DOG201      0.0000 
     29 H           0.8040  -27.1360   31.1658 H         1 DOG201      0.0000 
     30 H          -2.0557  -27.0408   33.8523 H         1 DOG201      0.0000 
     31 H          -0.5636  -26.4404   34.5960 H         1 DOG201      0.0000 
     32 H           0.8264  -29.3160   32.4659 H         1 DOG201      0.0000 
     33 H           0.6406  -28.1225   35.0515 H         1 DOG201      0.0000 
     34 H           1.6733  -29.4369   34.4637 H         1 DOG201      0.0000 
     35 H           0.4237  -31.4613   33.1348 H         1 DOG201      0.0000 
     36 H          -0.3676  -29.7060   36.3122 H         1 DOG201      0.0000 
     37 H           0.3297  -31.0253   35.3566 H         1 DOG201      0.0000 
     38 H          -3.2270  -31.4418   34.3154 H         1 DOG201      0.0000 
     39 H          -2.9815  -30.8985   36.6879 H         1 DOG201      0.0000 
     40 H          -1.5215  -31.8979   36.7846 H         1 DOG201      0.0000 
     41 H          -0.6128  -32.9283   34.6302 H         1 DOG201      0.0000 
     42 H          -0.9037  -33.3645   32.2264 H         1 DOG201      0.0000 
     43 H          -2.3325  -32.3165   32.2336 H         1 DOG201      0.0000 
     44 H          -3.4576  -35.0244   35.9048 H         1 DOG201      0.0000 
     45 H          -4.3229  -32.8155   36.0368 H         1 DOG201      0.0000 
     46 H          -3.4538  -33.1778   37.5379 H         1 DOG201      0.0000 
     47 H          -1.7458  -34.8473   37.5959 H         1 DOG201      0.0000 
     48 H          -0.8159  -33.7238   36.5894 H         1 DOG201      0.0000 
     49 H           0.2278  -35.7888   36.3870 H         1 DOG201      0.0000 
     50 H          -0.2024  -36.5229   34.0203 H         1 DOG201      0.0000 
     51 H           0.1896  -34.8124   34.2663 H         1 DOG201      0.0000 
     52 H          -1.6432  -35.0189   32.6932 H         1 DOG201      0.0000 
     53 H          -2.5634  -36.0288   33.8216 H         1 DOG201      0.0000 
     54 H          -2.0475  -29.3930   31.3264 H         1 DOG201      0.0000 
     55 H          -3.0016  -30.2875   32.2623 H         1 DOG201      0.0000 
     56 H          -2.7218  -28.7487   32.6364 H         1 DOG201      0.0000 
     57 H          -3.6336  -33.5514   32.7438 H         1 DOG201      0.0000 
     58 H          -4.3608  -34.4875   33.8305 H         1 DOG201      0.0000 
     59 H          -4.1813  -32.9150   34.1154 H         1 DOG201      0.0000 
     60 H           0.1166  -32.0068   30.9240 H         1 DOG201      0.0000 
     61 H          -3.1111  -29.4549   34.3298 H         1 DOG201      0.0000 
     62 H          -2.3820  -36.4927   36.3915 H         1 DOG201      0.0000 
@<TRIPOS>BOND
     1    2    1 2    
     2    3    2 1    
     3    4    2 1    
     4    6    3 2    
     5   29    3 1    
     6    5    4 1    
     7    6    5 1    
     8   30    5 1    
     9   31    5 1    
    10    7    6 1    
    11    8    7 1    
    12    9    7 1    
    13   32    7 1    
    14   14    8 1    
    15   33    8 1    
    16   34    8 1    
    17   10    9 1    
    18   11    9 1    
    19   13    9 1    
    20   54   10 1    
    21   55   10 1    
    22   56   10 1    
    23   12   11 1    
    24   19   11 1    
    25   35   11 1    
    26   60   12 1    
    27   14   13 1    
    28   15   13 1    
    29   16   13 1    
    30   36   14 1    
    31   37   14 1    
    32   61   15 1    
    33   17   16 1    
    34   18   16 1    
    35   38   16 1    
    36   23   17 1    
    37   39   17 1    
    38   40   17 1    
    39   19   18 1    
    40   20   18 1    
    41   41   18 1    
    42   42   19 1    
    43   43   19 1    
    44   21   20 1    
    45   22   20 1    
    46   28   20 1    
    47   57   21 1    
    48   58   21 1    
    49   59   21 1    
    50   23   22 1    
    51   24   22 1    
    52   44   22 1    
    53   45   23 1    
    54   46   23 1    
    55   25   24 1    
    56   47   24 1    
    57   48   24 1    
    58   26   25 1    
    59   27   25 1    
    60   49   25 1    
    61   62   26 1    
    62   28   27 1    
    63   50   27 1    
    64   51   27 1    
    65   52   28 1    
    66   53   28 1    
@<TRIPOS>SUBSTRUCTURE
     1 DOG201      1 GROUP   
@<TRIPOS>SET

