#    Name: 1h6c_NDP_2_INTS_M
#    Modification time : Tue Mar 25 04:49:39 2014

@<TRIPOS>MOLECULE
1h6c_NDP_2_INTS_M
  107     0    12     0     0
SMALL
NO_CHARGES


@<TRIPOS>ATOM
      1 N          19.7395   13.6900    8.8940 N.am      2 SEC2        0.0000 
      2 N          19.6000   12.4320    8.1370 N.am     10 SEL2        0.0000 
      3 N          19.8790   14.9480    9.6510 N.am      6 SEP2        0.0000 
      4 N          16.9275    9.7100    7.7990 N.am      2 SEC2        0.0000 
      5 N          18.0910   10.5540    8.0600 N.am     10 SEL2        0.0000 
      6 N          15.7640    8.8660    7.5380 N.am      6 SEP2        0.0000 
      7 CA         15.9190   13.6360    2.9545 C.3       4 GLC5        0.0000 
      8 CA         17.3790   13.5580    4.4180 C.3      12 GLL5        0.0000 
      9 CA         14.4590   13.7140    1.4910 C.3       8 GLP5        0.0000 
     10 CA         16.4025   15.4905    4.6485 C.3       4 GLC5        0.0000 
     11 CA         15.4260   17.4230    4.8790 C.3       8 GLP5        0.0000 
     12 N          16.3570   11.9970    1.3760 N.am      2 SEC2        0.0000 
     13 N          17.8550   12.6710    1.3130 N.am     10 SEL2        0.0000 
     14 N          14.8590   11.3230    1.4390 N.am      6 SEP2        0.0000 
     15 CA         18.1445   15.3760    0.4740 C.3       4 GLC5        0.0000 
     16 CA         18.1950   14.7720    2.5500 C.3      12 GLL5        0.0000 
     17 CA         18.0940   15.9800   -1.6020 C.3       8 GLP5        0.0000 
     18 CA         17.0350   15.9970    2.0690 C.3       4 GLC5        0.0000 
     19 CA         15.8750   17.2220    1.5880 C.3       8 GLP5        0.0000 
     20 CA         18.2550   16.1435    4.0325 C.3       4 GLC5        0.0000 
     21 CA         18.3150   17.5150    5.5150 C.3       8 GLP5        0.0000 
     22 CA         20.9000   17.3035    5.1395 C.3       4 GLC5        0.0000 
     23 CA         22.2950   17.0890    3.8220 C.3      12 GLL5        0.0000 
     24 CA         19.5050   17.5180    6.4570 C.3       8 GLP5        0.0000 
     25 CA         20.6680   16.3810    5.8555 C.3       4 GLC5        0.0000 
     26 CA         21.8310   15.2440    5.2540 C.3      12 GLL5        0.0000 
     27 N          18.5880   13.8255    9.3575 N.am      2 SEC2        0.0000 
     28 N          17.2970   12.7030    9.0640 N.am     10 SEL2        0.0000 
     29 NZ         15.9270   13.0670   12.0525 N.4       3 LYC4        0.0000 
     30 NZ         15.7180   12.2150   10.8370 N.4      11 LYL4        0.0000 
     31 NZ         17.4060   14.0390   13.6340 N.4       7 LYP4        0.0000 
     32 N          15.9270   13.0670   12.0525 N.am      2 SEC2        0.0000 
     33 N          15.7180   12.2150   10.8370 N.am     10 SEL2        0.0000 
     34 N          16.1360   13.9190   13.2680 N.am      6 SEP2        0.0000 
     35 N          14.1225   10.6050    8.7320 N.am      2 SEC2        0.0000 
     36 N          14.9610   11.9410    8.5310 N.am     10 SEL2        0.0000 
     37 N          13.2840    9.2690    8.9330 N.am      6 SEP2        0.0000 
     38 CA         15.0925   16.1675    6.6285 C.3       4 GLC5        0.0000 
     39 CA         14.7590   14.9120    8.3780 C.3      12 GLL5        0.0000 
     40 CA         16.4520   15.6455    9.5755 C.3       4 GLC5        0.0000 
     41 CA         18.1450   16.3790   10.7730 C.3       8 GLP5        0.0000 
     42 CA         11.8305   16.8615    8.8360 C.3       4 GLC5        0.0000 
     43 CA         13.7550   15.9270    8.9250 C.3      12 GLL5        0.0000 
     44 CA          9.9060   17.7960    8.7470 C.3       8 GLP5        0.0000 
     45 CA         16.2305   16.6105   10.4070 C.3       4 GLC5        0.0000 
     46 CA         14.3160   16.8420   10.0410 C.3      12 GLL5        0.0000 
     47 N          13.6365   19.2470    8.8800 N.am      2 SEC2        0.0000 
     48 N          13.8630   18.2170    9.8430 N.am     10 SEL2        0.0000 
     49 N          13.4100   20.2770    7.9170 N.am      6 SEP2        0.0000 
     50 O          14.6600   19.1515   10.4935 O.2       1 ALC1        0.0000 
     51 O          13.8630   18.2170    9.8430 O.2       9 ALL1        0.0000 
     52 O          15.4570   20.0860   11.1440 O.2       5 ALP1        0.0000 
     53 CA         15.8535   16.9305   11.3380 C.3       4 GLC5        0.0000 
     54 CA         13.7500   16.2390   11.3470 C.3      12 GLL5        0.0000 
     55 CA         17.9570   17.6220   11.3290 C.3       8 GLP5        0.0000 
     56 N          13.0050   17.1720   13.8430 N.am      2 SEC2        0.0000 
     57 N          13.6280   17.2290   12.3880 N.am     10 SEL2        0.0000 
     58 N          12.3820   17.1150   15.2980 N.am      6 SEP2        0.0000 
     59 O          12.6510   18.1025   12.3270 O.2       1 ALC1        0.0000 
     60 O          13.6280   17.2290   12.3880 O.2       9 ALL1        0.0000 
     61 O          11.6740   18.9760   12.2660 O.2       5 ALP1        0.0000 
     62 CA         10.8750   16.0395    9.8790 C.3       4 GLC5        0.0000 
     63 CA         12.4320   15.6730   10.8810 C.3      12 GLL5        0.0000 
     64 CA          9.3180   16.4060    8.8770 C.3       8 GLP5        0.0000 
     65 CA          9.9990   15.5405   10.5945 C.3       4 GLC5        0.0000 
     66 CA         10.6800   14.6750   12.3120 C.3      12 GLL5        0.0000 
     67 N           7.2570   12.4505   15.0425 N.am      2 SEC2        0.0000 
     68 N           8.4280   12.7250   14.4690 N.am     10 SEL2        0.0000 
     69 N           6.0860   12.1760   15.6160 N.am      6 SEP2        0.0000 
     70 O           8.4370   15.7620   12.3630 O.2       1 ALC1        0.0000 
     71 O           8.1140   14.7720   13.5710 O.2       9 ALL1        0.0000 
     72 O           8.7600   16.7520   11.1550 O.2       5 ALP1        0.0000 
     73 N          18.9835   12.6260   -2.2080 N.am      2 SEC2        0.0000 
     74 N          19.2350   12.5830   -0.9330 N.am     10 SEL2        0.0000 
     75 N          18.7320   12.6690   -3.4830 N.am      6 SEP2        0.0000 
     76 N          18.5435   13.8370   -0.7560 N.am      2 SEC2        0.0000 
     77 N          17.8520   15.0910   -0.5790 N.am      6 SEP2        0.0000 
     78 NZ         18.2140    9.5525    0.3135 N.4       3 LYC4        0.0000 
     79 NZ         17.6020   10.7530   -0.3730 N.4      11 LYL4        0.0000 
     80 NZ         18.8260    8.3520    1.0000 N.4       7 LYP4        0.0000 
     81 N          16.2305   11.0380    0.5330 N.am      2 SEC2        0.0000 
     82 N          17.6020   10.7530   -0.3730 N.am     10 SEL2        0.0000 
     83 N          17.5890   10.4980   -1.6800 N.am      2 SEC2        0.0000 
     84 N          17.5760   10.2430   -2.9870 N.am      6 SEP2        0.0000 
     85 N          18.2140    9.5525    0.3135 N.am      2 SEC2        0.0000 
     86 N          18.8260    8.3520    1.0000 N.am      6 SEP2        0.0000 
     87 NZ         19.1890    9.6225    0.9125 N.4       3 LYC4        0.0000 
     88 NZ         19.5520   10.8930    0.8250 N.4      11 LYL4        0.0000 
     89 N          19.1890    9.6225    0.9125 N.am      2 SEC2        0.0000 
     90 N          19.5520   10.8930    0.8250 N.am     10 SEL2        0.0000 
     91 CA         17.9665   15.5772    5.3335 C.3       4 GLC5        0.0000 
     92 CA         16.9625   11.4921    4.8810 C.3       4 GLC5        0.0000 
     93 CA         15.9620    9.8640    5.3560 C.3       8 GLP5        0.0000 
     94 CA         16.4307   13.8775    1.9725 C.3       4 GLC5        0.0000 
     95 CA         18.6100   13.3100    2.3580 C.3      12 GLL5        0.0000 
     96 CA         19.5290   16.8893    4.3997 C.3       4 GLC5        0.0000 
     97 CA         20.3410   15.7290    3.4640 C.3      12 GLL5        0.0000 
     98 CA         20.7130   18.6253    3.1393 C.3       4 GLC5        0.0000 
     99 CA         21.1450   16.7980    3.1050 C.3      12 GLL5        0.0000 
    100 CA         19.7060   20.3070    2.8150 C.3       8 GLP5        0.0000 
    101 CA         13.0775   14.5308    7.5332 C.3       4 GLC5        0.0000 
    102 CA         11.8980   13.6420    6.4150 C.3       8 GLP5        0.0000 
    103 CA         10.7000   15.6402   13.7978 C.3       4 GLC5        0.0000 
    104 CA         10.9580   17.1410   14.8850 C.3       8 GLP5        0.0000 
    105 CA         11.9190   11.9091   11.0131 C.3       4 GLC5        0.0000 
    106 CA         12.7870   13.3810   11.9020 C.3      12 GLL5        0.0000 
    107 CA         11.6100   10.9420    9.5780 C.3       8 GLP5        0.0000 
@<TRIPOS>BOND
@<TRIPOS>SUBSTRUCTURE
     1 ALC1       50 GROUP        1 X    ALC  0     ROOT ALC X 1
     2 SEC2        1 GROUP        1 X    SEC  0     **** SEC X 2
     3 LYC4       29 GROUP        1 X    LYC  0     **** LYC X 4
     4 GLC5        7 GROUP        1 X    GLC  0     **** GLC X 6
     5 ALP1       52 GROUP        1 Y    ALP  0     ROOT ALP Y 8
     6 SEP2        3 GROUP        1 Y    SEP  0     **** SEP Y 9
     7 LYP4       31 GROUP        1 Y    LYP  0     **** LYP Y 11
     8 GLP5        9 GROUP        1 Y    GLP  0     **** GLP Y 13
     9 ALL1       51 GROUP        1 Z    ALL  0     ROOT ALL Z 15
    10 SEL2        2 GROUP        1 Z    SEL  0     **** SEL Z 16
    11 LYL4       30 GROUP        1 Z    LYL  0     **** LYL Z 18
    12 GLL5        8 GROUP        1 Z    GLL  0     **** GLL Z 20
@<TRIPOS>SET

