#    Name: 1h6c_NDP_2_ligand
#    Modification time : Tue Mar 25 04:49:39 2014

@<TRIPOS>MOLECULE
1h6c_NDP_2_ligand
   74    78     1     0     0
SMALL
NO_CHARGES


@<TRIPOS>ATOM
      1 PA         18.1950   12.0210    7.9070 P.3       1 NDP500      0.0000 
      2 O1A        19.6000   12.4320    8.1370 O.co2     1 NDP500      0.0000 
      3 O2A        18.0910   10.5540    8.0600 O.co2     1 NDP500      0.0000 
      4 O5B        17.7730   12.4140    6.4480 O.3       1 NDP500      0.0000 
      5 C5B        17.8570   13.7210    5.8860 C.3       1 NDP500      0.0000 
      6 C4B        17.3790   13.5580    4.4180 C.3       1 NDP500      0.0000 
      7 O4B        17.3910   14.8170    3.7460 O.3       1 NDP500      0.0000 
      8 C3B        18.3080   12.6010    3.6600 C.3       1 NDP500      0.0000 
      9 O3B        17.6440   11.3530    3.4680 O.3       1 NDP500      0.0000 
     10 C2B        18.6100   13.3100    2.3580 C.3       1 NDP500      0.0000 
     11 O2B        17.8550   12.6710    1.3130 O.3       1 NDP500      0.0000 
     12 C1B        18.1950   14.7720    2.5500 C.3       1 NDP500      0.0000 
     13 N9A        19.3240   15.7230    2.5850 N.pl3     1 NDP500      0.0000 
     14 C8A        19.5380   16.7690    1.7270 C.2       1 NDP500      0.0000 
     15 N7A        20.6700   17.4360    2.0530 N.2       1 NDP500      0.0000 
     16 C5A        21.1450   16.7980    3.1050 C.ar      1 NDP500      0.0000 
     17 C6A        22.2950   17.0890    3.8220 C.ar      1 NDP500      0.0000 
     18 N6A        23.0760   18.1050    3.4970 N.pl3     1 NDP500      0.0000 
     19 N1A        22.6250   16.2870    4.9110 N.ar      1 NDP500      0.0000 
     20 C2A        21.8310   15.2440    5.2540 C.ar      1 NDP500      0.0000 
     21 N3A        20.7120   14.9640    4.5540 N.ar      1 NDP500      0.0000 
     22 C4A        20.3410   15.7290    3.4640 C.ar      1 NDP500      0.0000 
     23 O3         17.2970   12.7030    9.0640 O.3       1 NDP500      0.0000 
     24 PN         15.7930   12.7350    9.4830 P.3       1 NDP500      0.0000 
     25 O1N        15.7180   12.2150   10.8370 O.co2     1 NDP500      0.0000 
     26 O2N        14.9610   11.9410    8.5310 O.co2     1 NDP500      0.0000 
     27 O5D        15.5100   14.3210    9.4490 O.3       1 NDP500      0.0000 
     28 C5D        14.7590   14.9120    8.3780 C.3       1 NDP500      0.0000 
     29 C4D        13.7550   15.9270    8.9250 C.3       1 NDP500      0.0000 
     30 O4D        12.6400   15.2330    9.4990 O.3       1 NDP500      0.0000 
     31 C3D        14.3160   16.8420   10.0410 C.3       1 NDP500      0.0000 
     32 O3D        13.8630   18.2170    9.8430 O.3       1 NDP500      0.0000 
     33 C2D        13.7500   16.2390   11.3470 C.3       1 NDP500      0.0000 
     34 O2D        13.6280   17.2290   12.3880 O.3       1 NDP500      0.0000 
     35 C1D        12.4320   15.6730   10.8810 C.3       1 NDP500      0.0000 
     36 N1N        11.9730   14.5540   11.7140 N.pl3     1 NDP500      0.0000 
     37 C2N        10.6800   14.6750   12.3120 C.2       1 NDP500      0.0000 
     38 C3N        10.2040   13.6040   13.1090 C.2       1 NDP500      0.0000 
     39 C7N         8.8090   13.6680   13.7880 C.2       1 NDP500      0.0000 
     40 O7N         8.4280   12.7250   14.4690 O.2       1 NDP500      0.0000 
     41 N7N         8.1140   14.7720   13.5710 N.am      1 NDP500      0.0000 
     42 C4N        11.0170   12.4340   13.2960 C.3       1 NDP500      0.0000 
     43 C5N        12.3210   12.3090   12.6930 C.2       1 NDP500      0.0000 
     44 C6N        12.7870   13.3810   11.9020 C.2       1 NDP500      0.0000 
     45 P2B        18.4700   11.6930    0.1170 P.3       1 NDP500      0.0000 
     46 O1X        19.2350   12.5830   -0.9330 O.co2     1 NDP500      0.0000 
     47 O2X        17.6020   10.7530   -0.3730 O.co2     1 NDP500      0.0000 
     48 O3X        19.5520   10.8930    0.8250 O.co2     1 NDP500      0.0000 
     49 H          18.8639   14.0970    5.8583 H         1 NDP500      0.0000 
     50 H          17.1972   14.4219    6.3649 H         1 NDP500      0.0000 
     51 H          16.3951   13.1264    4.4328 H         1 NDP500      0.0000 
     52 H          19.2081   12.5166    4.2250 H         1 NDP500      0.0000 
     53 H          19.6586   13.2692    2.1864 H         1 NDP500      0.0000 
     54 H          17.5418   15.0165    1.6876 H         1 NDP500      0.0000 
     55 H          18.9479   16.9959    0.9825 H         1 NDP500      0.0000 
     56 H          22.7876   18.6467    2.7075 H         1 NDP500      0.0000 
     57 H          23.8843   18.2396    4.0702 H         1 NDP500      0.0000 
     58 H          22.0919   14.6478    6.0750 H         1 NDP500      0.0000 
     59 H          14.1973   14.1553    7.8141 H         1 NDP500      0.0000 
     60 H          15.4130   15.4363    7.6685 H         1 NDP500      0.0000 
     61 H          13.4174   16.5624    8.1180 H         1 NDP500      0.0000 
     62 H          15.3660   16.7443   10.0512 H         1 NDP500      0.0000 
     63 H          14.3917   15.4213   11.6089 H         1 NDP500      0.0000 
     64 H          11.7028   16.4733   10.8869 H         1 NDP500      0.0000 
     65 H          10.1263   15.5019   12.1673 H         1 NDP500      0.0000 
     66 H           7.2265   14.8303   14.0282 H         1 NDP500      0.0000 
     67 H           8.5390   15.4484   12.9694 H         1 NDP500      0.0000 
     68 H          10.3926   11.5060   12.9989 H         1 NDP500      0.0000 
     69 H          11.1264   12.2450   14.4325 H         1 NDP500      0.0000 
     70 H          12.8669   11.4830   12.8393 H         1 NDP500      0.0000 
     71 H          13.7024   13.3368   11.4563 H         1 NDP500      0.0000 
     72 H          18.0744   10.9528    2.6589 H         1 NDP500      0.0000 
     73 H          14.3056   18.7423   10.5697 H         1 NDP500      0.0000 
     74 H          12.8185   17.7629   12.1437 H         1 NDP500      0.0000 
@<TRIPOS>BOND
     1    2    1 ar   
     2    3    1 ar   
     3    4    1 1    
     4   23    1 1    
     5    5    4 1    
     6    6    5 1    
     7   49    5 1    
     8   50    5 1    
     9    7    6 1    
    10    8    6 1    
    11   51    6 1    
    12   12    7 1    
    13    9    8 1    
    14   10    8 1    
    15   52    8 1    
    16   72    9 1    
    17   11   10 1    
    18   12   10 1    
    19   53   10 1    
    20   45   11 1    
    21   13   12 1    
    22   54   12 1    
    23   14   13 1    
    24   22   13 1    
    25   15   14 2    
    26   55   14 1    
    27   16   15 1    
    28   17   16 ar   
    29   22   16 ar   
    30   18   17 1    
    31   19   17 ar   
    32   56   18 1    
    33   57   18 1    
    34   20   19 ar   
    35   21   20 ar   
    36   58   20 1    
    37   22   21 ar   
    38   24   23 1    
    39   25   24 ar   
    40   26   24 ar   
    41   27   24 1    
    42   28   27 1    
    43   29   28 1    
    44   59   28 1    
    45   60   28 1    
    46   30   29 1    
    47   31   29 1    
    48   61   29 1    
    49   35   30 1    
    50   32   31 1    
    51   33   31 1    
    52   62   31 1    
    53   73   32 1    
    54   34   33 1    
    55   35   33 1    
    56   63   33 1    
    57   74   34 1    
    58   36   35 1    
    59   64   35 1    
    60   37   36 1    
    61   44   36 1    
    62   38   37 2    
    63   65   37 1    
    64   39   38 1    
    65   42   38 1    
    66   40   39 2    
    67   41   39 am   
    68   66   41 1    
    69   67   41 1    
    70   43   42 1    
    71   68   42 1    
    72   69   42 1    
    73   44   43 2    
    74   70   43 1    
    75   71   44 1    
    76   46   45 ar   
    77   47   45 ar   
    78   48   45 ar   
@<TRIPOS>SUBSTRUCTURE
     1 NDP500      1 GROUP   
@<TRIPOS>SET

