#    Name: 4byi_FH3_1_INTS_M
#    Modification time : Tue Mar 25 08:31:11 2014

@<TRIPOS>MOLECULE
4byi_FH3_1_INTS_M
   59     0     6     0     0
SMALL
NO_CHARGES


@<TRIPOS>ATOM
      1 CA          5.9070  -29.3200  -10.2665 C.3       2 GLC5        0.0000 
      2 CA          5.0170  -28.3700   -8.7670 C.3       6 GLL5        0.0000 
      3 CA          6.7970  -30.2700  -11.7660 C.3       4 GLP5        0.0000 
      4 CA          4.8670  -26.7960  -10.1430 C.3       2 GLC5        0.0000 
      5 CA          4.7170  -25.2220  -11.5190 C.3       4 GLP5        0.0000 
      6 CA          1.5445  -30.1435   -7.8355 C.3       2 GLC5        0.0000 
      7 CA          3.3230  -30.5020   -9.0990 C.3       6 GLL5        0.0000 
      8 CA         -0.2340  -29.7850   -6.5720 C.3       4 GLP5        0.0000 
      9 CA          5.0600  -30.3860  -10.4325 C.3       2 GLC5        0.0000 
     10 CA          2.1700  -31.3945  -10.5210 C.3       2 GLC5        0.0000 
     11 CA          1.0170  -32.2870  -11.9430 C.3       4 GLP5        0.0000 
     12 CA          3.3390  -33.4945   -8.5200 C.3       2 GLC5        0.0000 
     13 CA          2.4860  -31.8830   -7.3330 C.3       6 GLL5        0.0000 
     14 CA          4.1920  -35.1060   -9.7070 C.3       4 GLP5        0.0000 
     15 CA          4.6020  -32.0565   -7.8150 C.3       2 GLC5        0.0000 
     16 CA          6.7180  -32.2300   -8.2970 C.3       4 GLP5        0.0000 
     17 O           1.8015  -34.1190   -7.3755 O.2       1 ALC1        0.0000 
     18 O           1.7910  -32.8910   -6.6870 O.2       5 ALL1        0.0000 
     19 O           1.8120  -35.3470   -8.0640 O.2       3 ALP1        0.0000 
     20 CA         -0.0175  -32.1985   -4.4120 C.3       2 GLC5        0.0000 
     21 CA          1.4880  -33.7110   -4.1920 C.3       6 GLL5        0.0000 
     22 CA         -1.5230  -30.6860   -4.6320 C.3       4 GLP5        0.0000 
     23 CA          2.2525  -35.8155    0.6765 C.3       2 GLC5        0.0000 
     24 CA          1.2120  -34.8040   -0.7730 C.3       6 GLL5        0.0000 
     25 CA          3.2930  -36.8270    2.1260 C.3       4 GLP5        0.0000 
     26 CA         -0.7680  -34.3360   -6.9495 C.3       2 GLC5        0.0000 
     27 CA         -0.1080  -35.2250   -5.5700 C.3       6 GLL5        0.0000 
     28 CA         -1.4280  -33.4470   -8.3290 C.3       4 GLP5        0.0000 
     29 CA         -0.0400  -36.3375   -7.1850 C.3       2 GLC5        0.0000 
     30 CA          0.0280  -37.4500   -8.8000 C.3       4 GLP5        0.0000 
     31 CA          1.7880  -35.8945   -5.0025 C.3       2 GLC5        0.0000 
     32 CA          3.6840  -36.5640   -4.4350 C.3       4 GLP5        0.0000 
     33 CA          4.8745  -32.3550   -6.2870 C.3       2 GLC5        0.0000 
     34 CA          3.1880  -31.1510   -6.3620 C.3       6 GLL5        0.0000 
     35 CA          6.5610  -33.5590   -6.2120 C.3       4 GLP5        0.0000 
     36 CA          3.0210  -28.2060   -6.7100 C.3       2 GLC5        0.0000 
     37 CA          3.9980  -30.0250   -6.7780 C.3       6 GLL5        0.0000 
     38 CA          2.0440  -26.3870   -6.6420 C.3       4 GLP5        0.0000 
     39 CA          5.3580  -31.1275   -7.5375 C.3       2 GLC5        0.0000 
     40 CA          6.4145  -30.5410   -6.9290 C.3       2 GLC5        0.0000 
     41 CA          6.1110  -28.8520   -5.5610 C.3       6 GLL5        0.0000 
     42 CA          6.6740  -31.8320   -3.0645 C.3       2 GLC5        0.0000 
     43 CA          6.5610  -29.9260   -3.4580 C.3       6 GLL5        0.0000 
     44 CA          6.7870  -33.7380   -2.6710 C.3       4 GLP5        0.0000 
     45 CA          2.2030  -29.0115   -4.4580 C.3       2 GLC5        0.0000 
     46 CA          3.9310  -28.7700   -4.7010 C.3       6 GLL5        0.0000 
     47 CA          0.4750  -29.2530   -4.2150 C.3       4 GLP5        0.0000 
     48 CA          3.2893  -27.7153   -7.5542 C.3       2 GLC5        0.0000 
     49 CA          4.0520  -29.7170   -8.1660 C.3       6 GLL5        0.0000 
     50 CA          2.4919  -29.0534   -9.5694 C.3       2 GLC5        0.0000 
     51 CA          1.0550  -28.3340  -10.3560 C.3       4 GLP5        0.0000 
     52 CA          5.3234  -31.0014   -8.5399 C.3       2 GLC5        0.0000 
     53 CA          2.6703  -35.1155   -3.9795 C.3       2 GLC5        0.0000 
     54 CA          1.5918  -30.2780   -6.6924 C.3       2 GLC5        0.0000 
     55 CA          3.6207  -27.6547   -2.6510 C.3       2 GLC5        0.0000 
     56 CA          4.8740  -28.2590   -3.6770 C.3       6 GLL5        0.0000 
     57 CA          2.8390  -26.7950   -1.1130 C.3       4 GLP5        0.0000 
     58 CA          4.4315  -26.9340   -4.7684 C.3       2 GLC5        0.0000 
     59 CA          3.5850  -25.2340   -5.0240 C.3       4 GLP5        0.0000 
@<TRIPOS>BOND
@<TRIPOS>SUBSTRUCTURE
     1 ALC1       17 GROUP        1 X    ALC  0     ROOT ALC X 1
     2 GLC5        1 GROUP        1 X    GLC  0     **** GLC X 6
     3 ALP1       19 GROUP        1 Y    ALP  0     ROOT ALP Y 8
     4 GLP5        3 GROUP        1 Y    GLP  0     **** GLP Y 13
     5 ALL1       18 GROUP        1 Z    ALL  0     ROOT ALL Z 15
     6 GLL5        2 GROUP        1 Z    GLL  0     **** GLL Z 20
@<TRIPOS>SET

