#    Name: 4byi_FH3_1_ligand
#    Modification time : Tue Mar 25 08:31:11 2014

@<TRIPOS>MOLECULE
4byi_FH3_1_ligand
   50    53     1     0     0
SMALL
NO_CHARGES


@<TRIPOS>ATOM
      1 CL          5.0170  -28.3700   -8.7670 Cl        1 FH31        0.0000 
      2 C02         4.0520  -29.7170   -8.1660 C.ar      1 FH31        0.0000 
      3 C03         3.3230  -30.5020   -9.0990 C.ar      1 FH31        0.0000 
      4 N04         2.5640  -31.5480   -8.6710 N.pl3     1 FH31        0.0000 
      5 C05         2.4860  -31.8830   -7.3330 C.ar      1 FH31        0.0000 
      6 N06         1.7910  -32.8910   -6.6870 N.pl3     1 FH31        0.0000 
      7 C07         2.0470  -32.7980   -5.3210 C.2       1 FH31        0.0000 
      8 C08         1.4880  -33.7110   -4.1920 C.2       1 FH31        0.0000 
      9 C09         1.8250  -33.6230   -2.8560 C.2       1 FH31        0.0000 
     10 N10         1.1440  -34.5530   -2.2120 N.pl3     1 FH31        0.0000 
     11 C11         1.2120  -34.8040   -0.7730 C.3       1 FH31        0.0000 
     12 N12         0.3750  -35.2440   -3.0650 N.2       1 FH31        0.0000 
     13 C13         0.5770  -34.7280   -4.3030 C.2       1 FH31        0.0000 
     14 C14        -0.1080  -35.2250   -5.5700 C.3       1 FH31        0.0000 
     15 N15         2.8920  -31.7460   -5.1280 N.2       1 FH31        0.0000 
     16 C16         3.1880  -31.1510   -6.3620 C.ar      1 FH31        0.0000 
     17 C17         3.9980  -30.0250   -6.7780 C.ar      1 FH31        0.0000 
     18 N18         4.7600  -29.2310   -5.8260 N.3       1 FH31        0.0000 
     19 C19         6.1110  -28.8520   -5.5610 C.3       1 FH31        0.0000 
     20 C20         6.1960  -28.6550   -4.1120 C.3       1 FH31        0.0000 
     21 C21         6.5610  -29.9260   -3.4580 C.3       1 FH31        0.0000 
     22 N22         7.3630  -29.8680   -2.2480 N.am      1 FH31        0.0000 
     23 C23         6.6970  -29.8160   -0.9050 C.2       1 FH31        0.0000 
     24 C24         7.5220  -29.7600    0.3100 C.3       1 FH31        0.0000 
     25 O25         5.5280  -29.8170   -0.8260 O.2       1 FH31        0.0000 
     26 C26         4.8740  -28.2590   -3.6770 C.3       1 FH31        0.0000 
     27 C27         3.9310  -28.7700   -4.7010 C.3       1 FH31        0.0000 
     28 H           3.3862  -30.2575  -10.0980 H         1 FH31        0.0000 
     29 H           2.0250  -32.1156   -9.3633 H         1 FH31        0.0000 
     30 H           1.2324  -33.5393   -7.1011 H         1 FH31        0.0000 
     31 H           2.4471  -32.9869   -2.4953 H         1 FH31        0.0000 
     32 H           6.3671  -27.9270   -6.0718 H         1 FH31        0.0000 
     33 H           6.8049  -29.6316   -5.8658 H         1 FH31        0.0000 
     34 H           6.9073  -27.8995   -3.8854 H         1 FH31        0.0000 
     35 H           7.0851  -30.5820   -4.2215 H         1 FH31        0.0000 
     36 H           5.6078  -30.5043   -3.2460 H         1 FH31        0.0000 
     37 H           8.3630  -29.8618   -2.2888 H         1 FH31        0.0000 
     38 H           4.7925  -27.1796   -3.6165 H         1 FH31        0.0000 
     39 H           4.6349  -28.6966   -2.7144 H         1 FH31        0.0000 
     40 H           3.3570  -29.5912   -4.2954 H         1 FH31        0.0000 
     41 H           3.2701  -27.9768   -5.0210 H         1 FH31        0.0000 
     42 H           2.1381  -35.0429   -0.4810 H         1 FH31        0.0000 
     43 H           0.9351  -34.0027   -0.2427 H         1 FH31        0.0000 
     44 H           0.6147  -35.5577   -0.4988 H         1 FH31        0.0000 
     45 H           0.5529  -35.5495   -6.2467 H         1 FH31        0.0000 
     46 H          -0.7314  -35.9839   -5.3819 H         1 FH31        0.0000 
     47 H          -0.6464  -34.5051   -6.0079 H         1 FH31        0.0000 
     48 H           8.1189  -30.5582    0.3907 H         1 FH31        0.0000 
     49 H           8.1104  -28.9515    0.3224 H         1 FH31        0.0000 
     50 H           6.9621  -29.7278    1.1379 H         1 FH31        0.0000 
@<TRIPOS>BOND
     1    2    1 1    
     2    3    2 ar   
     3   17    2 ar   
     4    4    3 ar   
     5   28    3 1    
     6    5    4 ar   
     7   29    4 1    
     8    6    5 1    
     9   16    5 ar   
    10    7    6 1    
    11   30    6 1    
    12    8    7 1    
    13   15    7 2    
    14    9    8 2    
    15   13    8 1    
    16   10    9 1    
    17   31    9 1    
    18   11   10 1    
    19   12   10 1    
    20   42   11 1    
    21   43   11 1    
    22   44   11 1    
    23   13   12 2    
    24   14   13 1    
    25   45   14 1    
    26   46   14 1    
    27   47   14 1    
    28   16   15 1    
    29   17   16 ar   
    30   18   17 1    
    31   19   18 1    
    32   27   18 1    
    33   20   19 1    
    34   32   19 1    
    35   33   19 1    
    36   21   20 1    
    37   26   20 1    
    38   34   20 1    
    39   22   21 1    
    40   35   21 1    
    41   36   21 1    
    42   23   22 am   
    43   37   22 1    
    44   24   23 1    
    45   25   23 2    
    46   48   24 1    
    47   49   24 1    
    48   50   24 1    
    49   27   26 1    
    50   38   26 1    
    51   39   26 1    
    52   40   27 1    
    53   41   27 1    
@<TRIPOS>SUBSTRUCTURE
     1 FH31        1 GROUP   
@<TRIPOS>SET

