#    Name: 2A5B_1_CAVITY_N1_6.mol2
#    Modification time : Tue Mar 11 00:26:57 2014

@<TRIPOS>MOLECULE
2A5B_1_CAVITY_N1_6.mol2
   87     0     5     0     0
SMALL
NO_CHARGES


@<TRIPOS>ATOM
      1 OG          5.0475   32.5446   -8.0058 O.2       1 SER1        0.0000 
      2 CA          4.0533   32.3755   -6.1395 C.3       4 GLY6        0.0000 
      3 OG          4.7240   30.6326   -7.1458 O.2       1 SER1        0.0000 
      4 DU          3.4084   31.1013   -6.5986 H         5 CUB7        0.0000 
      5 CA          2.0928   31.5701   -6.0513 C.3       4 GLY6        0.0000 
      6 CZ          4.0790   29.3585   -7.6048 C.ar      3 PHE5        0.0000 
      7 CZ          2.7634   29.8272   -7.0576 C.ar      3 PHE5        0.0000 
      8 DU          1.4479   30.2960   -6.5103 H         5 CUB7        0.0000 
      9 DU          0.1323   30.7647   -5.9631 H         5 CUB7        0.0000 
     10 CZ          2.1185   28.5531   -7.5166 C.ar      3 PHE5        0.0000 
     11 CA          1.4736   27.2790   -7.9756 C.3       4 GLY6        0.0000 
     12 CA          5.0454   29.9947   -5.8268 C.3       4 GLY6        0.0000 
     13 CA          3.7298   30.4634   -5.2795 C.3       4 GLY6        0.0000 
     14 CA          2.4142   30.9322   -4.7323 C.3       4 GLY6        0.0000 
     15 CA          1.0986   31.4010   -4.1850 C.3       4 GLY6        0.0000 
     16 CA         -0.2170   31.8697   -3.6378 C.3       4 GLY6        0.0000 
     17 CZ          4.4004   28.7206   -6.2858 C.ar      3 PHE5        0.0000 
     18 CZ          3.0848   29.1893   -5.7386 C.ar      3 PHE5        0.0000 
     19 DU          1.7693   29.6581   -5.1913 H         5 CUB7        0.0000 
     20 DU          0.4537   30.1268   -4.6441 H         5 CUB7        0.0000 
     21 DU         -0.8619   30.5956   -4.0968 H         5 CUB7        0.0000 
     22 CZ          2.4399   27.9152   -6.1976 C.ar      3 PHE5        0.0000 
     23 DU          1.1243   28.3840   -5.6503 H         5 CUB7        0.0000 
     24 OG          0.4794   27.1099   -6.1094 O.2       1 SER1        0.0000 
     25 DU         -0.8362   27.5786   -5.5621 H         5 CUB7        0.0000 
     26 DU         -2.1518   28.0474   -5.0149 H         5 CUB7        0.0000 
     27 N          -1.4811   26.3045   -6.0211 N.2       2 ALA2        0.0000 
     28 N          -2.7967   26.7733   -5.4739 N.2       2 ALA2        0.0000 
     29 N          -3.4416   25.4992   -5.9329 N.2       2 ALA2        0.0000 
     30 CZ          4.0512   29.8256   -3.9605 C.ar      3 PHE5        0.0000 
     31 CA          2.7356   30.2943   -3.4133 C.3       4 GLY6        0.0000 
     32 CA          1.4200   30.7631   -2.8660 C.3       4 GLY6        0.0000 
     33 CA          0.1044   31.2318   -2.3187 C.3       4 GLY6        0.0000 
     34 CZ         -1.2112   31.7006   -1.7715 C.ar      3 PHE5        0.0000 
     35 CZ          4.7218   28.0827   -4.9668 C.ar      3 PHE5        0.0000 
     36 CZ          3.4062   28.5514   -4.4196 C.ar      3 PHE5        0.0000 
     37 DU          2.0907   29.0202   -3.8723 H         5 CUB7        0.0000 
     38 DU          0.7751   29.4890   -3.3250 H         5 CUB7        0.0000 
     39 DU         -0.5405   29.9577   -2.7778 H         5 CUB7        0.0000 
     40 CZ         -1.8561   30.4265   -2.2305 C.ar      3 PHE5        0.0000 
     41 OG          2.7613   27.2773   -4.8786 O.2       1 SER1        0.0000 
     42 OG          1.4457   27.7461   -4.3313 O.2       1 SER1        0.0000 
     43 DU          0.1301   28.2148   -3.7841 H         5 CUB7        0.0000 
     44 DU         -1.1855   28.6836   -3.2368 H         5 CUB7        0.0000 
     45 OG          0.8008   26.4720   -4.7904 O.2       1 SER1        0.0000 
     46 OG         -0.5148   26.9407   -4.2431 O.2       1 SER1        0.0000 
     47 CA         -1.8304   27.4095   -3.6958 C.3       4 GLY6        0.0000 
     48 OG         -1.1597   25.6666   -4.7021 O.2       1 SER1        0.0000 
     49 CA         -2.4753   26.1354   -4.1549 C.3       4 GLY6        0.0000 
     50 CA         -3.7909   26.6041   -3.6076 C.3       4 GLY6        0.0000 
     51 N          -1.8046   24.3925   -5.1612 N.2       2 ALA2        0.0000 
     52 N          -3.1202   24.8613   -4.6139 N.2       2 ALA2        0.0000 
     53 CA         -4.4358   25.3300   -4.0666 C.3       4 GLY6        0.0000 
     54 CA          2.3863   31.3993   -1.0880 C.3       4 GLY6        0.0000 
     55 CZ          3.0570   29.6564   -2.0943 C.ar      3 PHE5        0.0000 
     56 CA          1.7414   30.1252   -1.5470 C.3       4 GLY6        0.0000 
     57 CZ          0.4258   30.5939   -0.9997 C.ar      3 PHE5        0.0000 
     58 CZ          2.4120   28.3823   -2.5533 C.ar      3 PHE5        0.0000 
     59 DU          1.0965   28.8511   -2.0060 H         5 CUB7        0.0000 
     60 DU         -0.2191   29.3198   -1.4588 H         5 CUB7        0.0000 
     61 CZ         -1.5347   29.7886   -0.9115 C.ar      3 PHE5        0.0000 
     62 CZ          3.0827   26.6394   -3.5596 C.ar      3 PHE5        0.0000 
     63 OG          1.7671   27.1082   -3.0123 O.2       1 SER1        0.0000 
     64 OG          0.4515   27.5770   -2.4651 O.2       1 SER1        0.0000 
     65 CA         -0.8641   28.0457   -1.9178 C.3       4 GLY6        0.0000 
     66 OG         -0.1934   26.3028   -2.9241 O.2       1 SER1        0.0000 
     67 CA         -1.5090   26.7716   -2.3768 C.3       4 GLY6        0.0000 
     68 OG         -2.1539   25.4975   -2.8359 O.2       1 SER1        0.0000 
     69 CA          2.7077   30.7614    0.2310 C.3       4 GLY6        0.0000 
     70 CZ          3.3784   29.0185   -0.7752 C.ar      3 PHE5        0.0000 
     71 CA          2.0628   29.4873   -0.2280 C.3       4 GLY6        0.0000 
     72 CZ          0.7472   29.9560    0.3193 C.ar      3 PHE5        0.0000 
     73 CZ          2.7334   27.7444   -1.2343 C.ar      3 PHE5        0.0000 
     74 DU          1.4179   28.2132   -0.6870 H         5 CUB7        0.0000 
     75 N           0.1023   28.6819   -0.1398 N.2       2 ALA2        0.0000 
     76 O          -1.2133   29.1507    0.4075 O.2       2 ALA2        0.0000 
     77 CZ          2.0885   26.4703   -1.6933 C.ar      3 PHE5        0.0000 
     78 OG          0.7729   26.9391   -1.1460 O.2       1 SER1        0.0000 
     79 CA         -0.5427   27.4078   -0.5988 C.3       4 GLY6        0.0000 
     80 OG          0.1280   25.6649   -1.6051 O.2       1 SER1        0.0000 
     81 CA         -1.1876   26.1337   -1.0578 C.3       4 GLY6        0.0000 
     82 CA          3.6998   28.3806    0.5438 C.3       4 GLY6        0.0000 
     83 CZ          2.3842   28.8494    1.0910 C.ar      3 PHE5        0.0000 
     84 CA          1.0686   29.3181    1.6383 C.3       4 GLY6        0.0000 
     85 CZ          3.0548   27.1065    0.0847 C.ar      3 PHE5        0.0000 
     86 CZ          1.7393   27.5753    0.6320 C.ar      3 PHE5        0.0000 
     87 N           0.4237   28.0440    1.1793 N.2       2 ALA2        0.0000 
@<TRIPOS>BOND
@<TRIPOS>SUBSTRUCTURE
     1 SER1        1 GROUP   
     2 ALA2       27 GROUP   
     3 PHE5        6 GROUP   
     4 GLY6        2 GROUP   
     5 CUB7        4 GROUP   
@<TRIPOS>SET

