#    Name: 2a5b_8HG_1_INTS_M
#    Modification time : Mon Mar 24 18:30:49 2014

@<TRIPOS>MOLECULE
2a5b_8HG_1_INTS_M
   26     0     9     0     0
SMALL
NO_CHARGES


@<TRIPOS>ATOM
      1 N          -0.8265   27.4185    1.4245 N.am      2 SEC2        0.0000 
      2 N          -0.3450   27.7960    0.0040 N.am      8 SEL2        0.0000 
      3 N          -1.3080   27.0410    2.8450 N.am      5 SEP2        0.0000 
      4 O           4.3645   30.7815   -0.5540 O.2       1 ALC1        0.0000 
      5 O           3.1170   30.6710   -0.5130 O.2       7 ALL1        0.0000 
      6 O           5.6120   30.8920   -0.5950 O.2       4 ALP1        0.0000 
      7 O           0.8420   25.3535   -4.6225 O.2       1 ALC1        0.0000 
      8 O           0.2880   26.5660   -5.1640 O.2       7 ALL1        0.0000 
      9 O           1.3960   24.1410   -4.0810 O.2       4 ALP1        0.0000 
     10 CA          3.9510   27.3820   -6.1955 C.3       3 GLC5        0.0000 
     11 CA          2.5440   28.5020   -5.2430 C.3       9 GLL5        0.0000 
     12 CA          5.3580   26.2620   -7.1480 C.3       6 GLP5        0.0000 
     13 CA          5.6115   28.7360   -4.9815 C.3       3 GLC5        0.0000 
     14 CA          4.1000   29.7610   -6.2810 C.3       9 GLL5        0.0000 
     15 CA          7.1230   27.7110   -3.6820 C.3       6 GLP5        0.0000 
     16 CA          6.5890   30.2925   -4.9560 C.3       3 GLC5        0.0000 
     17 CA          5.1850   30.8180   -6.3070 C.3       9 GLL5        0.0000 
     18 CA          7.9930   29.7670   -3.6050 C.3       6 GLP5        0.0000 
     19 CA          6.6810   30.7870   -7.7070 C.3       3 GLC5        0.0000 
     20 CA          8.1770   30.7560   -9.1070 C.3       6 GLP5        0.0000 
     21 CA          6.5700   31.9680   -5.7385 C.3       3 GLC5        0.0000 
     22 CA          7.9550   33.1180   -5.1700 C.3       6 GLP5        0.0000 
     23 CA          5.0485   31.9525   -4.6115 C.3       3 GLC5        0.0000 
     24 CA          4.9120   33.0870   -2.9160 C.3       6 GLP5        0.0000 
     25 CA          4.7770   28.7465   -7.3624 C.3       3 GLC5        0.0000 
     26 CA          5.2410   27.0910   -8.2720 C.3       6 GLP5        0.0000 
@<TRIPOS>BOND
@<TRIPOS>SUBSTRUCTURE
     1 ALC1        4 GROUP        1 X    ALC  0     ROOT ALC X 1
     2 SEC2        1 GROUP        1 X    SEC  0     **** SEC X 2
     3 GLC5       10 GROUP        1 X    GLC  0     **** GLC X 6
     4 ALP1        6 GROUP        1 Y    ALP  0     ROOT ALP Y 8
     5 SEP2        3 GROUP        1 Y    SEP  0     **** SEP Y 9
     6 GLP5       12 GROUP        1 Y    GLP  0     **** GLP Y 13
     7 ALL1        5 GROUP        1 Z    ALL  0     ROOT ALL Z 15
     8 SEL2        2 GROUP        1 Z    SEL  0     **** SEL Z 16
     9 GLL5       11 GROUP        1 Z    GLL  0     **** GLL Z 20
@<TRIPOS>SET

