#    Name: 2a5b_8HG_1_ligand
#    Modification time : Mon Mar 24 18:30:49 2014

@<TRIPOS>MOLECULE
2a5b_8HG_1_ligand
   33    35     1     0     0
SMALL
NO_CHARGES


@<TRIPOS>ATOM
      1 O6         -0.3450   27.7960    0.0040 O.2       1 8HG255      0.0000 
      2 C6          0.5210   28.3010   -0.7500 C.2       1 8HG255      0.0000 
      3 N1          1.3440   29.2150   -0.2300 N.am      1 8HG255      0.0000 
      4 C2          2.2870   29.7720   -0.9910 C.2       1 8HG255      0.0000 
      5 N2          3.1170   30.6710   -0.5130 N.pl3     1 8HG255      0.0000 
      6 N3          2.4710   29.4770   -2.2760 N.2       1 8HG255      0.0000 
      7 C4          1.6670   28.5630   -2.8590 C.2       1 8HG255      0.0000 
      8 C5          0.6540   27.9370   -2.1040 C.2       1 8HG255      0.0000 
      9 N7          0.0080   27.0750   -2.9350 N.2       1 8HG255      0.0000 
     10 C8          0.6350   27.2190   -4.1130 C.2       1 8HG255      0.0000 
     11 O20         0.2880   26.5660   -5.1640 O.3       1 8HG255      0.0000 
     12 N9          1.6470   28.1050   -4.1100 N.pl3     1 8HG255      0.0000 
     13 C1'         2.5440   28.5020   -5.2430 C.3       1 8HG255      0.0000 
     14 O4'         3.7330   29.2840   -4.9760 O.3       1 8HG255      0.0000 
     15 C2'         1.7440   29.3490   -6.2270 C.3       1 8HG255      0.0000 
     16 C3'         2.7820   30.2110   -6.9160 C.3       1 8HG255      0.0000 
     17 O3'         2.6750   29.8820   -8.3030 O.3       1 8HG255      0.0000 
     18 C4'         4.1000   29.7610   -6.2810 C.3       1 8HG255      0.0000 
     19 C5'         5.1850   30.8180   -6.3070 C.3       1 8HG255      0.0000 
     20 O5'         4.7560   31.9000   -7.1520 O.3       1 8HG255      0.0000 
     21 H           1.2484   29.4936    0.7744 H         1 8HG255      0.0000 
     22 H           2.7555   31.2661    0.2048 H         1 8HG255      0.0000 
     23 H           4.0345   30.6782   -0.9105 H         1 8HG255      0.0000 
     24 H           2.8198   27.5980   -5.8178 H         1 8HG255      0.0000 
     25 H           1.0556   29.9621   -5.6943 H         1 8HG255      0.0000 
     26 H           1.2652   28.7164   -6.9370 H         1 8HG255      0.0000 
     27 H           2.5910   31.2075   -6.6905 H         1 8HG255      0.0000 
     28 H           4.4375   28.8944   -6.8886 H         1 8HG255      0.0000 
     29 H           6.1026   30.3592   -6.6810 H         1 8HG255      0.0000 
     30 H           5.3598   31.1561   -5.2835 H         1 8HG255      0.0000 
     31 H           0.6156   25.6339   -5.0094 H         1 8HG255      0.0000 
     32 H           1.6983   29.9433   -8.5088 H         1 8HG255      0.0000 
     33 H           4.0447   31.5068   -7.7347 H         1 8HG255      0.0000 
@<TRIPOS>BOND
     1    2    1 2    
     2    3    2 am   
     3    8    2 1    
     4    4    3 1    
     5   21    3 1    
     6    5    4 1    
     7    6    4 2    
     8   22    5 1    
     9   23    5 1    
    10    7    6 1    
    11    8    7 2    
    12   12    7 1    
    13    9    8 1    
    14   10    9 2    
    15   11   10 1    
    16   12   10 1    
    17   31   11 1    
    18   13   12 1    
    19   14   13 1    
    20   15   13 1    
    21   24   13 1    
    22   18   14 1    
    23   16   15 1    
    24   25   15 1    
    25   26   15 1    
    26   17   16 1    
    27   18   16 1    
    28   27   16 1    
    29   32   17 1    
    30   19   18 1    
    31   28   18 1    
    32   20   19 1    
    33   29   19 1    
    34   30   19 1    
    35   33   20 1    
@<TRIPOS>SUBSTRUCTURE
     1 8HG255      1 GROUP   
@<TRIPOS>SET

