#    Name: 2jd0_NDP_1_INTS_M
#    Modification time : Tue Mar 25 19:59:11 2014

@<TRIPOS>MOLECULE
2jd0_NDP_1_INTS_M
   90     0     9     0     0
SMALL
NO_CHARGES


@<TRIPOS>ATOM
      1 N           8.4150    6.2665   -6.9165 N.am      2 SEC2        0.0000 
      2 N           9.1870    5.3330   -8.0580 N.am      8 SEL2        0.0000 
      3 N           7.6430    7.2000   -5.7750 N.am      5 SEP2        0.0000 
      4 CA         13.7900    6.5200   -9.8990 C.3       3 GLC5        0.0000 
      5 CA         12.0790    7.5000   -9.4630 C.3       9 GLL5        0.0000 
      6 CA         15.5010    5.5400  -10.3350 C.3       6 GLP5        0.0000 
      7 CA          9.4160    8.9980   -9.1260 C.3       3 GLC5        0.0000 
      8 CA         10.7670    9.3790  -10.5730 C.3       9 GLL5        0.0000 
      9 CA          8.0650    8.6170   -7.6790 C.3       6 GLP5        0.0000 
     10 N           9.1555   11.6315   -9.2640 N.am      2 SEC2        0.0000 
     11 N          10.1860   10.5420  -10.0250 N.am      8 SEL2        0.0000 
     12 N           8.1250   12.7210   -8.5030 N.am      5 SEP2        0.0000 
     13 O           9.0185   11.0750  -10.6095 O.2       1 ALC1        0.0000 
     14 O          10.1860   10.5420  -10.0250 O.2       7 ALL1        0.0000 
     15 O           7.8510   11.6080  -11.1940 O.2       4 ALP1        0.0000 
     16 N          11.0745   11.8415  -13.5445 N.am      2 SEC2        0.0000 
     17 N          10.5130   10.6140  -12.6880 N.am      8 SEL2        0.0000 
     18 N          11.6360   13.0690  -14.4010 N.am      5 SEP2        0.0000 
     19 CA         12.6455   11.2720  -10.0845 C.3       3 GLC5        0.0000 
     20 CA         12.7000   10.0720  -11.7540 C.3       9 GLL5        0.0000 
     21 CA         12.5910   12.4720   -8.4150 C.3       6 GLP5        0.0000 
     22 CA         14.2765   11.2615  -11.0030 C.3       3 GLC5        0.0000 
     23 CA         15.8530   12.4510  -10.2520 C.3       6 GLP5        0.0000 
     24 CA         15.5960   12.4300  -16.4025 C.3       3 GLC5        0.0000 
     25 CA         15.7810   10.8720  -15.4590 C.3       9 GLL5        0.0000 
     26 CA         15.4110   13.9880  -17.3460 C.3       6 GLP5        0.0000 
     27 CA         13.8895   12.6250  -14.7765 C.3       3 GLC5        0.0000 
     28 CA         15.6250   12.7080  -13.9030 C.3       9 GLL5        0.0000 
     29 CA         12.1540   12.5420  -15.6500 C.3       6 GLP5        0.0000 
     30 CA         15.5180   13.3480  -15.6245 C.3       3 GLC5        0.0000 
     31 CA         15.7390   12.5795  -12.0775 C.3       3 GLC5        0.0000 
     32 CA         16.9995   11.3690  -13.2815 C.3       3 GLC5        0.0000 
     33 CA         18.3740   10.0300  -12.6600 C.3       6 GLP5        0.0000 
     34 CA         15.0985   11.6000  -11.8935 C.3       3 GLC5        0.0000 
     35 CA         14.3440   10.7490  -13.5350 C.3       9 GLL5        0.0000 
     36 CA         16.3590   10.3895  -13.0975 C.3       3 GLC5        0.0000 
     37 N          10.2570    7.1425   -4.3035 N.am      2 SEC2        0.0000 
     38 N          11.4950    6.5770   -5.3920 N.am      8 SEL2        0.0000 
     39 N           9.0190    7.7080   -3.2150 N.am      5 SEP2        0.0000 
     40 N          11.1490    7.9780   -5.7215 N.am      2 SEC2        0.0000 
     41 N          10.8030    9.3790   -6.0510 N.am      5 SEP2        0.0000 
     42 CA         14.7905    8.2030   -5.3085 C.3       3 GLC5        0.0000 
     43 CA         14.3470    6.1550   -5.8580 C.3       9 GLL5        0.0000 
     44 CA         15.2340   10.2510   -4.7590 C.3       6 GLP5        0.0000 
     45 CA         15.7960    6.7280   -3.4630 C.3       3 GLC5        0.0000 
     46 CA         15.5630    5.5170   -5.1810 C.3       9 GLL5        0.0000 
     47 CA         16.0290    7.9390   -1.7450 C.3       6 GLP5        0.0000 
     48 CA         17.5195    6.3540   -4.8950 C.3       3 GLC5        0.0000 
     49 CA         19.4760    7.1910   -4.6090 C.3       6 GLP5        0.0000 
     50 CA         15.8335    4.1605   -7.9025 C.3       3 GLC5        0.0000 
     51 CA         16.1610    4.2510   -5.8860 C.3       9 GLL5        0.0000 
     52 CA         15.5060    4.0700   -9.9190 C.3       6 GLP5        0.0000 
     53 O          18.4210    3.7845   -7.1925 O.2       1 ALC1        0.0000 
     54 O          17.5360    4.4400   -6.2330 O.2       7 ALL1        0.0000 
     55 O          19.3060    3.1290   -8.1520 O.2       4 ALP1        0.0000 
     56 CA         18.1445    2.7195   -4.5440 C.3       3 GLC5        0.0000 
     57 CA         15.9730    3.0920   -4.8800 C.3       9 GLL5        0.0000 
     58 CA         20.3160    2.3470   -4.2080 C.3       6 GLP5        0.0000 
     59 N          17.8655    1.4290   -3.5220 N.am      2 SEC2        0.0000 
     60 N          17.1150    2.2370   -4.8530 N.am      8 SEL2        0.0000 
     61 N          18.6160    0.6210   -2.1910 N.am      5 SEP2        0.0000 
     62 O          16.1685    1.2050   -5.2545 O.2       1 ALC1        0.0000 
     63 O          17.1150    2.2370   -4.8530 O.2       7 ALL1        0.0000 
     64 O          15.2220    0.1730   -5.6560 O.2       4 ALP1        0.0000 
     65 CA         15.9160    5.8865   -2.6500 C.3       3 GLC5        0.0000 
     66 CA         15.8030    3.8340   -3.5550 C.3       9 GLL5        0.0000 
     67 CA         12.6115    4.9970   -2.2075 C.3       3 GLC5        0.0000 
     68 CA         13.6450    3.2620   -2.5080 C.3       9 GLL5        0.0000 
     69 CA         11.5780    6.7320   -1.9070 C.3       6 GLP5        0.0000 
     70 CA         12.0185    4.3110   -1.1380 C.3       3 GLC5        0.0000 
     71 CA         12.8660    2.4380   -1.7440 C.3       9 GLL5        0.0000 
     72 CA         11.1710    6.1840   -0.5320 C.3       6 GLP5        0.0000 
     73 N           7.4845    8.6220  -13.6930 N.am      2 SEC2        0.0000 
     74 N           8.9630    8.7890  -13.5390 N.am      8 SEL2        0.0000 
     75 N           6.0060    8.4550  -13.8470 N.am      5 SEP2        0.0000 
     76 N           8.1025   11.3765  -12.5470 N.am      2 SEC2        0.0000 
     77 N           8.3540   11.1450  -13.9000 N.am      8 SEL2        0.0000 
     78 N           7.8510   11.6080  -11.1940 N.am      5 SEP2        0.0000 
     79 N           7.0660   11.0770  -15.0010 N.am      2 SEC2        0.0000 
     80 N           5.7780   11.0090  -16.1020 N.am      5 SEP2        0.0000 
     81 N           9.1705   10.7240  -16.3445 N.am      2 SEC2        0.0000 
     82 N          10.2050   10.1370  -15.1920 N.am      8 SEL2        0.0000 
     83 N           8.1360   11.3110  -17.4970 N.am      5 SEP2        0.0000 
     84 CA         11.9960   10.8277   -9.3035 C.3       3 GLC5        0.0000 
     85 CA         16.7752    9.7140  -14.9748 C.3       3 GLC5        0.0000 
     86 CA         14.8680   10.1640  -14.6840 C.3       9 GLL5        0.0000 
     87 CA         18.2260    8.9100  -14.8780 C.3       6 GLP5        0.0000 
     88 CA         13.4941   11.5877  -14.9766 C.3       3 GLC5        0.0000 
     89 CA         12.0720    0.5373   -1.7172 C.3       3 GLC5        0.0000 
     90 CA         10.9520   -0.7700   -2.0200 C.3       6 GLP5        0.0000 
@<TRIPOS>BOND
@<TRIPOS>SUBSTRUCTURE
     1 ALC1       13 GROUP        1 X    ALC  0     ROOT ALC X 1
     2 SEC2        1 GROUP        1 X    SEC  0     **** SEC X 2
     3 GLC5        4 GROUP        1 X    GLC  0     **** GLC X 6
     4 ALP1       15 GROUP        1 Y    ALP  0     ROOT ALP Y 8
     5 SEP2        3 GROUP        1 Y    SEP  0     **** SEP Y 9
     6 GLP5        6 GROUP        1 Y    GLP  0     **** GLP Y 13
     7 ALL1       14 GROUP        1 Z    ALL  0     ROOT ALL Z 15
     8 SEL2        2 GROUP        1 Z    SEL  0     **** SEL Z 16
     9 GLL5        5 GROUP        1 Z    GLL  0     **** GLL Z 20
@<TRIPOS>SET

