#    Name: 2jd0_NDP_1_ligand
#    Modification time : Tue Mar 25 19:59:11 2014

@<TRIPOS>MOLECULE
2jd0_NDP_1_ligand
   74    78     1     0     0
SMALL
NO_CHARGES


@<TRIPOS>ATOM
      1 PA         10.5920    5.5280   -8.5060 P.3       1 NDP1390     0.0000 
      2 O1A        10.9680    4.6030   -9.6080 O.co2     1 NDP1390     0.0000 
      3 O2A         9.1870    5.3330   -8.0580 O.co2     1 NDP1390     0.0000 
      4 O5B        10.8200    7.0470   -9.0080 O.3       1 NDP1390     0.0000 
      5 C5B        12.0790    7.5000   -9.4630 C.3       1 NDP1390     0.0000 
      6 C4B        12.0350    8.9880   -9.8110 C.3       1 NDP1390     0.0000 
      7 O4B        13.1450    9.3160  -10.6380 O.3       1 NDP1390     0.0000 
      8 C3B        10.7670    9.3790  -10.5730 C.3       1 NDP1390     0.0000 
      9 O3B        10.1860   10.5420  -10.0250 O.3       1 NDP1390     0.0000 
     10 C2B        11.2600    9.6470  -11.9820 C.3       1 NDP1390     0.0000 
     11 O2B        10.5130   10.6140  -12.6880 O.3       1 NDP1390     0.0000 
     12 C1B        12.7000   10.0720  -11.7540 C.3       1 NDP1390     0.0000 
     13 N9A        13.4810    9.8420  -12.9810 N.pl3     1 NDP1390     0.0000 
     14 C8A        13.4730    8.7250  -13.7830 C.2       1 NDP1390     0.0000 
     15 N7A        14.3220    8.9320  -14.8160 N.2       1 NDP1390     0.0000 
     16 C5A        14.8680   10.1640  -14.6840 C.ar      1 NDP1390     0.0000 
     17 C6A        15.7810   10.8720  -15.4590 C.ar      1 NDP1390     0.0000 
     18 N6A        15.8940   10.5590  -16.7500 N.pl3     1 NDP1390     0.0000 
     19 N1A        16.1560   12.1380  -15.0430 N.ar      1 NDP1390     0.0000 
     20 C2A        15.6250   12.7080  -13.9030 C.ar      1 NDP1390     0.0000 
     21 N3A        14.7140   11.9990  -13.1550 N.ar      1 NDP1390     0.0000 
     22 C4A        14.3440   10.7490  -13.5350 C.ar      1 NDP1390     0.0000 
     23 O3         11.6040    5.3410   -7.2560 O.3       1 NDP1390     0.0000 
     24 PN         12.0100    5.1160   -5.8780 P.3       1 NDP1390     0.0000 
     25 O1N        11.9870    4.1450   -4.7510 O.co2     1 NDP1390     0.0000 
     26 O2N        11.4950    6.5770   -5.3920 O.co2     1 NDP1390     0.0000 
     27 O5D        13.5120    5.1830   -6.4870 O.3       1 NDP1390     0.0000 
     28 C5D        14.3470    6.1550   -5.8580 C.3       1 NDP1390     0.0000 
     29 C4D        15.5630    5.5170   -5.1810 C.3       1 NDP1390     0.0000 
     30 O4D        15.1600    5.1240   -3.8530 O.3       1 NDP1390     0.0000 
     31 C3D        16.1610    4.2510   -5.8860 C.3       1 NDP1390     0.0000 
     32 O3D        17.5360    4.4400   -6.2330 O.3       1 NDP1390     0.0000 
     33 C2D        15.9730    3.0920   -4.8800 C.3       1 NDP1390     0.0000 
     34 O2D        17.1150    2.2370   -4.8530 O.3       1 NDP1390     0.0000 
     35 C1D        15.8030    3.8340   -3.5550 C.3       1 NDP1390     0.0000 
     36 N1N        15.0140    3.0200   -2.6310 N.pl3     1 NDP1390     0.0000 
     37 C2N        13.6450    3.2620   -2.5080 C.2       1 NDP1390     0.0000 
     38 C3N        12.8660    2.4380   -1.7440 C.2       1 NDP1390     0.0000 
     39 C7N        11.4630    2.6230   -1.5520 C.2       1 NDP1390     0.0000 
     40 O7N        10.9480    2.3850   -0.4650 O.2       1 NDP1390     0.0000 
     41 N7N        10.6960    3.0880   -2.5720 N.am      1 NDP1390     0.0000 
     42 C4N        13.5180    1.2510   -1.0850 C.3       1 NDP1390     0.0000 
     43 C5N        15.0130    1.3010   -1.0440 C.2       1 NDP1390     0.0000 
     44 C6N        15.6790    2.1470   -1.8080 C.2       1 NDP1390     0.0000 
     45 P2B         9.4960   10.1660  -13.8580 P.3       1 NDP1390     0.0000 
     46 O1X         8.9630    8.7890  -13.5390 O.co2     1 NDP1390     0.0000 
     47 O2X         8.3540   11.1450  -13.9000 O.co2     1 NDP1390     0.0000 
     48 O3X        10.2050   10.1370  -15.1920 O.co2     1 NDP1390     0.0000 
     49 H          12.4103    6.9603  -10.3667 H         1 NDP1390     0.0000 
     50 H          12.8669    7.3630   -8.7026 H         1 NDP1390     0.0000 
     51 H          12.0634    9.5585   -8.8936 H         1 NDP1390     0.0000 
     52 H          10.1225    8.5393  -10.5964 H         1 NDP1390     0.0000 
     53 H          11.3017    8.6851  -12.4890 H         1 NDP1390     0.0000 
     54 H          12.6766   11.1293  -11.5181 H         1 NDP1390     0.0000 
     55 H          12.9480    7.9362  -13.6253 H         1 NDP1390     0.0000 
     56 H          16.5412   11.1065  -17.2805 H         1 NDP1390     0.0000 
     57 H          15.3214    9.8049  -17.0717 H         1 NDP1390     0.0000 
     58 H          15.9095   13.6540  -13.6177 H         1 NDP1390     0.0000 
     59 H          13.7977    6.7231   -5.0847 H         1 NDP1390     0.0000 
     60 H          14.7245    6.8977   -6.5849 H         1 NDP1390     0.0000 
     61 H          16.3526    6.2583   -5.1087 H         1 NDP1390     0.0000 
     62 H          15.5359    4.0453   -6.7355 H         1 NDP1390     0.0000 
     63 H          15.0649    2.6075   -5.1100 H         1 NDP1390     0.0000 
     64 H          16.7940    4.0068   -3.1572 H         1 NDP1390     0.0000 
     65 H          13.2308    4.0699   -3.0009 H         1 NDP1390     0.0000 
     66 H          11.1768    3.3000   -3.4228 H         1 NDP1390     0.0000 
     67 H           9.7183    3.1773   -2.3820 H         1 NDP1390     0.0000 
     68 H          13.1976    0.3270   -1.6131 H         1 NDP1390     0.0000 
     69 H          13.1269    1.1566   -0.0489 H         1 NDP1390     0.0000 
     70 H          15.4540    0.6393   -0.3895 H         1 NDP1390     0.0000 
     71 H          16.7269    2.1697   -1.8022 H         1 NDP1390     0.0000 
     72 H           9.4133   10.7520  -10.6240 H         1 NDP1390     0.0000 
     73 H          17.7164    3.7675   -6.9508 H         1 NDP1390     0.0000 
     74 H          16.7531    1.3171   -5.0042 H         1 NDP1390     0.0000 
@<TRIPOS>BOND
     1    2    1 ar   
     2    3    1 ar   
     3    4    1 1    
     4   23    1 1    
     5    5    4 1    
     6    6    5 1    
     7   49    5 1    
     8   50    5 1    
     9    7    6 1    
    10    8    6 1    
    11   51    6 1    
    12   12    7 1    
    13    9    8 1    
    14   10    8 1    
    15   52    8 1    
    16   72    9 1    
    17   11   10 1    
    18   12   10 1    
    19   53   10 1    
    20   45   11 1    
    21   13   12 1    
    22   54   12 1    
    23   14   13 1    
    24   22   13 1    
    25   15   14 2    
    26   55   14 1    
    27   16   15 1    
    28   17   16 ar   
    29   22   16 ar   
    30   18   17 1    
    31   19   17 ar   
    32   56   18 1    
    33   57   18 1    
    34   20   19 ar   
    35   21   20 ar   
    36   58   20 1    
    37   22   21 ar   
    38   24   23 1    
    39   25   24 ar   
    40   26   24 ar   
    41   27   24 1    
    42   28   27 1    
    43   29   28 1    
    44   59   28 1    
    45   60   28 1    
    46   30   29 1    
    47   31   29 1    
    48   61   29 1    
    49   35   30 1    
    50   32   31 1    
    51   33   31 1    
    52   62   31 1    
    53   73   32 1    
    54   34   33 1    
    55   35   33 1    
    56   63   33 1    
    57   74   34 1    
    58   36   35 1    
    59   64   35 1    
    60   37   36 1    
    61   44   36 1    
    62   38   37 2    
    63   65   37 1    
    64   39   38 1    
    65   42   38 1    
    66   40   39 2    
    67   41   39 am   
    68   66   41 1    
    69   67   41 1    
    70   43   42 1    
    71   68   42 1    
    72   69   42 1    
    73   44   43 2    
    74   70   43 1    
    75   71   44 1    
    76   46   45 ar   
    77   47   45 ar   
    78   48   45 ar   
@<TRIPOS>SUBSTRUCTURE
     1 NDP1390     1 GROUP   
@<TRIPOS>SET

