#    Name: 3utd_0CJ_1_INTS_M
#    Modification time : Mon Mar 24 23:24:25 2014

@<TRIPOS>MOLECULE
3utd_0CJ_1_INTS_M
   48     0     6     0     0
SMALL
NO_CHARGES


@<TRIPOS>ATOM
      1 CA        -31.7745    0.5890  -14.8805 C.3       2 GLC5        0.0000 
      2 CA        -30.5550    0.6440  -13.3030 C.3       6 GLL5        0.0000 
      3 CA        -32.9940    0.5340  -16.4580 C.3       4 GLP5        0.0000 
      4 CA        -31.8415   -0.3165  -11.8115 C.3       2 GLC5        0.0000 
      5 CA        -33.1280   -1.2770  -10.3200 C.3       4 GLP5        0.0000 
      6 CA        -31.8220    1.6080  -12.6205 C.3       2 GLC5        0.0000 
      7 CA        -33.0890    2.5720  -11.9380 C.3       4 GLP5        0.0000 
      8 CA        -27.0020    1.0995  -13.1805 C.3       2 GLC5        0.0000 
      9 CA        -28.1430   -0.2310  -13.5700 C.3       6 GLL5        0.0000 
     10 CA        -25.8610    2.4300  -12.7910 C.3       4 GLP5        0.0000 
     11 CA        -30.2690   -2.5720  -14.3755 C.3       2 GLC5        0.0000 
     12 CA        -28.4140   -1.5800  -14.1840 C.3       6 GLL5        0.0000 
     13 CA        -32.1240   -3.5640  -14.5670 C.3       4 GLP5        0.0000 
     14 CA        -25.9235   -3.9395  -14.9390 C.3       2 GLC5        0.0000 
     15 CA        -27.2890   -2.5610  -14.1000 C.3       6 GLL5        0.0000 
     16 CA        -24.5580   -5.3180  -15.7780 C.3       4 GLP5        0.0000 
     17 N         -24.0715   -3.2830  -16.4685 N.am      1 SEC2        0.0000 
     18 N         -24.6510   -2.1100  -16.7610 N.am      5 SEL2        0.0000 
     19 N         -23.4920   -4.4560  -16.1760 N.am      3 SEP2        0.0000 
     20 N         -23.3590   -1.7470  -16.9390 N.am      1 SEC2        0.0000 
     21 N         -22.0670   -1.3840  -17.1170 N.am      3 SEP2        0.0000 
     22 N         -26.9855   -3.5540  -18.0535 N.am      1 SEC2        0.0000 
     23 N         -27.0940   -2.7330  -16.9790 N.am      5 SEL2        0.0000 
     24 N         -26.8770   -4.3750  -19.1280 N.am      3 SEP2        0.0000 
     25 N         -28.2760   -2.0895  -17.5430 N.am      1 SEC2        0.0000 
     26 N         -29.4580   -1.4460  -18.1070 N.am      3 SEP2        0.0000 
     27 N         -26.6205   -0.4085  -18.2745 N.am      1 SEC2        0.0000 
     28 N         -26.6190   -0.3590  -16.5520 N.am      5 SEL2        0.0000 
     29 N         -26.6220   -0.4580  -19.9970 N.am      3 SEP2        0.0000 
     30 N         -28.0385   -0.9025  -17.3295 N.am      1 SEC2        0.0000 
     31 N         -26.0345    0.3825  -19.0450 N.am      1 SEC2        0.0000 
     32 N         -25.4470    1.2230  -18.0930 N.am      5 SEL2        0.0000 
     33 N         -26.2420    2.3720  -18.3730 N.am      1 SEC2        0.0000 
     34 N         -27.0370    3.5210  -18.6530 N.am      3 SEP2        0.0000 
     35 N         -24.1235    1.5150  -18.1880 N.am      1 SEC2        0.0000 
     36 N         -22.8000    1.8070  -18.2830 N.am      3 SEP2        0.0000 
     37 N         -23.3550    1.4745  -15.6300 N.am      1 SEC2        0.0000 
     38 N         -24.5370    0.9260  -15.7600 N.am      5 SEL2        0.0000 
     39 N         -22.1730    2.0230  -15.5000 N.am      3 SEP2        0.0000 
     40 N         -23.8445   -0.0420  -14.9680 N.am      1 SEC2        0.0000 
     41 N         -23.1520   -1.0100  -14.1760 N.am      3 SEP2        0.0000 
     42 N         -26.2730    3.0720  -15.3265 N.am      1 SEC2        0.0000 
     43 N         -26.6840    2.0340  -16.1190 N.am      5 SEL2        0.0000 
     44 N         -25.8620    4.1100  -14.5340 N.am      3 SEP2        0.0000 
     45 CA        -29.1137   -0.5847  -15.7610 C.3       2 GLC5        0.0000 
     46 CA        -29.9490   -0.2640  -17.6450 C.3       4 GLP5        0.0000 
     47 CA        -27.6928   -3.7933  -13.3810 C.3       2 GLC5        0.0000 
     48 CA        -27.5340   -5.5160  -12.6200 C.3       4 GLP5        0.0000 
@<TRIPOS>BOND
@<TRIPOS>SUBSTRUCTURE
     1 SEC2       17 GROUP        1 X    SEC  0     ROOT SEC X 2
     2 GLC5        1 GROUP        1 X    GLC  0     **** GLC X 6
     3 SEP2       19 GROUP        1 Y    SEP  0     ROOT SEP Y 9
     4 GLP5        3 GROUP        1 Y    GLP  0     **** GLP Y 13
     5 SEL2       18 GROUP        1 Z    SEL  0     ROOT SEL Z 16
     6 GLL5        2 GROUP        1 Z    GLL  0     **** GLL Z 20
@<TRIPOS>SET

