#    Name: 3utd_0CJ_1_ligand
#    Modification time : Mon Mar 24 23:24:25 2014

@<TRIPOS>MOLECULE
3utd_0CJ_1_ligand
   24    23     1     0     0
SMALL
NO_CHARGES


@<TRIPOS>ATOM
      1 O25       -28.9690    1.7820  -14.5560 O.2       1 0CJ318      0.0000 
      2 C13       -29.1840    0.7780  -13.8300 C.2       1 0CJ318      0.0000 
      3 C22       -30.5550    0.6440  -13.3030 C.3       1 0CJ318      0.0000 
      4 C30       -28.1430   -0.2310  -13.5700 C.3       1 0CJ318      0.0000 
      5 C27       -28.4140   -1.5800  -14.1840 C.3       1 0CJ318      0.0000 
      6 C28       -27.2890   -2.5610  -14.1000 C.3       1 0CJ318      0.0000 
      7 O29       -26.1060   -2.1840  -14.8460 O.3       1 0CJ318      0.0000 
      8 P13       -26.0840   -1.8700  -16.3670 P.3       1 0CJ318      0.0000 
      9 O15       -24.6510   -2.1100  -16.7610 O.co2     1 0CJ318      0.0000 
     10 O14       -27.0940   -2.7330  -16.9790 O.co2     1 0CJ318      0.0000 
     11 O16       -26.6190   -0.3590  -16.5520 O.3       1 0CJ318      0.0000 
     12 P17       -25.7770    0.9620  -16.6280 P.3       1 0CJ318      0.0000 
     13 O20       -25.4470    1.2230  -18.0930 O.co2     1 0CJ318      0.0000 
     14 O18       -24.5370    0.9260  -15.7600 O.co2     1 0CJ318      0.0000 
     15 O19       -26.6840    2.0340  -16.1190 O.co2     1 0CJ318      0.0000 
     16 H         -28.0124   -0.3634  -12.4727 H         1 0CJ318      0.0000 
     17 H         -27.1612    0.1356  -13.9446 H         1 0CJ318      0.0000 
     18 H         -28.6943   -1.4359  -15.2532 H         1 0CJ318      0.0000 
     19 H         -29.3176   -2.0177  -13.6998 H         1 0CJ318      0.0000 
     20 H         -27.6629   -3.5546  -14.4479 H         1 0CJ318      0.0000 
     21 H         -27.0333   -2.7104  -13.0228 H         1 0CJ318      0.0000 
     22 H         -30.6571   -0.1742  -12.7372 H         1 0CJ318      0.0000 
     23 H         -30.8132    1.4264  -12.7363 H         1 0CJ318      0.0000 
     24 H         -31.2305    0.5785  -14.0375 H         1 0CJ318      0.0000 
@<TRIPOS>BOND
     1    2    1 2    
     2    3    2 1    
     3    4    2 1    
     4   22    3 1    
     5   23    3 1    
     6   24    3 1    
     7    5    4 1    
     8   16    4 1    
     9   17    4 1    
    10    6    5 1    
    11   18    5 1    
    12   19    5 1    
    13    7    6 1    
    14   20    6 1    
    15   21    6 1    
    16    8    7 1    
    17    9    8 ar   
    18   10    8 ar   
    19   11    8 1    
    20   12   11 1    
    21   13   12 ar   
    22   14   12 ar   
    23   15   12 ar   
@<TRIPOS>SUBSTRUCTURE
     1 0CJ318      1 GROUP   
@<TRIPOS>SET

