#    Name: 2IO9_2_CAVITY_N1_6.mol2
#    Modification time : Mon Mar 10 19:47:40 2014

@<TRIPOS>MOLECULE
2IO9_2_CAVITY_N1_6.mol2
   54     0     5     0     0
SMALL
NO_CHARGES


@<TRIPOS>ATOM
      1 CZ          6.9091   -9.3209   56.1762 C.ar      3 PHE5        0.0000 
      2 CA          8.0201   -9.7667   57.0801 C.3       4 GLY6        0.0000 
      3 CA          6.9934  -11.5869   57.4443 C.3       4 GLY6        0.0000 
      4 CA          8.0011  -11.1210   56.4356 C.3       4 GLY6        0.0000 
      5 N           6.9744  -12.9412   56.7998 N.2       1 ALA2        0.0000 
      6 CA          7.9821  -12.4753   55.7911 C.3       4 GLY6        0.0000 
      7 CA          8.9897  -12.0095   54.7823 C.3       4 GLY6        0.0000 
      8 CA          6.9554  -14.2956   56.1553 C.3       4 GLY6        0.0000 
      9 CA          7.9630  -13.8297   55.1466 C.3       4 GLY6        0.0000 
     10 CZ          5.8824  -11.1411   56.5404 C.ar      3 PHE5        0.0000 
     11 CZ          6.8901  -10.6752   55.5317 C.ar      3 PHE5        0.0000 
     12 CA          7.8978  -10.2094   54.5229 C.3       4 GLY6        0.0000 
     13 N           5.8634  -12.4955   55.8959 N.2       1 ALA2        0.0000 
     14 DU          6.8711  -12.0296   54.8872 H         5 CUB7        0.0000 
     15 CA          7.8787  -11.5637   53.8784 C.3       4 GLY6        0.0000 
     16 N           4.8367  -14.3157   56.2602 N.2       1 ALA2        0.0000 
     17 N           5.8444  -13.8498   55.2514 N.2       1 ALA2        0.0000 
     18 CA          6.8521  -13.3839   54.2427 C.3       4 GLY6        0.0000 
     19 CA          7.8597  -12.9181   53.2339 C.3       4 GLY6        0.0000 
     20 CA          5.8254  -15.2042   54.6069 C.3       4 GLY6        0.0000 
     21 CA          6.8330  -14.7383   53.5982 C.3       4 GLY6        0.0000 
     22 CA          7.8407  -14.2724   52.5894 C.3       4 GLY6        0.0000 
     23 CA          6.8140  -16.0926   52.9537 C.3       4 GLY6        0.0000 
     24 CZ          3.7448  -12.5156   56.0008 C.ar      3 PHE5        0.0000 
     25 CZ          4.7524  -12.0497   54.9920 C.ar      3 PHE5        0.0000 
     26 CZ          5.7601  -11.5838   53.9833 C.ar      3 PHE5        0.0000 
     27 OD1         6.7678  -11.1180   52.9745 O.3       2 ASP3        0.0000 
     28 N           3.7258  -13.8700   55.3563 N.2       1 ALA2        0.0000 
     29 CZ          4.7334  -13.4041   54.3475 C.ar      3 PHE5        0.0000 
     30 DU          5.7411  -12.9382   53.3388 H         5 CUB7        0.0000 
     31 O           3.7067  -15.2243   54.7118 O.2       1 ALA2        0.0000 
     32 DU          4.7144  -14.7584   53.7030 H         5 CUB7        0.0000 
     33 DU          5.7220  -14.2925   52.6943 H         5 CUB7        0.0000 
     34 CA          6.7297  -13.8266   51.6855 C.3       4 GLY6        0.0000 
     35 N           4.6954  -16.1128   53.0585 N.2       1 ALA2        0.0000 
     36 CA          5.7030  -15.6469   52.0498 C.3       4 GLY6        0.0000 
     37 CA          6.7107  -15.1810   51.0410 C.3       4 GLY6        0.0000 
     38 CA          7.7183  -14.7151   50.0323 C.3       4 GLY6        0.0000 
     39 CZ          3.6224  -12.9583   53.4436 C.ar      3 PHE5        0.0000 
     40 CA          4.6301  -12.4924   52.4349 C.3       4 GLY6        0.0000 
     41 N           2.5958  -14.7786   53.8079 N.2       1 ALA2        0.0000 
     42 OD1         3.6034  -14.3127   52.7991 O.3       2 ASP3        0.0000 
     43 OD1         4.6111  -13.8468   51.7904 O.3       2 ASP3        0.0000 
     44 OD1         5.6187  -13.3809   50.7816 O.3       2 ASP3        0.0000 
     45 N           2.5767  -16.1329   53.1634 N.2       1 ALA2        0.0000 
     46 OD1         3.5844  -15.6670   52.1546 O.3       2 ASP3        0.0000 
     47 OD1         4.5920  -15.2011   51.1459 O.3       2 ASP3        0.0000 
     48 CA          5.5997  -14.7352   50.1371 C.3       4 GLY6        0.0000 
     49 N           2.5577  -17.4872   52.5189 N.2       1 ALA2        0.0000 
     50 OD1         3.5654  -17.0214   51.5101 O.3       2 ASP3        0.0000 
     51 OD1         4.5730  -16.5555   50.5014 O.3       2 ASP3        0.0000 
     52 OD1         5.5807  -16.0896   49.4926 O.3       2 ASP3        0.0000 
     53 OD1         1.4277  -18.3958   50.9705 O.3       2 ASP3        0.0000 
     54 OD1         2.4354  -17.9300   49.9617 O.3       2 ASP3        0.0000 
@<TRIPOS>BOND
@<TRIPOS>SUBSTRUCTURE
     1 ALA2        5 GROUP   
     2 ASP3       27 GROUP   
     3 PHE5        1 GROUP   
     4 GLY6        2 GROUP   
     5 CUB7       14 GROUP   
@<TRIPOS>SET

