#    Name: 2io9_ADP_2_INTS_M
#    Modification time : Tue Mar 25 18:25:02 2014

@<TRIPOS>MOLECULE
2io9_ADP_2_INTS_M
   90     0    15     0     0
SMALL
NO_CHARGES


@<TRIPOS>ATOM
      1 N           5.3865  -18.5095   50.5415 N.am      2 SEC2        0.0000 
      2 N           5.6840  -17.4590   49.7390 N.am     12 SEL2        0.0000 
      3 N           5.0890  -19.5600   51.3440 N.am      7 SEP2        0.0000 
      4 NZ          5.5350  -15.6375   47.2360 N.4       3 LYC4        0.0000 
      5 NZ          4.4660  -16.4880   47.9010 N.4      13 LYL4        0.0000 
      6 NZ          6.6040  -14.7870   46.5710 N.4       8 LYP4        0.0000 
      7 Zn          3.6190  -16.3330   47.4080 Zn        4 ZIC7        0.0000 
      8 Zn          4.4660  -16.4880   47.9010 Zn       14 ZIL7        0.0000 
      9 Zn          2.7720  -16.1780   46.9150 Zn        9 ZIP7        0.0000 
     10 N           5.5350  -15.6375   47.2360 N.am      2 SEC2        0.0000 
     11 N           4.4660  -16.4880   47.9010 N.am     12 SEL2        0.0000 
     12 N           6.6040  -14.7870   46.5710 N.am      7 SEP2        0.0000 
     13 NZ          1.8560  -17.7015   49.6835 N.4       3 LYC4        0.0000 
     14 NZ          3.3900  -16.6380   50.1840 N.4      13 LYL4        0.0000 
     15 NZ          0.3220  -18.7650   49.1830 N.4       8 LYP4        0.0000 
     16 Zn          2.6930  -15.9460   50.1815 Zn        4 ZIC7        0.0000 
     17 Zn          3.3900  -16.6380   50.1840 Zn       14 ZIL7        0.0000 
     18 Zn          1.9960  -15.2540   50.1790 Zn        9 ZIP7        0.0000 
     19 NZ          6.1970  -11.6260   50.1810 N.4       3 LYC4        0.0000 
     20 NZ          5.3170  -12.5910   50.0350 N.4      13 LYL4        0.0000 
     21 NZ          7.0770  -10.6610   50.3270 N.4       8 LYP4        0.0000 
     22 N           6.1970  -11.6260   50.1810 N.am      2 SEC2        0.0000 
     23 N           5.3170  -12.5910   50.0350 N.am     12 SEL2        0.0000 
     24 N           7.0770  -10.6610   50.3270 N.am      7 SEP2        0.0000 
     25 Zn          2.6710  -14.6195   50.5335 Zn        4 ZIC7        0.0000 
     26 Zn          3.3460  -13.9850   50.8880 Zn       14 ZIL7        0.0000 
     27 N           1.9110  -14.0370   50.5325 N.am      2 SEC2        0.0000 
     28 N           3.3460  -13.9850   50.8880 N.am     12 SEL2        0.0000 
     29 N           0.4760  -14.0890   50.1770 N.am      7 SEP2        0.0000 
     30 N           2.8260  -14.3295   49.6875 N.am      2 SEC2        0.0000 
     31 N           2.3060  -14.6740   48.4870 N.am      7 SEP2        0.0000 
     32 N           3.8065  -14.8580   49.0810 N.am      2 SEC2        0.0000 
     33 N           5.3070  -15.0420   49.6750 N.am     12 SEL2        0.0000 
     34 CA          5.6965  -17.2160   52.6220 C.3       5 GLC5        0.0000 
     35 CA          5.4600  -15.2320   52.7800 C.3      15 GLL5        0.0000 
     36 CA          5.9330  -19.2000   52.4640 C.3      10 GLP5        0.0000 
     37 CA          7.3330  -15.7220   52.1835 C.3       5 GLC5        0.0000 
     38 CA          9.2060  -16.2120   51.5870 C.3      10 GLP5        0.0000 
     39 CA          3.3595  -11.9155   54.0360 C.3       5 GLC5        0.0000 
     40 CA          3.9590  -13.7300   54.3300 C.3      15 GLL5        0.0000 
     41 CA          2.7600  -10.1010   53.7420 C.3      10 GLP5        0.0000 
     42 CA          2.5775  -15.2640   55.1420 C.3       5 GLC5        0.0000 
     43 CA          1.1960  -16.7980   55.9540 C.3      10 GLP5        0.0000 
     44 N           1.6255  -13.5740   54.4035 N.am      2 SEC2        0.0000 
     45 N           2.6420  -14.3260   54.2880 N.am     12 SEL2        0.0000 
     46 N           0.6090  -12.8220   54.5190 N.am      7 SEP2        0.0000 
     47 CA          3.5715  -11.4845   55.3975 C.3       5 GLC5        0.0000 
     48 CA          4.3970  -13.0560   55.6550 C.3      15 GLL5        0.0000 
     49 CA          2.7460   -9.9130   55.1400 C.3      10 GLP5        0.0000 
     50 CA          3.0305  -12.9240   57.2895 C.3       5 GLC5        0.0000 
     51 CA          1.6640  -12.7920   58.9240 C.3      10 GLP5        0.0000 
     52 N           3.6785  -15.3440   56.8850 N.am      2 SEC2        0.0000 
     53 N           3.9200  -13.8060   56.7920 N.am     12 SEL2        0.0000 
     54 N           3.4370  -16.8820   56.9780 N.am      7 SEP2        0.0000 
     55 O           4.5820  -13.9495   57.9230 O.2       1 ALC1        0.0000 
     56 O           3.9200  -13.8060   56.7920 O.2      11 ALL1        0.0000 
     57 O           5.2440  -14.0930   59.0540 O.2       6 ALP1        0.0000 
     58 N           7.1910  -10.6250   51.8455 N.am      2 SEC2        0.0000 
     59 N           7.3050  -10.5890   53.3640 N.am     12 SEL2        0.0000 
     60 CA          9.4355   -7.4340   56.0370 C.3       5 GLC5        0.0000 
     61 CA          8.0890   -8.7660   54.9240 C.3      15 GLL5        0.0000 
     62 CA         10.7820   -6.1020   57.1500 C.3      10 GLP5        0.0000 
     63 O           8.1545   -7.9750   52.6495 O.2       1 ALC1        0.0000 
     64 O           8.5590   -7.8920   54.1080 O.2      11 ALL1        0.0000 
     65 O           7.7500   -8.0580   51.1910 O.2       6 ALP1        0.0000 
     66 O           9.1345   -6.5915   54.4160 O.2       1 ALC1        0.0000 
     67 O           9.7100   -5.2910   54.7240 O.2       6 ALP1        0.0000 
     68 N           8.2490   -7.2995   56.9720 N.am      2 SEC2        0.0000 
     69 N           8.1070   -8.5380   56.2960 N.am     12 SEL2        0.0000 
     70 N           8.3910   -6.0610   57.6480 N.am      7 SEP2        0.0000 
     71 CA          9.0810  -10.9165   57.1080 C.3       5 GLC5        0.0000 
     72 CA          7.6110   -9.4440   57.2280 C.3      15 GLL5        0.0000 
     73 CA         10.5510  -12.3890   56.9880 C.3      10 GLP5        0.0000 
     74 CA          9.2980   -9.1420   57.9625 C.3       5 GLC5        0.0000 
     75 CA         10.9850   -8.8400   58.6970 C.3      10 GLP5        0.0000 
     76 CA          7.3925   -7.4450   57.6925 C.3       5 GLC5        0.0000 
     77 CA          7.1740   -5.4460   58.1570 C.3      10 GLP5        0.0000 
     78 CA          6.7870   -8.7955   58.9000 C.3       5 GLC5        0.0000 
     79 CA          5.9630   -8.1470   60.5720 C.3      10 GLP5        0.0000 
     80 CA          8.7950  -11.6210   56.2805 C.3       5 GLC5        0.0000 
     81 CA          7.0390  -10.8530   55.5730 C.3      15 GLL5        0.0000 
     82 CA          6.0107  -16.4363   54.8190 C.3       5 GLC5        0.0000 
     83 CA          5.0450  -14.8350   54.1840 C.3      15 GLL5        0.0000 
     84 CA          6.7690  -17.8390   56.1560 C.3      10 GLP5        0.0000 
     85 CA          5.3950  -14.8748   56.8250 C.3       5 GLC5        0.0000 
     86 CA          5.9410  -13.1230   55.5850 C.3      15 GLL5        0.0000 
     87 CA          5.6210  -16.6600   58.0300 C.3      10 GLP5        0.0000 
     88 CA          9.2332  -10.3201   54.6257 C.3       5 GLC5        0.0000 
     89 CA          7.4990  -10.0290   54.5600 C.3      15 GLL5        0.0000 
     90 CA         11.0500  -10.5150   54.0940 C.3      10 GLP5        0.0000 
@<TRIPOS>BOND
@<TRIPOS>SUBSTRUCTURE
     1 ALC1       55 GROUP        1 X    ALC  0     ROOT ALC X 1
     2 SEC2        1 GROUP        1 X    SEC  0     **** SEC X 2
     3 LYC4        4 GROUP        1 X    LYC  0     **** LYC X 4
     4 ZIC7        7 GROUP        1 X    ZIC  0     **** ZIC X 5
     5 GLC5       34 GROUP        1 X    GLC  0     **** GLC X 6
     6 ALP1       57 GROUP        1 Y    ALP  0     ROOT ALP Y 8
     7 SEP2        3 GROUP        1 Y    SEP  0     **** SEP Y 9
     8 LYP4        6 GROUP        1 Y    LYP  0     **** LYP Y 11
     9 ZIP7        9 GROUP        1 Y    ZIP  0     **** ZIP Y 12
    10 GLP5       36 GROUP        1 Y    GLP  0     **** GLP Y 13
    11 ALL1       56 GROUP        1 Z    ALL  0     ROOT ALL Z 15
    12 SEL2        2 GROUP        1 Z    SEL  0     **** SEL Z 16
    13 LYL4        5 GROUP        1 Z    LYL  0     **** LYL Z 18
    14 ZIL7        8 GROUP        1 Z    ZIL  0     **** ZIL Z 19
    15 GLL5       35 GROUP        1 Z    GLL  0     **** GLL Z 20
@<TRIPOS>SET

