#    Name: 2io9_ADP_2_ligand
#    Modification time : Tue Mar 25 18:25:02 2014

@<TRIPOS>MOLECULE
2io9_ADP_2_ligand
   39    41     1     0     0
SMALL
NO_CHARGES


@<TRIPOS>ATOM
      1 PB          4.6920  -16.4820   49.3670 P.3       1 ADP3002     0.0000 
      2 O1B         5.6840  -17.4590   49.7390 O.co2     1 ADP3002     0.0000 
      3 O2B         4.4660  -16.4880   47.9010 O.co2     1 ADP3002     0.0000 
      4 O3B         3.3900  -16.6380   50.1840 O.co2     1 ADP3002     0.0000 
      5 PA          4.8480  -13.8710   50.5900 P.3       1 ADP3002     0.0000 
      6 O1A         5.3170  -12.5910   50.0350 O.co2     1 ADP3002     0.0000 
      7 O2A         3.3460  -13.9850   50.8880 O.co2     1 ADP3002     0.0000 
      8 O3A         5.3070  -15.0420   49.6750 O.3       1 ADP3002     0.0000 
      9 O5'         5.7950  -14.0930   51.8940 O.3       1 ADP3002     0.0000 
     10 C5'         5.4600  -15.2320   52.7800 C.3       1 ADP3002     0.0000 
     11 C4'         5.0450  -14.8350   54.1840 C.3       1 ADP3002     0.0000 
     12 O4'         6.2370  -14.2030   54.7230 O.3       1 ADP3002     0.0000 
     13 C3'         3.9590  -13.7300   54.3300 C.3       1 ADP3002     0.0000 
     14 O3'         2.6420  -14.3260   54.2880 O.3       1 ADP3002     0.0000 
     15 C2'         4.3970  -13.0560   55.6550 C.3       1 ADP3002     0.0000 
     16 O2'         3.9200  -13.8060   56.7920 O.3       1 ADP3002     0.0000 
     17 C1'         5.9410  -13.1230   55.5850 C.3       1 ADP3002     0.0000 
     18 N9          6.5510  -11.9300   54.9540 N.pl3     1 ADP3002     0.0000 
     19 C8          6.7310  -11.7200   53.6370 C.2       1 ADP3002     0.0000 
     20 N7          7.3050  -10.5890   53.3640 N.2       1 ADP3002     0.0000 
     21 C5          7.4990  -10.0290   54.5600 C.ar      1 ADP3002     0.0000 
     22 C6          8.0890   -8.7660   54.9240 C.ar      1 ADP3002     0.0000 
     23 N6          8.5590   -7.8920   54.1080 N.pl3     1 ADP3002     0.0000 
     24 N1          8.1070   -8.5380   56.2960 N.ar      1 ADP3002     0.0000 
     25 C2          7.6110   -9.4440   57.2280 C.ar      1 ADP3002     0.0000 
     26 N3          7.0720  -10.6100   56.8930 N.ar      1 ADP3002     0.0000 
     27 C4          7.0390  -10.8530   55.5730 C.ar      1 ADP3002     0.0000 
     28 H           6.3299  -15.9190   52.8535 H         1 ADP3002     0.0000 
     29 H           4.6397  -15.8301   52.3288 H         1 ADP3002     0.0000 
     30 H           4.7944  -15.6696   54.7651 H         1 ADP3002     0.0000 
     31 H           4.1466  -13.0348   53.5338 H         1 ADP3002     0.0000 
     32 H           4.1036  -12.0551   55.6369 H         1 ADP3002     0.0000 
     33 H           6.3247  -13.2849   56.5537 H         1 ADP3002     0.0000 
     34 H           6.4377  -12.3954   52.9458 H         1 ADP3002     0.0000 
     35 H           8.9267   -7.0583   54.5200 H         1 ADP3002     0.0000 
     36 H           8.5132   -8.1270   53.1371 H         1 ADP3002     0.0000 
     37 H           7.6791   -9.1649   58.2496 H         1 ADP3002     0.0000 
     38 H           2.6017  -14.8026   53.4098 H         1 ADP3002     0.0000 
     39 H           4.6215  -13.6851   57.4944 H         1 ADP3002     0.0000 
@<TRIPOS>BOND
     1    2    1 ar   
     2    3    1 ar   
     3    4    1 ar   
     4    8    1 1    
     5    6    5 ar   
     6    7    5 ar   
     7    8    5 1    
     8    9    5 1    
     9   10    9 1    
    10   11   10 1    
    11   28   10 1    
    12   29   10 1    
    13   12   11 1    
    14   13   11 1    
    15   30   11 1    
    16   17   12 1    
    17   14   13 1    
    18   15   13 1    
    19   31   13 1    
    20   38   14 1    
    21   16   15 1    
    22   17   15 1    
    23   32   15 1    
    24   39   16 1    
    25   18   17 1    
    26   33   17 1    
    27   19   18 1    
    28   27   18 1    
    29   20   19 2    
    30   34   19 1    
    31   21   20 1    
    32   22   21 ar   
    33   27   21 ar   
    34   23   22 1    
    35   24   22 ar   
    36   35   23 1    
    37   36   23 1    
    38   25   24 ar   
    39   26   25 ar   
    40   37   25 1    
    41   27   26 ar   
@<TRIPOS>SUBSTRUCTURE
     1 ADP3002     1 GROUP   
@<TRIPOS>SET

