#    Name: 3a26_MTA_1_INTS_M
#    Modification time : Tue Mar 25 11:30:01 2014

@<TRIPOS>MOLECULE
3a26_MTA_1_INTS_M
   46     0     9     0     0
SMALL
NO_CHARGES


@<TRIPOS>ATOM
      1 CA         -2.9125  -26.4895  -37.7260 C.3       3 GLC5        0.0000 
      2 CA         -3.5630  -27.0590  -39.3740 C.3       9 GLL5        0.0000 
      3 CA         -2.2620  -25.9200  -36.0780 C.3       6 GLP5        0.0000 
      4 CA         -3.4050  -32.0850  -39.3940 C.3       3 GLC5        0.0000 
      5 CA         -3.4670  -30.1260  -39.1070 C.3       9 GLL5        0.0000 
      6 CA         -3.3430  -34.0440  -39.6810 C.3       6 GLP5        0.0000 
      7 O           1.7965  -28.7630  -37.8340 O.2       1 ALC1        0.0000 
      8 O           1.4490  -29.5790  -38.8180 O.2       7 ALL1        0.0000 
      9 O           2.1440  -27.9470  -36.8500 O.2       4 ALP1        0.0000 
     10 O          -0.2490  -27.8990  -37.0975 O.2       1 ALC1        0.0000 
     11 O          -0.6950  -27.7320  -38.3630 O.2       7 ALL1        0.0000 
     12 O           0.1970  -28.0660  -35.8320 O.2       4 ALP1        0.0000 
     13 O           0.7245  -27.8395  -37.6065 O.2       1 ALC1        0.0000 
     14 CA         -1.4515  -32.4350  -36.8205 C.3       3 GLC5        0.0000 
     15 CA         -0.2640  -30.7650  -37.4860 C.3       9 GLL5        0.0000 
     16 CA         -2.6390  -34.1050  -36.1550 C.3       6 GLP5        0.0000 
     17 CA          3.5240  -34.4375  -35.6535 C.3       3 GLC5        0.0000 
     18 CA          1.6580  -34.7680  -35.2150 C.3       9 GLL5        0.0000 
     19 CA          5.3900  -34.1070  -36.0920 C.3       6 GLP5        0.0000 
     20 CA          3.2380  -34.8205  -33.8665 C.3       3 GLC5        0.0000 
     21 CA          4.8180  -34.8730  -32.5180 C.3       6 GLP5        0.0000 
     22 O           2.8620  -36.7600  -34.3755 O.2       1 ALC1        0.0000 
     23 O           2.0530  -36.1140  -35.4740 O.2       7 ALL1        0.0000 
     24 O           3.6710  -37.4060  -33.2770 O.2       4 ALP1        0.0000 
     25 N           2.2000  -34.8215  -32.7715 N.am      2 SEC2        0.0000 
     26 N           1.7690  -34.2310  -33.9520 N.am      8 SEL2        0.0000 
     27 N           2.6310  -35.4120  -31.5910 N.am      5 SEP2        0.0000 
     28 CA          1.5495  -32.4175  -31.8325 C.3       3 GLC5        0.0000 
     29 CA          1.3720  -32.8930  -33.7170 C.3       9 GLL5        0.0000 
     30 CA          1.7270  -31.9420  -29.9480 C.3       6 GLP5        0.0000 
     31 CA          1.5630  -30.8345  -33.3850 C.3       3 GLC5        0.0000 
     32 CA          1.7540  -28.7760  -33.0530 C.3       6 GLP5        0.0000 
     33 CA          2.8615  -32.3555  -34.7365 C.3       3 GLC5        0.0000 
     34 CA          4.3510  -31.8180  -35.7560 C.3       6 GLP5        0.0000 
     35 CA          3.0950  -33.8830  -33.1175 C.3       3 GLC5        0.0000 
     36 CA          0.8155  -34.2955  -32.3305 C.3       3 GLC5        0.0000 
     37 CA          0.2590  -35.6980  -30.9440 C.3       6 GLP5        0.0000 
     38 N           2.0610  -31.0765  -34.6220 N.am      2 SEC2        0.0000 
     39 N           0.8710  -32.1260  -34.7630 N.am      8 SEL2        0.0000 
     40 N           3.2510  -30.0270  -34.4810 N.am      5 SEP2        0.0000 
     41 CA         -3.3722  -31.0218  -37.0007 C.3       3 GLC5        0.0000 
     42 CA         -2.2560  -29.8050  -38.2080 C.3       9 GLL5        0.0000 
     43 CA         -3.8830  -32.0780  -35.3440 C.3       6 GLP5        0.0000 
     44 CA         -1.9423  -27.6668  -37.2990 C.3       3 GLC5        0.0000 
     45 CA          2.6448  -32.5775  -35.9820 C.3       3 GLC5        0.0000 
     46 CA          0.7510  -32.7100  -36.0960 C.3       9 GLL5        0.0000 
@<TRIPOS>BOND
@<TRIPOS>SUBSTRUCTURE
     1 ALC1        7 GROUP        1 X    ALC  0     ROOT ALC X 1
     2 SEC2       25 GROUP        1 X    SEC  0     **** SEC X 2
     3 GLC5        1 GROUP        1 X    GLC  0     **** GLC X 6
     4 ALP1        9 GROUP        1 Y    ALP  0     ROOT ALP Y 8
     5 SEP2       27 GROUP        1 Y    SEP  0     **** SEP Y 9
     6 GLP5        3 GROUP        1 Y    GLP  0     **** GLP Y 13
     7 ALL1        8 GROUP        1 Z    ALL  0     ROOT ALL Z 15
     8 SEL2       26 GROUP        1 Z    SEL  0     **** SEL Z 16
     9 GLL5        2 GROUP        1 Z    GLL  0     **** GLL Z 20
@<TRIPOS>SET

