#    Name: 3a26_MTA_1_ligand
#    Modification time : Tue Mar 25 11:30:01 2014

@<TRIPOS>MOLECULE
3a26_MTA_1_ligand
   35    37     1     0     0
SMALL
NO_CHARGES


@<TRIPOS>ATOM
      1 CS         -3.5630  -27.0590  -39.3740 C.3       1 MTA279      0.0000 
      2 S5'        -4.5250  -28.6580  -39.3960 S.3       1 MTA279      0.0000 
      3 C5'        -3.4670  -30.1260  -39.1070 C.3       1 MTA279      0.0000 
      4 C4'        -2.2560  -29.8050  -38.2080 C.3       1 MTA279      0.0000 
      5 O4'        -1.6660  -30.8330  -37.3650 O.3       1 MTA279      0.0000 
      6 C2'         0.1300  -30.0780  -38.7310 C.3       1 MTA279      0.0000 
      7 O2'         1.4490  -29.5790  -38.8180 O.3       1 MTA279      0.0000 
      8 C3'        -0.9890  -29.0220  -38.8320 C.3       1 MTA279      0.0000 
      9 O3'        -0.6950  -27.7320  -38.3630 O.3       1 MTA279      0.0000 
     10 C1'        -0.2640  -30.7650  -37.4860 C.3       1 MTA279      0.0000 
     11 N9          0.2640  -32.1470  -37.3950 N.pl3     1 MTA279      0.0000 
     12 C8          0.3520  -33.0760  -38.3200 C.2       1 MTA279      0.0000 
     13 N7          0.9020  -34.2630  -37.6920 N.2       1 MTA279      0.0000 
     14 C5          1.1260  -33.9640  -36.3200 C.ar      1 MTA279      0.0000 
     15 C6          1.6580  -34.7680  -35.2150 C.ar      1 MTA279      0.0000 
     16 N6          2.0530  -36.1140  -35.4740 N.pl3     1 MTA279      0.0000 
     17 N1          1.7690  -34.2310  -33.9520 N.ar      1 MTA279      0.0000 
     18 C2          1.3720  -32.8930  -33.7170 C.ar      1 MTA279      0.0000 
     19 N3          0.8710  -32.1260  -34.7630 N.ar      1 MTA279      0.0000 
     20 C4          0.7510  -32.7100  -36.0960 C.ar      1 MTA279      0.0000 
     21 H          -3.1968  -30.4071  -40.1009 H         1 MTA279      0.0000 
     22 H          -4.1538  -30.8144  -38.6663 H         1 MTA279      0.0000 
     23 H          -2.6390  -28.9923  -37.4373 H         1 MTA279      0.0000 
     24 H          -0.1051  -30.7897  -39.5598 H         1 MTA279      0.0000 
     25 H          -1.2434  -29.0200  -39.9435 H         1 MTA279      0.0000 
     26 H           0.1454  -30.1992  -36.6309 H         1 MTA279      0.0000 
     27 H           0.1227  -33.0556  -39.2401 H         1 MTA279      0.0000 
     28 H           1.9337  -36.4345  -36.4137 H         1 MTA279      0.0000 
     29 H           2.4159  -36.6239  -34.6941 H         1 MTA279      0.0000 
     30 H           1.4578  -32.5012  -32.7757 H         1 MTA279      0.0000 
     31 H          -3.1062  -26.9124  -38.4966 H         1 MTA279      0.0000 
     32 H          -2.8546  -27.0420  -40.0796 H         1 MTA279      0.0000 
     33 H          -4.1538  -26.2679  -39.5326 H         1 MTA279      0.0000 
     34 H           1.5610  -29.0016  -38.0092 H         1 MTA279      0.0000 
     35 H          -0.3617  -27.8658  -37.4297 H         1 MTA279      0.0000 
@<TRIPOS>BOND
     1    2    1 1    
     2   31    1 1    
     3   32    1 1    
     4   33    1 1    
     5    3    2 1    
     6    4    3 1    
     7   21    3 1    
     8   22    3 1    
     9    5    4 1    
    10    8    4 1    
    11   23    4 1    
    12   10    5 1    
    13    7    6 1    
    14    8    6 1    
    15   10    6 1    
    16   24    6 1    
    17   34    7 1    
    18    9    8 1    
    19   25    8 1    
    20   35    9 1    
    21   11   10 1    
    22   26   10 1    
    23   12   11 1    
    24   20   11 1    
    25   13   12 2    
    26   27   12 1    
    27   14   13 1    
    28   15   14 ar   
    29   20   14 ar   
    30   16   15 1    
    31   17   15 ar   
    32   28   16 1    
    33   29   16 1    
    34   18   17 ar   
    35   19   18 ar   
    36   30   18 1    
    37   20   19 ar   
@<TRIPOS>SUBSTRUCTURE
     1 MTA279      1 GROUP   
@<TRIPOS>SET

