#    Name: 1KI8_2_CAVITY_N1_ALL.mol2
#    Modification time : Tue Mar 11 13:35:20 2014

@<TRIPOS>MOLECULE
1KI8_2_CAVITY_N1_ALL.mol2
   57     0     6     0     0
SMALL
NO_CHARGES


@<TRIPOS>ATOM
      1 CZ         21.7806   98.4026   45.5303 C.ar      4 PHE5        0.0000 
      2 CZ         19.6901   98.2441   45.2065 C.ar      4 PHE5        0.0000 
      3 CZ         20.6921   97.5086   46.0462 C.ar      4 PHE5        0.0000 
      4 NZ         17.5996   98.0856   44.8828 N.2       3 LYS4        0.0000 
      5 CA         18.6017   97.3501   45.7225 C.3       5 GLY6        0.0000 
      6 CA         19.6037   96.6147   46.5622 C.3       5 GLY6        0.0000 
      7 O          16.5112   97.1916   45.3987 O.2       2 ALA2        0.0000 
      8 CA         17.5132   96.4562   46.2384 C.3       5 GLY6        0.0000 
      9 OG         21.0260   98.1840   43.5598 O.2       1 SER1        0.0000 
     10 CZ         22.0280   97.4486   44.3995 C.ar      4 PHE5        0.0000 
     11 CA         23.0301   96.7132   45.2392 C.3       5 GLY6        0.0000 
     12 OG         18.9355   98.0255   43.2360 O.2       1 SER1        0.0000 
     13 OG         19.9376   97.2901   44.0757 O.2       1 SER1        0.0000 
     14 CA         20.9396   96.5547   44.9154 C.3       5 GLY6        0.0000 
     15 CA         21.9416   95.8192   45.7551 C.3       5 GLY6        0.0000 
     16 CA         17.8471   97.1316   43.7520 C.3       5 GLY6        0.0000 
     17 DU         18.8491   96.3962   44.5916 H         6 CUB7        0.0000 
     18 CA         19.8512   95.6607   45.4313 C.3       5 GLY6        0.0000 
     19 CA         15.7566   96.9731   43.4282 C.3       5 GLY6        0.0000 
     20 CA         16.7587   96.2377   44.2679 C.3       5 GLY6        0.0000 
     21 DU         17.7607   95.5022   45.1076 H         6 CUB7        0.0000 
     22 CA         18.7627   94.7668   45.9473 C.3       5 GLY6        0.0000 
     23 O          15.6702   95.3437   44.7838 O.2       2 ALA2        0.0000 
     24 CZ         16.6723   94.6083   45.6235 C.ar      4 PHE5        0.0000 
     25 CZ         20.1850   96.3362   42.9449 C.ar      4 PHE5        0.0000 
     26 CZ         21.1871   95.6007   43.7846 C.ar      4 PHE5        0.0000 
     27 CA         22.1891   94.8653   44.6243 C.3       5 GLY6        0.0000 
     28 CA         18.0946   96.1777   42.6211 C.3       5 GLY6        0.0000 
     29 CZ         19.0966   95.4422   43.4608 C.ar      4 PHE5        0.0000 
     30 CA         20.0986   94.7068   44.3005 C.3       5 GLY6        0.0000 
     31 CA         17.0061   95.2837   43.1371 C.3       5 GLY6        0.0000 
     32 NZ         18.0082   94.5483   43.9768 N.2       3 LYS4        0.0000 
     33 CZ         19.0102   93.8129   44.8165 C.ar      4 PHE5        0.0000 
     34 CA         13.9136   95.8606   41.9736 C.3       5 GLY6        0.0000 
     35 O          14.9157   95.1252   42.8133 O.2       2 ALA2        0.0000 
     36 NZ         15.9177   94.3898   43.6530 N.2       3 LYS4        0.0000 
     37 CZ         22.4366   93.9113   43.4935 C.ar      4 PHE5        0.0000 
     38 CZ         19.3441   94.4883   42.3300 C.ar      4 PHE5        0.0000 
     39 CZ         20.3461   93.7528   43.1697 C.ar      4 PHE5        0.0000 
     40 CA         21.3481   93.0174   44.0094 C.3       5 GLY6        0.0000 
     41 CA         22.3502   92.2820   44.8491 C.3       5 GLY6        0.0000 
     42 O          18.2556   93.5943   42.8459 O.2       2 ALA2        0.0000 
     43 CA         19.2577   92.8589   43.6856 C.3       5 GLY6        0.0000 
     44 CZ         20.2597   92.1235   44.5253 C.ar      4 PHE5        0.0000 
     45 CA         21.2617   91.3880   45.3650 C.3       5 GLY6        0.0000 
     46 CZ         20.5936   92.7989   42.0389 C.ar      4 PHE5        0.0000 
     47 CZ         21.5956   92.0635   42.8786 C.ar      4 PHE5        0.0000 
     48 CA         22.5976   91.3280   43.7183 C.3       5 GLY6        0.0000 
     49 O          19.5051   91.9050   42.5548 O.2       2 ALA2        0.0000 
     50 CA         20.5072   91.1695   43.3945 C.3       5 GLY6        0.0000 
     51 CA         21.5092   90.4341   44.2342 C.3       5 GLY6        0.0000 
     52 CA         19.4187   90.2756   43.9104 C.3       5 GLY6        0.0000 
     53 CZ         20.4207   89.5402   44.7501 C.ar      4 PHE5        0.0000 
     54 CA         20.7546   90.2156   42.2637 C.3       5 GLY6        0.0000 
     55 O          21.7567   89.4801   43.1034 O.2       2 ALA2        0.0000 
     56 CA         19.6662   89.3216   42.7796 C.3       5 GLY6        0.0000 
     57 CZ         20.6682   88.5862   43.6193 C.ar      4 PHE5        0.0000 
@<TRIPOS>BOND
@<TRIPOS>SUBSTRUCTURE
     1 SER1        9 GROUP   
     2 ALA2        7 GROUP   
     3 LYS4        4 GROUP   
     4 PHE5        1 GROUP   
     5 GLY6        5 GROUP   
     6 CUB7       17 GROUP   
@<TRIPOS>SET

