#    Name: 1ki8_BVD_2_INTS_M
#    Modification time : Tue Mar 25 10:04:12 2014

@<TRIPOS>MOLECULE
1ki8_BVD_2_INTS_M
   61     0     9     0     0
SMALL
NO_CHARGES


@<TRIPOS>ATOM
      1 O          16.3445   93.2245   44.1610 O.2       1 ALC1        0.0000 
      2 O          17.0160   94.5540   44.5230 O.2       7 ALL1        0.0000 
      3 O          15.6730   91.8950   43.7990 O.2       4 ALP1        0.0000 
      4 CA         15.5025   94.7460   47.0745 C.3       3 GLC5        0.0000 
      5 CA         16.6280   95.5310   45.4770 C.3       9 GLL5        0.0000 
      6 CA         14.3770   93.9610   48.6720 C.3       6 GLP5        0.0000 
      7 CA         16.9460   93.7840   46.4255 C.3       3 GLC5        0.0000 
      8 CA         17.2640   92.0370   47.3740 C.3       6 GLP5        0.0000 
      9 CA         15.3640   96.6355   46.7445 C.3       3 GLC5        0.0000 
     10 CA         14.1000   97.7400   48.0120 C.3       6 GLP5        0.0000 
     11 CA         16.2535   97.8295   46.7345 C.3       3 GLC5        0.0000 
     12 CA         17.6050   96.6400   45.4730 C.3       9 GLL5        0.0000 
     13 CA         14.9020   99.0190   47.9960 C.3       6 GLP5        0.0000 
     14 CA         20.0300   98.5350   45.4140 C.3       3 GLC5        0.0000 
     15 CA         19.7860   96.5180   44.6690 C.3       9 GLL5        0.0000 
     16 CA         20.2740  100.5520   46.1590 C.3       6 GLP5        0.0000 
     17 CA         20.4385   95.2055   46.1375 C.3       3 GLC5        0.0000 
     18 CA         21.0910   93.8930   47.6060 C.3       6 GLP5        0.0000 
     19 CA         20.7160   96.6030   42.7510 C.3       3 GLC5        0.0000 
     20 CA         21.6460   96.6880   40.8330 C.3       6 GLP5        0.0000 
     21 CA         20.7080   94.3030   42.0240 C.3       3 GLC5        0.0000 
     22 CA         20.2720   94.1630   43.9210 C.3       9 GLL5        0.0000 
     23 CA         21.1440   94.4430   40.1270 C.3       6 GLP5        0.0000 
     24 O          24.3520   94.5440   44.6530 O.2       1 ALC1        0.0000 
     25 O          22.8240   94.5850   44.3900 O.2       7 ALL1        0.0000 
     26 O          25.8800   94.5030   44.9160 O.2       4 ALP1        0.0000 
     27 N          24.8345   92.4810   43.9640 N.am      2 SEC2        0.0000 
     28 N          23.3580   92.5220   43.6950 N.am      8 SEL2        0.0000 
     29 N          26.3110   92.4400   44.2330 N.am      5 SEP2        0.0000 
     30 CA         19.1330   91.4920   45.1200 C.3       3 GLC5        0.0000 
     31 CA         20.4360   91.9150   43.7170 C.3       9 GLL5        0.0000 
     32 CA         17.8300   91.0690   46.5230 C.3       6 GLP5        0.0000 
     33 CA         19.8015   87.9570   44.3845 C.3       3 GLC5        0.0000 
     34 CA         20.5180   89.0030   43.3420 C.3       9 GLL5        0.0000 
     35 CA         19.0850   86.9110   45.4270 C.3       6 GLP5        0.0000 
     36 CA         18.9865   89.8590   42.4910 C.3       3 GLC5        0.0000 
     37 CA         17.4550   90.7150   41.6400 C.3       6 GLP5        0.0000 
     38 CA         19.7675   96.2245   41.9105 C.3       3 GLC5        0.0000 
     39 CA         18.7650   96.6860   43.5410 C.3       9 GLL5        0.0000 
     40 CA         20.7700   95.7630   40.2800 C.3       6 GLP5        0.0000 
     41 N          18.9315   99.5745   44.1425 N.am      2 SEC2        0.0000 
     42 N          18.0640   98.6680   44.5250 N.am      8 SEL2        0.0000 
     43 N          19.7990  100.4810   43.7600 N.am      5 SEP2        0.0000 
     44 O          16.8280   99.5265   44.7890 O.2       1 ALC1        0.0000 
     45 O          18.0640   98.6680   44.5250 O.2       7 ALL1        0.0000 
     46 O          15.5920  100.3850   45.0530 O.2       4 ALP1        0.0000 
     47 CA         17.3578   95.9513   47.3955 C.3       3 GLC5        0.0000 
     48 CA         17.5990   95.8170   49.3160 C.3       6 GLP5        0.0000 
     49 CA         20.8174   93.3359   45.6936 C.3       3 GLC5        0.0000 
     50 CA         19.1270   91.0415   42.5960 C.3       3 GLC5        0.0000 
     51 CA         19.8180   90.0615   45.1692 C.3       3 GLC5        0.0000 
     52 CA         21.1620   90.8210   43.3870 C.3       9 GLL5        0.0000 
     53 CA         18.7960   90.2110   46.9740 C.3       6 GLP5        0.0000 
     54 CA         21.1150   89.6910   41.6038 C.3       3 GLC5        0.0000 
     55 CA         21.3900   89.4700   39.8430 C.3       6 GLP5        0.0000 
     56 CA         22.6230   89.2030   43.5727 C.3       3 GLC5        0.0000 
     57 CA         24.4060   88.4940   43.7810 C.3       6 GLP5        0.0000 
     58 CA         21.6759   92.8509   42.0381 C.3       3 GLC5        0.0000 
     59 CA         22.4040   94.0320   40.5110 C.3       6 GLP5        0.0000 
     60 CA         17.7287   97.8505   42.3337 C.3       3 GLC5        0.0000 
     61 CA         17.2460   98.6720   40.7970 C.3       6 GLP5        0.0000 
@<TRIPOS>BOND
@<TRIPOS>SUBSTRUCTURE
     1 ALC1        1 GROUP        1 X    ALC  0     ROOT ALC X 1
     2 SEC2       27 GROUP        1 X    SEC  0     **** SEC X 2
     3 GLC5        4 GROUP        1 X    GLC  0     **** GLC X 6
     4 ALP1        3 GROUP        1 Y    ALP  0     ROOT ALP Y 8
     5 SEP2       29 GROUP        1 Y    SEP  0     **** SEP Y 9
     6 GLP5        6 GROUP        1 Y    GLP  0     **** GLP Y 13
     7 ALL1        2 GROUP        1 Z    ALL  0     ROOT ALL Z 15
     8 SEL2       28 GROUP        1 Z    SEL  0     **** SEL Z 16
     9 GLL5        5 GROUP        1 Z    GLL  0     **** GLL Z 20
@<TRIPOS>SET

