#    Name: 1ki8_BVD_2_ligand
#    Modification time : Tue Mar 25 10:04:12 2014

@<TRIPOS>MOLECULE
1ki8_BVD_2_ligand
   32    33     1     0     0
SMALL
NO_CHARGES


@<TRIPOS>ATOM
      1 O5'        17.0160   94.5540   44.5230 O.3       1 BVD2        0.0000 
      2 C5'        16.6280   95.5310   45.4770 C.3       1 BVD2        0.0000 
      3 C4'        17.6050   96.6400   45.4730 C.3       1 BVD2        0.0000 
      4 O4'        18.9100   96.1360   45.6900 O.3       1 BVD2        0.0000 
      5 C1'        19.7860   96.5180   44.6690 C.3       1 BVD2        0.0000 
      6 N1         20.7520   95.3920   44.3810 N.am      1 BVD2        0.0000 
      7 C6         20.2720   94.1630   43.9210 C.2       1 BVD2        0.0000 
      8 C2         22.0780   95.6670   44.4880 C.2       1 BVD2        0.0000 
      9 O2         22.5570   96.8030   44.5930 O.2       1 BVD2        0.0000 
     10 N3         22.8240   94.5850   44.3900 N.am      1 BVD2        0.0000 
     11 C4         22.4540   93.3310   43.9280 C.2       1 BVD2        0.0000 
     12 O4         23.3580   92.5220   43.6950 O.2       1 BVD2        0.0000 
     13 C5         21.0310   93.1220   43.7700 C.2       1 BVD2        0.0000 
     14 C5A        20.4360   91.9150   43.7170 C.2       1 BVD2        0.0000 
     15 C5B        21.1620   90.8210   43.3870 C.2       1 BVD2        0.0000 
     16 BR         20.5180   89.0030   43.3420 Br        1 BVD2        0.0000 
     17 C2'        18.7650   96.6860   43.5410 C.3       1 BVD2        0.0000 
     18 C3'        17.6580   97.3720   44.2000 C.3       1 BVD2        0.0000 
     19 O3'        18.0640   98.6680   44.5250 O.3       1 BVD2        0.0000 
     20 H          16.5809   95.1020   46.4902 H         1 BVD2        0.0000 
     21 H          15.6295   95.9357   45.2493 H         1 BVD2        0.0000 
     22 H          17.3540   97.3438   46.2675 H         1 BVD2        0.0000 
     23 H          20.2528   97.4187   44.8454 H         1 BVD2        0.0000 
     24 H          19.2333   94.1223   43.6964 H         1 BVD2        0.0000 
     25 H          23.8718   94.6597   44.7070 H         1 BVD2        0.0000 
     26 H          19.4218   91.8202   43.9284 H         1 BVD2        0.0000 
     27 H          22.1423   90.7261   43.1088 H         1 BVD2        0.0000 
     28 H          18.4781   95.7211   43.1930 H         1 BVD2        0.0000 
     29 H          19.1980   97.2852   42.7742 H         1 BVD2        0.0000 
     30 H          16.7862   97.2843   43.6871 H         1 BVD2        0.0000 
     31 H          16.3264   93.8335   44.5955 H         1 BVD2        0.0000 
     32 H          17.2150   99.1834   44.6419 H         1 BVD2        0.0000 
@<TRIPOS>BOND
     1    2    1 1    
     2   31    1 1    
     3    3    2 1    
     4   20    2 1    
     5   21    2 1    
     6    4    3 1    
     7   18    3 1    
     8   22    3 1    
     9    5    4 1    
    10    6    5 1    
    11   17    5 1    
    12   23    5 1    
    13    7    6 1    
    14    8    6 1    
    15   13    7 2    
    16   24    7 1    
    17    9    8 2    
    18   10    8 1    
    19   11   10 1    
    20   25   10 1    
    21   12   11 2    
    22   13   11 1    
    23   14   13 1    
    24   15   14 2    
    25   26   14 1    
    26   16   15 1    
    27   27   15 1    
    28   18   17 1    
    29   28   17 1    
    30   29   17 1    
    31   19   18 1    
    32   30   18 1    
    33   32   19 1    
@<TRIPOS>SUBSTRUCTURE
     1 BVD2        1 GROUP   
@<TRIPOS>SET

