#    Name: 3he3_FAD_6_INTS_M
#    Modification time : Tue Mar 25 14:08:51 2014

@<TRIPOS>MOLECULE
3he3_FAD_6_INTS_M
   92     0     9     0     0
SMALL
NO_CHARGES


@<TRIPOS>ATOM
      1 N         -50.2970  -41.8060   83.4045 N.am      2 SEC2        0.0000 
      2 N         -51.5230  -41.0260   83.8890 N.am      8 SEL2        0.0000 
      3 N         -49.0710  -42.5860   82.9200 N.am      5 SEP2        0.0000 
      4 CA        -50.2145  -35.3135   82.2000 C.3       3 GLC5        0.0000 
      5 CA        -49.7420  -36.6500   83.3690 C.3       9 GLL5        0.0000 
      6 CA        -50.6870  -33.9770   81.0310 C.3       6 GLP5        0.0000 
      7 CA        -48.6140  -39.0280   82.5455 C.3       3 GLC5        0.0000 
      8 CA        -48.4130  -37.2830   83.7560 C.3       9 GLL5        0.0000 
      9 CA        -48.8150  -40.7730   81.3350 C.3       6 GLP5        0.0000 
     10 O         -47.9305  -37.1130   81.4655 O.2       1 ALC1        0.0000 
     11 O         -47.9040  -38.0070   82.6650 O.2       7 ALL1        0.0000 
     12 O         -47.9570  -36.2190   80.2660 O.2       4 ALP1        0.0000 
     13 O         -46.1035  -35.9155   82.1025 O.2       1 ALC1        0.0000 
     14 O         -46.2670  -36.2690   83.3770 O.2       7 ALL1        0.0000 
     15 O         -45.9400  -35.5620   80.8280 O.2       4 ALP1        0.0000 
     16 CA        -49.4630  -34.4490   82.2730 C.3       3 GLC5        0.0000 
     17 CA        -48.2390  -34.9210   83.5150 C.3       9 GLL5        0.0000 
     18 O         -45.6845  -28.2785   85.1245 O.2       1 ALC1        0.0000 
     19 O         -46.5800  -29.6170   85.7370 O.2       7 ALL1        0.0000 
     20 O         -44.7890  -26.9400   84.5120 O.2       4 ALP1        0.0000 
     21 N         -46.2705  -28.5300   82.6530 N.am      2 SEC2        0.0000 
     22 N         -46.6020  -29.9670   83.4100 N.am      8 SEL2        0.0000 
     23 N         -45.9390  -27.0930   81.8960 N.am      5 SEP2        0.0000 
     24 CA        -48.4250  -30.2860   82.5345 C.3       3 GLC5        0.0000 
     25 CA        -46.7550  -30.8380   82.3500 C.3       9 GLL5        0.0000 
     26 CA        -50.0950  -29.7340   82.7190 C.3       6 GLP5        0.0000 
     27 CA        -47.2030  -30.0915   80.6645 C.3       3 GLC5        0.0000 
     28 CA        -47.6510  -29.3450   78.9790 C.3       6 GLP5        0.0000 
     29 CA        -46.6560  -32.0005   80.7825 C.3       3 GLC5        0.0000 
     30 CA        -46.5570  -33.1630   79.2150 C.3       6 GLP5        0.0000 
     31 CA        -44.9740  -31.5800   82.4570 C.3       3 GLC5        0.0000 
     32 CA        -43.1930  -32.3220   82.5640 C.3       6 GLP5        0.0000 
     33 CA        -45.2620  -29.5125   82.2245 C.3       3 GLC5        0.0000 
     34 CA        -43.7690  -28.1870   82.0990 C.3       6 GLP5        0.0000 
     35 N         -45.9510  -32.5730   81.6625 N.am      2 SEC2        0.0000 
     36 N         -47.2050  -32.1240   82.5690 N.am      8 SEL2        0.0000 
     37 N         -44.6970  -33.0220   80.7560 N.am      5 SEP2        0.0000 
     38 CA        -49.0915  -33.2560   82.4285 C.3       3 GLC5        0.0000 
     39 CA        -47.4960  -32.5350   83.8260 C.3       9 GLL5        0.0000 
     40 CA        -45.5635  -32.9280   83.7210 C.3       3 GLC5        0.0000 
     41 CA        -43.6310  -33.3210   83.6160 C.3       6 GLP5        0.0000 
     42 N         -56.8335  -47.8340   85.7105 N.am      2 SEC2        0.0000 
     43 N         -55.4690  -48.7470   86.2600 N.am      8 SEL2        0.0000 
     44 N         -58.1980  -46.9210   85.1610 N.am      5 SEP2        0.0000 
     45 N         -57.7685  -48.2400   85.2385 N.am      2 SEC2        0.0000 
     46 N         -57.3390  -49.5590   85.3160 N.am      8 SEL2        0.0000 
     47 O         -56.0650  -52.0120   84.8730 O.2       1 ALC1        0.0000 
     48 O         -55.7490  -51.0840   85.8640 O.2       7 ALL1        0.0000 
     49 O         -56.3810  -52.9400   83.8820 O.2       4 ALP1        0.0000 
     50 N         -53.7915  -52.8640   85.0555 N.am      2 SEC2        0.0000 
     51 N         -54.0860  -52.4970   86.4530 N.am      8 SEL2        0.0000 
     52 N         -53.4970  -53.2310   83.6580 N.am      5 SEP2        0.0000 
     53 CA        -47.1210  -49.9085   88.0135 C.3       3 GLC5        0.0000 
     54 CA        -48.3550  -48.8480   89.4790 C.3       9 GLL5        0.0000 
     55 CA        -45.8870  -50.9690   86.5480 C.3       6 GLP5        0.0000 
     56 CA        -47.3415  -48.3660   90.9235 C.3       3 GLC5        0.0000 
     57 CA        -46.3280  -47.8840   92.3680 C.3       6 GLP5        0.0000 
     58 CA        -46.3340  -48.2895   89.2115 C.3       3 GLC5        0.0000 
     59 CA        -44.3130  -47.7310   88.9440 C.3       6 GLP5        0.0000 
     60 CA        -48.7065  -44.8625   90.4960 C.3       3 GLC5        0.0000 
     61 CA        -49.3910  -46.1540   89.3160 C.3       9 GLL5        0.0000 
     62 CA        -48.0220  -43.5710   91.6760 C.3       6 GLP5        0.0000 
     63 N         -51.6040  -46.5525   85.3260 N.am      2 SEC2        0.0000 
     64 N         -52.6310  -45.6720   85.7380 N.am      8 SEL2        0.0000 
     65 N         -50.5770  -47.4330   84.9140 N.am      5 SEP2        0.0000 
     66 O         -56.7330  -44.8575   87.5895 O.2       1 ALC1        0.0000 
     67 O         -56.0690  -44.6340   86.1900 O.2       7 ALL1        0.0000 
     68 O         -57.3970  -45.0810   88.9890 O.2       4 ALP1        0.0000 
     69 CA        -54.7895  -43.8135   82.9535 C.3       3 GLC5        0.0000 
     70 CA        -54.2570  -43.4880   85.1120 C.3       9 GLL5        0.0000 
     71 CA        -55.3220  -44.1390   80.7950 C.3       6 GLP5        0.0000 
     72 CA        -55.3455  -41.3905   87.1985 C.3       3 GLC5        0.0000 
     73 CA        -54.9530  -42.1410   85.2600 C.3       9 GLL5        0.0000 
     74 CA        -55.7380  -40.6400   89.1370 C.3       6 GLP5        0.0000 
     75 CA        -56.7245  -41.9535   85.5185 C.3       3 GLC5        0.0000 
     76 CA        -58.4960  -41.7660   85.7770 C.3       6 GLP5        0.0000 
     77 N         -55.4630  -38.9285   82.2035 N.am      2 SEC2        0.0000 
     78 N         -54.3090  -38.9880   83.1730 N.am      8 SEL2        0.0000 
     79 N         -56.6170  -38.8690   81.2340 N.am      5 SEP2        0.0000 
     80 N         -56.1505  -38.9605   86.6595 N.am      2 SEC2        0.0000 
     81 N         -55.5100  -39.1950   85.3490 N.am      8 SEL2        0.0000 
     82 N         -56.7910  -38.7260   87.9700 N.am      5 SEP2        0.0000 
     83 CA        -45.2727  -31.8750   84.8942 C.3       3 GLC5        0.0000 
     84 CA        -46.8970  -30.3820   84.6950 C.3       9 GLL5        0.0000 
     85 CA        -43.4220  -32.7200   84.9880 C.3       6 GLP5        0.0000 
     86 CA        -48.7024  -30.7583   83.5161 C.3       3 GLC5        0.0000 
     87 CA        -47.3500  -31.6780   84.9060 C.3       9 GLL5        0.0000 
     88 CA        -52.7750  -47.1430   85.4120 C.3       3 GLC5        0.0000 
     89 CA        -53.9970  -45.8170   86.0630 C.3       9 GLL5        0.0000 
     90 CA        -51.4860  -48.0820   84.1090 C.3       6 GLP5        0.0000 
     91 CA        -55.0847  -46.1788   84.6328 C.3       3 GLC5        0.0000 
     92 CA        -55.8370  -47.2220   83.1270 C.3       6 GLP5        0.0000 
@<TRIPOS>BOND
@<TRIPOS>SUBSTRUCTURE
     1 ALC1       10 GROUP        1 X    ALC  0     ROOT ALC X 1
     2 SEC2        1 GROUP        1 X    SEC  0     **** SEC X 2
     3 GLC5        4 GROUP        1 X    GLC  0     **** GLC X 6
     4 ALP1       12 GROUP        1 Y    ALP  0     ROOT ALP Y 8
     5 SEP2        3 GROUP        1 Y    SEP  0     **** SEP Y 9
     6 GLP5        6 GROUP        1 Y    GLP  0     **** GLP Y 13
     7 ALL1       11 GROUP        1 Z    ALL  0     ROOT ALL Z 15
     8 SEL2        2 GROUP        1 Z    SEL  0     **** SEL Z 16
     9 GLL5        5 GROUP        1 Z    GLL  0     **** GLL Z 20
@<TRIPOS>SET

