#    Name: 3he3_FAD_6_ligand
#    Modification time : Tue Mar 25 14:08:51 2014

@<TRIPOS>MOLECULE
3he3_FAD_6_ligand
   84    89     1     0     0
SMALL
NO_CHARGES


@<TRIPOS>ATOM
      1 PA        -51.5180  -39.7170   84.6440 P.3       1 FAD450      0.0000 
      2 O1A       -50.4640  -39.7290   85.7240 O.co2     1 FAD450      0.0000 
      3 O2A       -51.5230  -41.0260   83.8890 O.co2     1 FAD450      0.0000 
      4 O5B       -51.2500  -38.4750   83.6590 O.3       1 FAD450      0.0000 
      5 C5B       -50.9020  -37.2110   84.1780 C.3       1 FAD450      0.0000 
      6 C4B       -49.7420  -36.6500   83.3690 C.3       1 FAD450      0.0000 
      7 O4B       -49.6050  -35.2610   83.5950 O.3       1 FAD450      0.0000 
      8 C3B       -48.4130  -37.2830   83.7560 C.3       1 FAD450      0.0000 
      9 O3B       -47.9040  -38.0070   82.6650 O.3       1 FAD450      0.0000 
     10 C2B       -47.4910  -36.1200   84.0570 C.3       1 FAD450      0.0000 
     11 O2B       -46.2670  -36.2690   83.3770 O.3       1 FAD450      0.0000 
     12 C1B       -48.2390  -34.9210   83.5150 C.3       1 FAD450      0.0000 
     13 N9A       -47.9480  -33.7290   84.3210 N.pl3     1 FAD450      0.0000 
     14 C8A       -48.0740  -33.6040   85.6780 C.2       1 FAD450      0.0000 
     15 N7A       -47.7090  -32.3490   86.0230 N.2       1 FAD450      0.0000 
     16 C5A       -47.3500  -31.6780   84.9060 C.ar      1 FAD450      0.0000 
     17 C6A       -46.8970  -30.3820   84.6950 C.ar      1 FAD450      0.0000 
     18 N6A       -46.5800  -29.6170   85.7370 N.pl3     1 FAD450      0.0000 
     19 N1A       -46.6020  -29.9670   83.4100 N.ar      1 FAD450      0.0000 
     20 C2A       -46.7550  -30.8380   82.3500 C.ar      1 FAD450      0.0000 
     21 N3A       -47.2050  -32.1240   82.5690 N.ar      1 FAD450      0.0000 
     22 C4A       -47.4960  -32.5350   83.8260 C.ar      1 FAD450      0.0000 
     23 N1        -55.4690  -48.7470   86.2600 N.2       1 FAD450      0.0000 
     24 C2        -56.2310  -49.7900   85.7930 C.2       1 FAD450      0.0000 
     25 O2        -57.3390  -49.5590   85.3160 O.2       1 FAD450      0.0000 
     26 N3        -55.7490  -51.0840   85.8640 N.am      1 FAD450      0.0000 
     27 C4        -54.5020  -51.3400   86.3980 C.2       1 FAD450      0.0000 
     28 O4        -54.0860  -52.4970   86.4530 O.2       1 FAD450      0.0000 
     29 C4X       -53.7290  -50.2850   86.8700 C.2       1 FAD450      0.0000 
     30 N5        -52.4780  -50.5070   87.4120 N.2       1 FAD450      0.0000 
     31 C5X       -51.7250  -49.4470   87.8740 C.ar      1 FAD450      0.0000 
     32 C6        -50.4680  -49.6720   88.4210 C.ar      1 FAD450      0.0000 
     33 C7        -49.7120  -48.6030   88.8890 C.ar      1 FAD450      0.0000 
     34 C7M       -48.3550  -48.8480   89.4790 C.3       1 FAD450      0.0000 
     35 C8        -50.2090  -47.3070   88.8130 C.ar      1 FAD450      0.0000 
     36 C8M       -49.3910  -46.1540   89.3160 C.3       1 FAD450      0.0000 
     37 C9        -51.4670  -47.0840   88.2660 C.ar      1 FAD450      0.0000 
     38 C9A       -52.2240  -48.1520   87.7970 C.ar      1 FAD450      0.0000 
     39 N10       -53.4740  -47.9320   87.2540 N.pl3     1 FAD450      0.0000 
     40 C10       -54.2230  -48.9910   86.7950 C.2       1 FAD450      0.0000 
     41 C1'       -54.1310  -46.5910   87.3670 C.3       1 FAD450      0.0000 
     42 C2'       -53.9970  -45.8170   86.0630 C.3       1 FAD450      0.0000 
     43 O2'       -52.6310  -45.6720   85.7380 O.3       1 FAD450      0.0000 
     44 C3'       -54.6680  -44.4540   86.2140 C.3       1 FAD450      0.0000 
     45 O3'       -56.0690  -44.6340   86.1900 O.3       1 FAD450      0.0000 
     46 C4'       -54.2570  -43.4880   85.1120 C.3       1 FAD450      0.0000 
     47 O4'       -52.8680  -43.2670   85.1780 O.3       1 FAD450      0.0000 
     48 C5'       -54.9530  -42.1410   85.2600 C.3       1 FAD450      0.0000 
     49 O5'       -54.4130  -41.2640   84.2950 O.3       1 FAD450      0.0000 
     50 P         -54.3360  -39.6700   84.5210 P.3       1 FAD450      0.0000 
     51 O1P       -54.3090  -38.9880   83.1730 O.co2     1 FAD450      0.0000 
     52 O2P       -55.5100  -39.1950   85.3490 O.co2     1 FAD450      0.0000 
     53 O3P       -52.9560  -39.4170   85.3060 O.3       1 FAD450      0.0000 
     54 H         -50.5823  -37.2665   85.2243 H         1 FAD450      0.0000 
     55 H         -51.7290  -36.4954   84.1150 H         1 FAD450      0.0000 
     56 H         -49.9136  -36.8540   82.3221 H         1 FAD450      0.0000 
     57 H         -48.5468  -37.8534   84.6295 H         1 FAD450      0.0000 
     58 H         -47.4002  -36.0182   85.1025 H         1 FAD450      0.0000 
     59 H         -47.9328  -34.7754   82.4981 H         1 FAD450      0.0000 
     60 H         -48.3716  -34.2953   86.2745 H         1 FAD450      0.0000 
     61 H         -46.7189  -30.0238   86.6399 H         1 FAD450      0.0000 
     62 H         -46.2315  -28.7044   85.5230 H         1 FAD450      0.0000 
     63 H         -46.5321  -30.5263   81.3909 H         1 FAD450      0.0000 
     64 H         -56.3288  -51.8666   85.5136 H         1 FAD450      0.0000 
     65 H         -50.0961  -50.6291   88.4801 H         1 FAD450      0.0000 
     66 H         -51.8396  -46.1261   88.2077 H         1 FAD450      0.0000 
     67 H         -53.6661  -46.0154   88.1699 H         1 FAD450      0.0000 
     68 H         -55.1909  -46.7143   87.5984 H         1 FAD450      0.0000 
     69 H         -54.5328  -46.3674   85.2985 H         1 FAD450      0.0000 
     70 H         -54.3523  -44.0339   87.1664 H         1 FAD450      0.0000 
     71 H         -54.5412  -43.9103   84.1611 H         1 FAD450      0.0000 
     72 H         -54.7849  -41.7896   86.2796 H         1 FAD450      0.0000 
     73 H         -56.0234  -42.3022   85.1206 H         1 FAD450      0.0000 
     74 H         -47.7381  -49.2834   88.8234 H         1 FAD450      0.0000 
     75 H         -47.9184  -47.9974   89.7721 H         1 FAD450      0.0000 
     76 H         -48.4005  -49.4452   90.2798 H         1 FAD450      0.0000 
     77 H         -49.1808  -46.2445   90.2895 H         1 FAD450      0.0000 
     78 H         -48.5184  -46.0792   88.8334 H         1 FAD450      0.0000 
     79 H         -49.8665  -45.2821   89.1987 H         1 FAD450      0.0000 
     80 H         -47.9743  -37.3842   81.8858 H         1 FAD450      0.0000 
     81 H         -46.4396  -35.9229   82.4548 H         1 FAD450      0.0000 
     82 H         -52.6082  -44.9754   85.0208 H         1 FAD450      0.0000 
     83 H         -56.3328  -44.7390   87.1489 H         1 FAD450      0.0000 
     84 H         -52.7096  -42.4491   84.6249 H         1 FAD450      0.0000 
@<TRIPOS>BOND
     1    2    1 ar   
     2    3    1 ar   
     3    4    1 1    
     4   53    1 1    
     5    5    4 1    
     6    6    5 1    
     7   54    5 1    
     8   55    5 1    
     9    7    6 1    
    10    8    6 1    
    11   56    6 1    
    12   12    7 1    
    13    9    8 1    
    14   10    8 1    
    15   57    8 1    
    16   80    9 1    
    17   11   10 1    
    18   12   10 1    
    19   58   10 1    
    20   81   11 1    
    21   13   12 1    
    22   59   12 1    
    23   14   13 1    
    24   22   13 1    
    25   15   14 2    
    26   60   14 1    
    27   16   15 1    
    28   17   16 ar   
    29   22   16 ar   
    30   18   17 1    
    31   19   17 ar   
    32   61   18 1    
    33   62   18 1    
    34   20   19 ar   
    35   21   20 ar   
    36   63   20 1    
    37   22   21 ar   
    38   24   23 1    
    39   40   23 2    
    40   25   24 2    
    41   26   24 am   
    42   27   26 am   
    43   64   26 1    
    44   28   27 2    
    45   29   27 1    
    46   30   29 2    
    47   40   29 1    
    48   31   30 1    
    49   32   31 ar   
    50   38   31 ar   
    51   33   32 ar   
    52   65   32 1    
    53   34   33 1    
    54   35   33 ar   
    55   74   34 1    
    56   75   34 1    
    57   76   34 1    
    58   36   35 1    
    59   37   35 ar   
    60   77   36 1    
    61   78   36 1    
    62   79   36 1    
    63   38   37 ar   
    64   66   37 1    
    65   39   38 1    
    66   40   39 1    
    67   41   39 1    
    68   42   41 1    
    69   67   41 1    
    70   68   41 1    
    71   43   42 1    
    72   44   42 1    
    73   69   42 1    
    74   82   43 1    
    75   45   44 1    
    76   46   44 1    
    77   70   44 1    
    78   83   45 1    
    79   47   46 1    
    80   48   46 1    
    81   71   46 1    
    82   84   47 1    
    83   49   48 1    
    84   72   48 1    
    85   73   48 1    
    86   50   49 1    
    87   51   50 ar   
    88   52   50 ar   
    89   53   50 1    
@<TRIPOS>SUBSTRUCTURE
     1 FAD450      1 GROUP   
@<TRIPOS>SET

