#    Name: 4img_NGF_1_INTS_M
#    Modification time : Tue Mar 25 04:09:46 2014

@<TRIPOS>MOLECULE
4img_NGF_1_INTS_M
   73     0     9     0     0
SMALL
NO_CHARGES


@<TRIPOS>ATOM
      1 CA         28.2515   29.5525   17.6465 C.3       3 GLC5        0.0000 
      2 CA         27.7050   29.6540   19.5510 C.3       9 GLL5        0.0000 
      3 CA         28.7980   29.4510   15.7420 C.3       6 GLP5        0.0000 
      4 CA         26.4730   29.8170   17.9605 C.3       3 GLC5        0.0000 
      5 CA         25.2410   29.9800   16.3700 C.3       6 GLP5        0.0000 
      6 CA         28.9720   27.8090   23.0940 C.3       3 GLC5        0.0000 
      7 CA         28.0060   27.2550   21.1850 C.3       9 GLL5        0.0000 
      8 CA         29.9380   28.3630   25.0030 C.3       6 GLP5        0.0000 
      9 N          27.9165   26.8905   24.8845 N.am      2 SEC2        0.0000 
     10 N          27.6100   26.4660   23.4660 N.am      8 SEL2        0.0000 
     11 N          28.2230   27.3150   26.3030 N.am      5 SEP2        0.0000 
     12 O          28.8310   25.6615   23.3895 O.2       1 ALC1        0.0000 
     13 O          27.6100   26.4660   23.4660 O.2       7 ALL1        0.0000 
     14 O          30.0520   24.8570   23.3130 O.2       4 ALP1        0.0000 
     15 CA         24.1075   25.6385   21.3075 C.3       3 GLC5        0.0000 
     16 CA         25.6130   26.4190   21.7130 C.3       9 GLL5        0.0000 
     17 CA         22.6020   24.8580   20.9020 C.3       6 GLP5        0.0000 
     18 CA         24.2050   27.0770   20.2125 C.3       3 GLC5        0.0000 
     19 CA         22.7970   27.7350   18.7120 C.3       6 GLP5        0.0000 
     20 CA         25.5520   25.3555   19.7340 C.3       3 GLC5        0.0000 
     21 CA         25.4910   24.2920   17.7550 C.3       6 GLP5        0.0000 
     22 N          27.2425   24.5080   19.7000 N.am      2 SEC2        0.0000 
     23 N          28.4140   25.0830   20.3490 N.am      8 SEL2        0.0000 
     24 N          26.0710   23.9330   19.0510 N.am      5 SEP2        0.0000 
     25 O          29.2330   24.9700   21.8310 O.2       1 ALC1        0.0000 
     26 O          28.4140   25.0830   20.3490 O.2       7 ALL1        0.0000 
     27 O          28.9560   23.8690   20.4790 O.2       1 ALC1        0.0000 
     28 O          29.4980   22.6550   20.6090 O.2       4 ALP1        0.0000 
     29 N          25.1585   28.8630   24.2220 N.am      2 SEC2        0.0000 
     30 N          25.5290   27.5450   23.6070 N.am      8 SEL2        0.0000 
     31 N          24.7880   30.1810   24.8370 N.am      5 SEP2        0.0000 
     32 N          22.7005   28.8045   20.8225 N.am      2 SEC2        0.0000 
     33 N          22.8430   27.7160   21.6760 N.am      8 SEL2        0.0000 
     34 N          22.5580   29.8930   19.9690 N.am      5 SEP2        0.0000 
     35 N          23.4720   27.6755   20.4655 N.am      2 SEC2        0.0000 
     36 N          24.1010   27.6350   19.2550 N.am      5 SEP2        0.0000 
     37 N          22.6550   29.8010   22.9980 N.am      2 SEC2        0.0000 
     38 N          23.3940   28.7620   23.4570 N.am      8 SEL2        0.0000 
     39 N          21.9160   30.8400   22.5390 N.am      5 SEP2        0.0000 
     40 N          24.0910   29.4715   24.1470 N.am      2 SEC2        0.0000 
     41 O          28.1260   26.4115   17.8660 O.2       1 ALC1        0.0000 
     42 O          28.8120   27.2580   18.5920 O.2       7 ALL1        0.0000 
     43 O          27.4400   25.5650   17.1400 O.2       4 ALP1        0.0000 
     44 CA         31.0760   23.7650   19.0600 C.3       3 GLC5        0.0000 
     45 CA         30.8130   25.8800   18.8740 C.3       9 GLL5        0.0000 
     46 CA         31.3390   21.6500   19.2460 C.3       6 GLP5        0.0000 
     47 N          31.8955   23.9545   20.6055 N.am      2 SEC2        0.0000 
     48 N          31.5900   25.2130   19.8890 N.am      8 SEL2        0.0000 
     49 N          32.2010   22.6960   21.3220 N.am      5 SEP2        0.0000 
     50 O          32.7770   24.8990   19.6450 O.2       1 ALC1        0.0000 
     51 O          31.5900   25.2130   19.8890 O.2       7 ALL1        0.0000 
     52 O          33.9640   24.5850   19.4010 O.2       4 ALP1        0.0000 
     53 CA         32.9320   25.3920   16.4060 C.3       3 GLC5        0.0000 
     54 CA         31.7290   26.5770   17.8700 C.3       9 GLL5        0.0000 
     55 CA         34.1350   24.2070   14.9420 C.3       6 GLP5        0.0000 
     56 CA         32.3510   27.7650   16.3345 C.3       3 GLC5        0.0000 
     57 CA         32.9730   28.9530   14.7990 C.3       6 GLP5        0.0000 
     58 CA         30.5185   27.0315   16.0980 C.3       3 GLC5        0.0000 
     59 CA         29.3080   27.4860   14.3260 C.3       6 GLP5        0.0000 
     60 O          33.6795   27.0265   18.7985 O.2       1 ALC1        0.0000 
     61 O          32.3160   27.6760   18.5590 O.2       7 ALL1        0.0000 
     62 O          35.0430   26.3770   19.0380 O.2       4 ALP1        0.0000 
     63 N          25.7840   30.5530   18.9095 N.am      2 SEC2        0.0000 
     64 N          26.2620   29.5200   19.5510 N.am      8 SEL2        0.0000 
     65 N          25.3060   31.5860   18.2680 N.am      5 SEP2        0.0000 
     66 O          25.1815   28.5775   19.4030 O.2       1 ALC1        0.0000 
     67 O          26.2620   29.5200   19.5510 O.2       7 ALL1        0.0000 
     68 O          24.1010   27.6350   19.2550 O.2       4 ALP1        0.0000 
     69 CA         26.3925   24.4750   21.4483 C.3       3 GLC5        0.0000 
     70 CA         26.4100   22.5520   20.9930 C.3       6 GLP5        0.0000 
     71 CA         31.3002   26.8415   21.3435 C.3       3 GLC5        0.0000 
     72 CA         29.1160   26.3040   20.7480 C.3       9 GLL5        0.0000 
     73 CA         33.1230   27.0990   22.5460 C.3       6 GLP5        0.0000 
@<TRIPOS>BOND
@<TRIPOS>SUBSTRUCTURE
     1 ALC1       12 GROUP        1 X    ALC  0     ROOT ALC X 1
     2 SEC2        9 GROUP        1 X    SEC  0     **** SEC X 2
     3 GLC5        1 GROUP        1 X    GLC  0     **** GLC X 6
     4 ALP1       14 GROUP        1 Y    ALP  0     ROOT ALP Y 8
     5 SEP2       11 GROUP        1 Y    SEP  0     **** SEP Y 9
     6 GLP5        3 GROUP        1 Y    GLP  0     **** GLP Y 13
     7 ALL1       13 GROUP        1 Z    ALL  0     ROOT ALL Z 15
     8 SEL2       10 GROUP        1 Z    SEL  0     **** SEL Z 16
     9 GLL5        2 GROUP        1 Z    GLL  0     **** GLL Z 20
@<TRIPOS>SET

