#    Name: 4img_NGF_1_ligand
#    Modification time : Tue Mar 25 04:09:46 2014

@<TRIPOS>MOLECULE
4img_NGF_1_ligand
   40    39     1     0     0
SMALL
NO_CHARGES


@<TRIPOS>ATOM
      1 O10        28.9430   30.7440   21.2560 O.2       1 NGF501      0.0000 
      2 C10        28.3750   29.7030   20.9210 C.2       1 NGF501      0.0000 
      3 C11        27.7050   29.6540   19.5510 C.3       1 NGF501      0.0000 
      4 N5         28.3970   28.6040   21.6920 N.am      1 NGF501      0.0000 
      5 C5         28.0060   27.2550   21.1850 C.3       1 NGF501      0.0000 
      6 C4         27.1370   26.3770   22.0940 C.3       1 NGF501      0.0000 
      7 O4         27.6100   26.4660   23.4660 O.3       1 NGF501      0.0000 
      8 C3         25.6130   26.4190   21.7130 C.3       1 NGF501      0.0000 
      9 C6         29.1160   26.3040   20.7480 C.3       1 NGF501      0.0000 
     10 O6         28.4140   25.0830   20.3490 O.3       1 NGF501      0.0000 
     11 C2         24.9320   27.3260   22.6710 C.2       1 NGF501      0.0000 
     12 O2         25.5290   27.5450   23.6070 O.2       1 NGF501      0.0000 
     13 C1         23.6650   27.9610   22.5580 C.2       1 NGF501      0.0000 
     14 O1         22.8430   27.7160   21.6760 O.co2     1 NGF501      0.0000 
     15 O3         23.3940   28.7620   23.4570 O.co2     1 NGF501      0.0000 
     16 C7         29.8390   26.8640   19.5340 C.3       1 NGF501      0.0000 
     17 O7         28.8120   27.2580   18.5920 O.3       1 NGF501      0.0000 
     18 C8         30.8130   25.8800   18.8740 C.3       1 NGF501      0.0000 
     19 O8         31.5900   25.2130   19.8890 O.3       1 NGF501      0.0000 
     20 C9         31.7290   26.5770   17.8700 C.3       1 NGF501      0.0000 
     21 O9         32.3160   27.6760   18.5590 O.3       1 NGF501      0.0000 
     22 O5         26.2620   29.5200   19.5510 O.3       1 NGF501      0.0000 
     23 H          28.1755   28.8134   18.9775 H         1 NGF501      0.0000 
     24 H          28.0117   30.5777   18.9945 H         1 NGF501      0.0000 
     25 H          28.6886   28.6278   22.6907 H         1 NGF501      0.0000 
     26 H          27.3697   27.3853   20.2471 H         1 NGF501      0.0000 
     27 H          27.4671   25.2871   21.7277 H         1 NGF501      0.0000 
     28 H          25.2287   25.4160   21.7838 H         1 NGF501      0.0000 
     29 H          25.5363   26.7871   20.7043 H         1 NGF501      0.0000 
     30 H          29.7712   26.1319   21.5366 H         1 NGF501      0.0000 
     31 H          30.3932   27.7442   19.8477 H         1 NGF501      0.0000 
     32 H          30.2136   25.1476   18.3254 H         1 NGF501      0.0000 
     33 H          31.1241   26.8957   17.0301 H         1 NGF501      0.0000 
     34 H          32.4689   25.8593   17.5375 H         1 NGF501      0.0000 
     35 H          28.4903   25.9916   23.4674 H         1 NGF501      0.0000 
     36 H          28.7811   24.3676   20.9435 H         1 NGF501      0.0000 
     37 H          28.3861   26.4014   18.3004 H         1 NGF501      0.0000 
     38 H          32.5336   25.4988   19.7219 H         1 NGF501      0.0000 
     39 H          33.2429   27.3753   18.7836 H         1 NGF501      0.0000 
     40 H          26.0936   28.5362   19.6128 H         1 NGF501      0.0000 
@<TRIPOS>BOND
     1    2    1 2    
     2    3    2 1    
     3    4    2 am   
     4   22    3 1    
     5   23    3 1    
     6   24    3 1    
     7    5    4 1    
     8   25    4 1    
     9    6    5 1    
    10    9    5 1    
    11   26    5 1    
    12    7    6 1    
    13    8    6 1    
    14   27    6 1    
    15   35    7 1    
    16   11    8 1    
    17   28    8 1    
    18   29    8 1    
    19   10    9 1    
    20   16    9 1    
    21   30    9 1    
    22   36   10 1    
    23   12   11 2    
    24   13   11 1    
    25   14   13 ar   
    26   15   13 ar   
    27   17   16 1    
    28   18   16 1    
    29   31   16 1    
    30   37   17 1    
    31   19   18 1    
    32   20   18 1    
    33   32   18 1    
    34   38   19 1    
    35   21   20 1    
    36   33   20 1    
    37   34   20 1    
    38   39   21 1    
    39   40   22 1    
@<TRIPOS>SUBSTRUCTURE
     1 NGF501      1 GROUP   
@<TRIPOS>SET

