#    Name: 1c1y_GTP_1_INTS_M
#    Modification time : Mon Mar 24 20:08:07 2014

@<TRIPOS>MOLECULE
1c1y_GTP_1_INTS_M
   77     0    15     0     0
SMALL
NO_CHARGES


@<TRIPOS>ATOM
      1 N           0.0890   29.5075   32.8375 N.am      2 SEC2        0.0000 
      2 N           0.7750   28.4450   33.2190 N.am     12 SEL2        0.0000 
      3 N          -0.5970   30.5700   32.4560 N.am      7 SEP2        0.0000 
      4 Zn          1.0290   25.1245   32.4460 Zn        4 ZIC7        0.0000 
      5 Zn          1.3260   26.0710   32.8690 Zn       14 ZIL7        0.0000 
      6 Zn          0.7320   24.1780   32.0230 Zn        9 ZIP7        0.0000 
      7 N           0.7755   25.8045   34.2160 N.am      2 SEC2        0.0000 
      8 N           1.3260   26.0710   32.8690 N.am     12 SEL2        0.0000 
      9 N           0.2250   25.5380   35.5630 N.am      7 SEP2        0.0000 
     10 NZ          3.6540   27.4470   31.0255 N.4       3 LYC4        0.0000 
     11 NZ          2.8790   27.8770   32.1330 N.4      13 LYL4        0.0000 
     12 NZ          4.4290   27.0170   29.9180 N.4       8 LYP4        0.0000 
     13 N           3.6540   27.4470   31.0255 N.am      2 SEC2        0.0000 
     14 N           2.8790   27.8770   32.1330 N.am     12 SEL2        0.0000 
     15 N           4.4290   27.0170   29.9180 N.am      7 SEP2        0.0000 
     16 N           0.7890   28.9025   30.1385 N.am      2 SEC2        0.0000 
     17 N           0.6610   27.6060   30.7890 N.am     12 SEL2        0.0000 
     18 N           0.9170   30.1990   29.4880 N.am      7 SEP2        0.0000 
     19 NZ          3.1615   26.9375   29.3730 N.4       3 LYC4        0.0000 
     20 NZ          1.8940   26.8580   28.8280 N.4      13 LYL4        0.0000 
     21 N           1.3440   26.8360   27.3850 N.am      2 SEC2        0.0000 
     22 N           1.8940   26.8580   28.8280 N.am     12 SEL2        0.0000 
     23 N           0.7940   26.8140   25.9420 N.am      7 SEP2        0.0000 
     24 N           1.9500   25.6520   27.8205 N.am      2 SEC2        0.0000 
     25 N           2.0060   24.4460   26.8130 N.am      7 SEP2        0.0000 
     26 N           3.1615   26.9375   29.3730 N.am      2 SEC2        0.0000 
     27 Zn          0.7655   24.6690   31.0605 Zn        4 ZIC7        0.0000 
     28 Zn          0.7990   25.1600   30.0980 Zn       14 ZIL7        0.0000 
     29 N           0.9525   23.7945   29.3355 N.am      2 SEC2        0.0000 
     30 N           0.7990   25.1600   30.0980 N.am     12 SEL2        0.0000 
     31 N           1.1060   22.4290   28.5730 N.am      7 SEP2        0.0000 
     32 N           0.1160   26.6660   27.2835 N.am      2 SEC2        0.0000 
     33 N          -0.5620   26.5180   28.6250 N.am     12 SEL2        0.0000 
     34 N          -1.5530   23.0405   27.6325 N.am      2 SEC2        0.0000 
     35 N          -1.7880   24.3760   27.9870 N.am     12 SEL2        0.0000 
     36 N          -1.3180   21.7050   27.2780 N.am      7 SEP2        0.0000 
     37 CA         -1.7570   29.0460   28.2750 C.3       5 GLC5        0.0000 
     38 CA         -3.3810   27.8250   28.0600 C.3      15 GLL5        0.0000 
     39 CA         -0.1330   30.2670   28.4900 C.3      10 GLP5        0.0000 
     40 CA         -3.8925   28.5625   29.6670 C.3       5 GLC5        0.0000 
     41 CA         -4.4040   29.3000   31.2740 C.3      10 GLP5        0.0000 
     42 O          -7.9800   27.1305   27.4955 O.2       1 ALC1        0.0000 
     43 O          -6.7850   27.9870   27.4790 O.2      11 ALL1        0.0000 
     44 O          -9.1750   26.2740   27.5120 O.2       6 ALP1        0.0000 
     45 O          -6.9920   24.4020   26.2815 O.2       1 ALC1        0.0000 
     46 O          -6.9110   25.6360   25.8280 O.2      11 ALL1        0.0000 
     47 O          -7.0730   23.1680   26.7350 O.2       6 ALP1        0.0000 
     48 CA         -3.4925   28.2080   24.1705 C.3       5 GLC5        0.0000 
     49 CA         -5.0170   27.1180   25.0260 C.3      15 GLL5        0.0000 
     50 CA         -1.9680   29.2980   23.3150 C.3      10 GLP5        0.0000 
     51 N          -1.1310   25.2595   22.5465 N.am      2 SEC2        0.0000 
     52 N          -2.6210   25.1560   23.1220 N.am     12 SEL2        0.0000 
     53 N           0.3590   25.3630   21.9710 N.am      7 SEP2        0.0000 
     54 CA         -2.4485   27.0960   21.5685 C.3       5 GLC5        0.0000 
     55 CA         -3.4610   25.6730   22.1530 C.3      15 GLL5        0.0000 
     56 CA         -1.4360   28.5190   20.9840 C.3      10 GLP5        0.0000 
     57 CA         -2.9265   23.6795   22.0550 C.3       5 GLC5        0.0000 
     58 CA         -2.3920   21.6860   21.9570 C.3      10 GLP5        0.0000 
     59 N          -2.3915   23.5515   19.8175 N.am      2 SEC2        0.0000 
     60 N          -2.7100   24.8960   20.0350 N.am     12 SEL2        0.0000 
     61 N          -2.0730   22.2070   19.6000 N.am      7 SEP2        0.0000 
     62 N          -3.7195   23.4860   19.8840 N.am      2 SEC2        0.0000 
     63 N          -4.7290   22.0760   19.7330 N.am      7 SEP2        0.0000 
     64 O          -4.3780   26.2575   18.7205 O.2       1 ALC1        0.0000 
     65 O          -4.4910   26.2150   20.1260 O.2      11 ALL1        0.0000 
     66 O          -4.2650   26.3000   17.3150 O.2       6 ALP1        0.0000 
     67 O          -6.3610   27.3235   18.6455 O.2       1 ALC1        0.0000 
     68 O          -6.3800   27.6330   20.0870 O.2      11 ALL1        0.0000 
     69 O          -6.3420   27.0140   17.2040 O.2       6 ALP1        0.0000 
     70 CA         -3.1995   27.8725   23.0270 C.3       5 GLC5        0.0000 
     71 CA         -4.4310   26.4470   22.7390 C.3      15 GLL5        0.0000 
     72 CA         -5.4138   28.2593   29.0325 C.3       5 GLC5        0.0000 
     73 CA         -4.4450   28.1550   27.0420 C.3      15 GLL5        0.0000 
     74 CA         -5.8030   28.8470   30.8800 C.3      10 GLP5        0.0000 
     75 CA         -6.2065   25.2060   24.2893 C.3       5 GLC5        0.0000 
     76 CA         -5.5930   26.2180   26.1290 C.3      15 GLL5        0.0000 
     77 CA         -7.1080   23.7440   23.0010 C.3      10 GLP5        0.0000 
@<TRIPOS>BOND
@<TRIPOS>SUBSTRUCTURE
     1 ALC1       42 GROUP        1 X    ALC  0     ROOT ALC X 1
     2 SEC2        1 GROUP        1 X    SEC  0     **** SEC X 2
     3 LYC4       10 GROUP        1 X    LYC  0     **** LYC X 4
     4 ZIC7        4 GROUP        1 X    ZIC  0     **** ZIC X 5
     5 GLC5       37 GROUP        1 X    GLC  0     **** GLC X 6
     6 ALP1       44 GROUP        1 Y    ALP  0     ROOT ALP Y 8
     7 SEP2        3 GROUP        1 Y    SEP  0     **** SEP Y 9
     8 LYP4       12 GROUP        1 Y    LYP  0     **** LYP Y 11
     9 ZIP7        6 GROUP        1 Y    ZIP  0     **** ZIP Y 12
    10 GLP5       39 GROUP        1 Y    GLP  0     **** GLP Y 13
    11 ALL1       43 GROUP        1 Z    ALL  0     ROOT ALL Z 15
    12 SEL2        2 GROUP        1 Z    SEL  0     **** SEL Z 16
    13 LYL4       11 GROUP        1 Z    LYL  0     **** LYL Z 18
    14 ZIL7        5 GROUP        1 Z    ZIL  0     **** ZIL Z 19
    15 GLL5       38 GROUP        1 Z    GLL  0     **** GLL Z 20
@<TRIPOS>SET

