#    Name: 1c1y_GTP_1_ligand
#    Modification time : Mon Mar 24 20:08:07 2014

@<TRIPOS>MOLECULE
1c1y_GTP_1_ligand
   44    46     1     0     0
SMALL
NO_CHARGES


@<TRIPOS>ATOM
      1 PG          1.3860   27.4290   32.3000 P.3       1 GTP170      0.0000 
      2 O1G         0.7750   28.4450   33.2190 O.co2     1 GTP170      0.0000 
      3 O2G         1.3260   26.0710   32.8690 O.co2     1 GTP170      0.0000 
      4 O3G         2.8790   27.8770   32.1330 O.co2     1 GTP170      0.0000 
      5 O3B         0.6610   27.6060   30.7890 O.3       1 GTP170      0.0000 
      6 PB          0.7010   26.4910   29.5880 P.3       1 GTP170      0.0000 
      7 O1B         1.8940   26.8580   28.8280 O.co2     1 GTP170      0.0000 
      8 O2B         0.7990   25.1600   30.0980 O.co2     1 GTP170      0.0000 
      9 O3A        -0.5620   26.5180   28.6250 O.3       1 GTP170      0.0000 
     10 PA         -1.9860   25.6620   28.7280 P.3       1 GTP170      0.0000 
     11 O1A        -1.7880   24.3760   27.9870 O.co2     1 GTP170      0.0000 
     12 O2A        -2.5750   25.6970   30.0730 O.co2     1 GTP170      0.0000 
     13 O5'        -3.0160   26.4610   27.8380 O.3       1 GTP170      0.0000 
     14 C5'        -3.3810   27.8250   28.0600 C.3       1 GTP170      0.0000 
     15 C4'        -4.4450   28.1550   27.0420 C.3       1 GTP170      0.0000 
     16 O4'        -4.1100   28.0550   25.6060 O.3       1 GTP170      0.0000 
     17 C3'        -5.6040   27.1880   27.3280 C.3       1 GTP170      0.0000 
     18 O3'        -6.7850   27.9870   27.4790 O.3       1 GTP170      0.0000 
     19 C2'        -5.5930   26.2180   26.1290 C.3       1 GTP170      0.0000 
     20 O2'        -6.9110   25.6360   25.8280 O.3       1 GTP170      0.0000 
     21 C1'        -5.0170   27.1180   25.0260 C.3       1 GTP170      0.0000 
     22 N9         -4.2190   26.4330   24.0580 N.pl3     1 GTP170      0.0000 
     23 C8         -3.1340   25.6480   24.2110 C.2       1 GTP170      0.0000 
     24 N7         -2.6210   25.1560   23.1220 N.2       1 GTP170      0.0000 
     25 C5         -3.4610   25.6730   22.1530 C.2       1 GTP170      0.0000 
     26 C6         -3.4620   25.5220   20.7400 C.2       1 GTP170      0.0000 
     27 O6         -2.7100   24.8960   20.0350 O.2       1 GTP170      0.0000 
     28 N1         -4.4910   26.2150   20.1260 N.am      1 GTP170      0.0000 
     29 C2         -5.4400   26.9890   20.8030 C.2       1 GTP170      0.0000 
     30 N2         -6.3800   27.6330   20.0870 N.pl3     1 GTP170      0.0000 
     31 N3         -5.4350   27.1240   22.1290 N.2       1 GTP170      0.0000 
     32 C4         -4.4310   26.4470   22.7390 C.2       1 GTP170      0.0000 
     33 H          -2.5417   28.4959   27.9114 H         1 GTP170      0.0000 
     34 H          -3.7941   27.9751   29.0517 H         1 GTP170      0.0000 
     35 H          -4.8454   29.1521   27.2686 H         1 GTP170      0.0000 
     36 H          -5.3422   26.6486   28.2098 H         1 GTP170      0.0000 
     37 H          -4.8463   25.4698   26.3473 H         1 GTP170      0.0000 
     38 H          -5.8248   27.6467   24.5514 H         1 GTP170      0.0000 
     39 H          -2.7518   25.4631   25.1451 H         1 GTP170      0.0000 
     40 H          -4.5707   26.1594   19.0706 H         1 GTP170      0.0000 
     41 H          -7.0140   28.2053   20.6071 H         1 GTP170      0.0000 
     42 H          -6.3607   27.4818   19.0987 H         1 GTP170      0.0000 
     43 H          -7.4947   27.4983   26.9715 H         1 GTP170      0.0000 
     44 H          -6.8853   24.7184   26.2247 H         1 GTP170      0.0000 
@<TRIPOS>BOND
     1    2    1 ar   
     2    3    1 ar   
     3    4    1 ar   
     4    5    1 1    
     5    6    5 1    
     6    7    6 ar   
     7    8    6 ar   
     8    9    6 1    
     9   10    9 1    
    10   11   10 ar   
    11   12   10 ar   
    12   13   10 1    
    13   14   13 1    
    14   15   14 1    
    15   33   14 1    
    16   34   14 1    
    17   16   15 1    
    18   17   15 1    
    19   35   15 1    
    20   21   16 1    
    21   18   17 1    
    22   19   17 1    
    23   36   17 1    
    24   43   18 1    
    25   20   19 1    
    26   21   19 1    
    27   37   19 1    
    28   44   20 1    
    29   22   21 1    
    30   38   21 1    
    31   23   22 1    
    32   32   22 1    
    33   24   23 2    
    34   39   23 1    
    35   25   24 1    
    36   26   25 1    
    37   32   25 2    
    38   27   26 2    
    39   28   26 am   
    40   29   28 1    
    41   40   28 1    
    42   30   29 1    
    43   31   29 2    
    44   41   30 1    
    45   42   30 1    
    46   32   31 1    
@<TRIPOS>SUBSTRUCTURE
     1 GTP170      1 GROUP   
@<TRIPOS>SET

