#    Name: 3u98_BJA_1_INTS_M
#    Modification time : Mon Mar 24 21:56:26 2014

@<TRIPOS>MOLECULE
3u98_BJA_1_INTS_M
   87     0    12     0     0
SMALL
NO_CHARGES


@<TRIPOS>ATOM
      1 CA         11.3955  -17.0065   22.1495 C.3       4 GLC5        0.0000 
      2 CA         12.2360  -16.3080   20.4690 C.3      12 GLL5        0.0000 
      3 CA         10.5550  -17.7050   23.8300 C.3       8 GLP5        0.0000 
      4 CA          9.7365  -17.9130   20.2060 C.3       4 GLC5        0.0000 
      5 CA         11.3310  -16.7410   19.5020 C.3      12 GLL5        0.0000 
      6 CA          8.1420  -19.0850   20.9100 C.3       8 GLP5        0.0000 
      7 CA          9.6660  -15.4425   19.3635 C.3       4 GLC5        0.0000 
      8 CA          8.0010  -14.1440   19.2250 C.3       8 GLP5        0.0000 
      9 N          13.0505  -17.6815   23.6075 N.am      2 SEC2        0.0000 
     10 N          14.2740  -17.8360   22.7050 N.am     10 SEL2        0.0000 
     11 N          11.8270  -17.5270   24.5100 N.am      6 SEP2        0.0000 
     12 CA         19.5835  -16.1810   28.3305 C.3       4 GLC5        0.0000 
     13 CA         18.7660  -16.4390   26.7880 C.3      12 GLL5        0.0000 
     14 CA         20.4010  -15.9230   29.8730 C.3       8 GLP5        0.0000 
     15 O          17.5430  -17.3240   28.7680 O.2       1 ALC1        0.0000 
     16 O          18.5070  -17.5220   27.7250 O.2       9 ALL1        0.0000 
     17 O          16.5790  -17.1260   29.8110 O.2       5 ALP1        0.0000 
     18 OD1        17.7375  -18.3270   29.3015 O.co2     3 ASC3        0.0000 
     19 OD1        19.2440  -18.6200   27.8860 O.co2    11 ASL3        0.0000 
     20 OD1        16.5790  -17.1260   29.8110 O.co2     7 ASP3        0.0000 
     21 O          17.7375  -18.3270   29.3015 O.2       1 ALC1        0.0000 
     22 O          18.8960  -19.5280   28.7920 O.2       9 ALL1        0.0000 
     23 O          18.1305  -19.4440   30.1010 O.2       1 ALC1        0.0000 
     24 O          17.3650  -19.3600   31.4100 O.2       5 ALP1        0.0000 
     25 N          15.5255  -13.1495   23.8235 N.am      2 SEC2        0.0000 
     26 N          16.4050  -13.7770   22.7230 N.am     10 SEL2        0.0000 
     27 N          14.6460  -12.5220   24.9240 N.am      6 SEP2        0.0000 
     28 CA         17.8340  -12.0380   22.7460 C.3       4 GLC5        0.0000 
     29 CA         18.2460  -12.8130   20.9670 C.3      12 GLL5        0.0000 
     30 CA         17.4220  -11.2630   24.5250 C.3       8 GLP5        0.0000 
     31 CA         19.2815  -11.1555   18.9805 C.3       4 GLC5        0.0000 
     32 CA         19.4060  -12.7810   19.9820 C.3      12 GLL5        0.0000 
     33 CA         19.1570   -9.5300   17.9790 C.3       8 GLP5        0.0000 
     34 O          16.6730  -10.4450   21.1775 O.2       1 ALC1        0.0000 
     35 O          16.2590  -11.6040   20.3070 O.2       9 ALL1        0.0000 
     36 O          17.0870   -9.2860   22.0480 O.2       5 ALP1        0.0000 
     37 CA         15.1070   -9.6135   18.4230 C.3       4 GLC5        0.0000 
     38 CA         14.9760  -11.3600   19.6530 C.3      12 GLL5        0.0000 
     39 CA         15.2380   -7.8670   17.1930 C.3       8 GLP5        0.0000 
     40 CA         10.8325   -9.0160   22.2545 C.3       4 GLC5        0.0000 
     41 CA         12.6720  -10.2100   22.4420 C.3      12 GLL5        0.0000 
     42 CA          8.9930   -7.8220   22.0670 C.3       8 GLP5        0.0000 
     43 CA          9.9465   -9.5850   22.9250 C.3       4 GLC5        0.0000 
     44 CA         10.9000  -11.3480   23.7830 C.3      12 GLL5        0.0000 
     45 CA         10.9700  -10.4420   25.7915 C.3       4 GLC5        0.0000 
     46 CA         11.0400   -9.5360   27.8000 C.3       8 GLP5        0.0000 
     47 O           9.3565  -10.1925   25.0215 O.2       1 ALC1        0.0000 
     48 O          10.6520  -10.2850   24.4070 O.2       9 ALL1        0.0000 
     49 O           8.0610  -10.1000   25.6360 O.2       5 ALP1        0.0000 
     50 O           9.0710  -12.3675   24.8270 O.2       1 ALC1        0.0000 
     51 O          10.2370  -12.4650   24.0970 O.2       9 ALL1        0.0000 
     52 O           7.9050  -12.2700   25.5570 O.2       5 ALP1        0.0000 
     53 O          10.3525  -13.8890   23.9455 O.2       1 ALC1        0.0000 
     54 O          10.4680  -15.3130   23.7940 O.2       5 ALP1        0.0000 
     55 CA         10.5150  -13.5925   21.5030 C.3       4 GLC5        0.0000 
     56 CA         12.2090  -12.5100   21.9850 C.3      12 GLL5        0.0000 
     57 CA          8.8210  -14.6750   21.0210 C.3       8 GLP5        0.0000 
     58 CA         12.2810  -12.4955   18.9915 C.3       4 GLC5        0.0000 
     59 CA         13.1880  -12.4950   21.0000 C.3      12 GLL5        0.0000 
     60 CA         11.3740  -12.4960   16.9830 C.3       8 GLP5        0.0000 
     61 CA         10.3023  -15.5998   20.5033 C.3       4 GLC5        0.0000 
     62 CA         11.8912  -15.4795   17.4238 C.3       4 GLC5        0.0000 
     63 CA         11.4260  -13.9230   16.4190 C.3       8 GLP5        0.0000 
     64 CA         16.6950  -16.8732   27.0998 C.3       4 GLC5        0.0000 
     65 CA         15.0190  -17.1460   28.0490 C.3       8 GLP5        0.0000 
     66 CA         17.7681  -14.6251   26.6513 C.3       4 GLC5        0.0000 
     67 CA         17.1250  -12.9380   27.3990 C.3       8 GLP5        0.0000 
     68 CA         21.8150  -14.5620   20.3230 C.3       4 GLC5        0.0000 
     69 CA         20.3780  -13.8360   20.4850 C.3      12 GLL5        0.0000 
     70 CA         23.6640  -14.7830   19.7690 C.3       8 GLP5        0.0000 
     71 CA         20.1490  -11.9112   21.6744 C.3       4 GLC5        0.0000 
     72 CA         20.6960  -10.5060   22.8690 C.3       8 GLP5        0.0000 
     73 CA         19.2435  -15.1076   19.3036 C.3       4 GLC5        0.0000 
     74 CA         18.7640  -16.1380   17.8560 C.3       8 GLP5        0.0000 
     75 CA         14.9100  -10.7383   22.6058 C.3       4 GLC5        0.0000 
     76 CA         13.9070  -11.3460   20.7180 C.3      12 GLL5        0.0000 
     77 CA         16.0420  -10.7040   24.1250 C.3       8 GLP5        0.0000 
     78 CA         12.8458   -8.4552   21.5853 C.3       4 GLC5        0.0000 
     79 CA         13.6490  -10.1990   21.4550 C.3      12 GLL5        0.0000 
     80 CA         12.5310   -6.7060   21.2220 C.3       8 GLP5        0.0000 
     81 CA         14.1760  -10.7440   23.3513 C.3       4 GLC5        0.0000 
     82 CA         10.2075  -11.4420   21.5140 C.3       4 GLC5        0.0000 
     83 CA         11.9480  -11.3580   22.7130 C.3      12 GLL5        0.0000 
     84 CA          8.9910  -11.5310   19.7800 C.3       8 GLP5        0.0000 
     85 CA         10.8448  -12.0168   20.6363 C.3       4 GLC5        0.0000 
     86 CA         12.7203  -12.5312   24.1823 C.3       4 GLC5        0.0000 
     87 CA         13.6240  -13.1310   25.7480 C.3       8 GLP5        0.0000 
@<TRIPOS>BOND
@<TRIPOS>SUBSTRUCTURE
     1 ALC1       15 GROUP        1 X    ALC  0     ROOT ALC X 1
     2 SEC2        9 GROUP        1 X    SEC  0     **** SEC X 2
     3 ASC3       18 GROUP        1 X    ASC  0     **** ASC X 3
     4 GLC5        1 GROUP        1 X    GLC  0     **** GLC X 6
     5 ALP1       17 GROUP        1 Y    ALP  0     ROOT ALP Y 8
     6 SEP2       11 GROUP        1 Y    SEP  0     **** SEP Y 9
     7 ASP3       20 GROUP        1 Y    ASP  0     **** ASP Y 10
     8 GLP5        3 GROUP        1 Y    GLP  0     **** GLP Y 13
     9 ALL1       16 GROUP        1 Z    ALL  0     ROOT ALL Z 15
    10 SEL2       10 GROUP        1 Z    SEL  0     **** SEL Z 16
    11 ASL3       19 GROUP        1 Z    ASL  0     **** ASL Z 17
    12 GLL5        2 GROUP        1 Z    GLL  0     **** GLL Z 20
@<TRIPOS>SET

