#    Name: 3u98_BJA_1_ligand
#    Modification time : Mon Mar 24 21:56:27 2014

@<TRIPOS>MOLECULE
3u98_BJA_1_ligand
   77    79     1     0     0
SMALL
NO_CHARGES


@<TRIPOS>ATOM
      1 C7         14.5810  -15.8200   21.2600 C.3       1 BJA1        0.0000 
      2 S8         15.3250  -17.0790   22.0950 S.o2      1 BJA1        0.0000 
      3 C4         13.6010  -16.2930   20.1980 C.ar      1 BJA1        0.0000 
      4 C5         12.2360  -16.3080   20.4690 C.ar      1 BJA1        0.0000 
      5 C6         11.3310  -16.7410   19.5020 C.ar      1 BJA1        0.0000 
      6 C1         11.7910  -17.1490   18.2560 C.ar      1 BJA1        0.0000 
      7 C2         13.1520  -17.1270   17.9780 C.ar      1 BJA1        0.0000 
      8 C3         14.0560  -16.6960   18.9480 C.ar      1 BJA1        0.0000 
      9 O28        14.2740  -17.8360   22.7050 O.2       1 BJA1        0.0000 
     10 O29        16.1860  -17.8580   21.2430 O.2       1 BJA1        0.0000 
     11 N9         16.1740  -16.4390   23.3210 N.pl3     1 BJA1        0.0000 
     12 C10        17.4860  -15.8360   23.1590 C.3       1 BJA1        0.0000 
     13 C30        18.1370  -15.6090   24.5250 C.3       1 BJA1        0.0000 
     14 C31        17.9760  -16.7620   25.5130 C.3       1 BJA1        0.0000 
     15 C32        18.7660  -16.4390   26.7880 C.3       1 BJA1        0.0000 
     16 N33        18.5070  -17.5220   27.7250 N.pl3     1 BJA1        0.0000 
     17 C34        19.2440  -18.6200   27.8860 C.cat     1 BJA1        0.0000 
     18 N36        18.8960  -19.5280   28.7920 N.pl3     1 BJA1        0.0000 
     19 N35        20.2620  -18.8040   27.1630 N.pl3     1 BJA1        0.0000 
     20 C11        17.3770  -14.4950   22.4830 C.2       1 BJA1        0.0000 
     21 O27        16.4050  -13.7770   22.7230 O.2       1 BJA1        0.0000 
     22 N12        18.3410  -14.1080   21.6460 N.am      1 BJA1        0.0000 
     23 C13        18.2460  -12.8130   20.9670 C.3       1 BJA1        0.0000 
     24 C17        16.9560  -12.7380   20.2090 C.2       1 BJA1        0.0000 
     25 O26        16.5520  -13.6880   19.5630 O.2       1 BJA1        0.0000 
     26 C14        19.4060  -12.7810   19.9820 C.3       1 BJA1        0.0000 
     27 C15        20.3780  -13.8360   20.4850 C.3       1 BJA1        0.0000 
     28 C16        19.5540  -14.8460   21.2690 C.3       1 BJA1        0.0000 
     29 N18        16.2590  -11.6040   20.3070 N.am      1 BJA1        0.0000 
     30 C19        14.9760  -11.3600   19.6530 C.3       1 BJA1        0.0000 
     31 C20        13.9070  -11.3460   20.7180 C.ar      1 BJA1        0.0000 
     32 C25        13.6490  -10.1990   21.4550 C.ar      1 BJA1        0.0000 
     33 C24        12.6720  -10.2100   22.4420 C.ar      1 BJA1        0.0000 
     34 C23        11.9480  -11.3580   22.7130 C.ar      1 BJA1        0.0000 
     35 C37        10.9000  -11.3480   23.7830 C.2       1 BJA1        0.0000 
     36 N38        10.6520  -10.2850   24.4070 N.pl3     1 BJA1        0.0000 
     37 N39        10.2370  -12.4650   24.0970 N.pl3     1 BJA1        0.0000 
     38 C22        12.2090  -12.5100   21.9850 C.ar      1 BJA1        0.0000 
     39 C21        13.1880  -12.4950   21.0000 C.ar      1 BJA1        0.0000 
     40 H          15.3947  -15.2455   20.8265 H         1 BJA1        0.0000 
     41 H          14.0879  -15.2242   22.0230 H         1 BJA1        0.0000 
     42 H          11.8922  -15.9975   21.3890 H         1 BJA1        0.0000 
     43 H          10.3255  -16.7579   19.7117 H         1 BJA1        0.0000 
     44 H          11.1246  -17.4669   17.5403 H         1 BJA1        0.0000 
     45 H          13.4952  -17.4284   17.0567 H         1 BJA1        0.0000 
     46 H          15.0629  -16.6769   18.7359 H         1 BJA1        0.0000 
     47 H          15.7092  -16.4956   24.2148 H         1 BJA1        0.0000 
     48 H          18.1374  -16.4639   22.5818 H         1 BJA1        0.0000 
     49 H          17.7114  -14.6916   24.9735 H         1 BJA1        0.0000 
     50 H          19.2157  -15.4132   24.3765 H         1 BJA1        0.0000 
     51 H          18.3624  -17.6705   25.0748 H         1 BJA1        0.0000 
     52 H          16.9317  -16.8822   25.7616 H         1 BJA1        0.0000 
     53 H          18.4185  -15.4917   27.1716 H         1 BJA1        0.0000 
     54 H          19.8130  -16.3784   26.5321 H         1 BJA1        0.0000 
     55 H          17.6266  -17.3782   28.3227 H         1 BJA1        0.0000 
     56 H          19.5101  -20.3114   28.8882 H         1 BJA1        0.0000 
     57 H          18.0515  -19.3459   29.2957 H         1 BJA1        0.0000 
     58 H          20.4686  -18.0825   26.5022 H         1 BJA1        0.0000 
     59 H          20.7652  -19.6538   27.3197 H         1 BJA1        0.0000 
     60 H          18.3394  -12.0171   21.6429 H         1 BJA1        0.0000 
     61 H          19.8706  -11.8213   20.0030 H         1 BJA1        0.0000 
     62 H          19.0595  -13.0429   19.0081 H         1 BJA1        0.0000 
     63 H          21.1029  -13.3812   21.1319 H         1 BJA1        0.0000 
     64 H          20.8478  -14.3219   19.6520 H         1 BJA1        0.0000 
     65 H          19.3206  -15.6743   20.6337 H         1 BJA1        0.0000 
     66 H          20.1055  -15.1504   22.1335 H         1 BJA1        0.0000 
     67 H          16.6190  -10.7939   20.8882 H         1 BJA1        0.0000 
     68 H          14.7502  -12.1460   18.9376 H         1 BJA1        0.0000 
     69 H          14.9776  -10.4007   19.1429 H         1 BJA1        0.0000 
     70 H          14.1826   -9.3377   21.2702 H         1 BJA1        0.0000 
     71 H          12.4841   -9.3458   22.9817 H         1 BJA1        0.0000 
     72 H           9.9441  -10.3429   25.1109 H         1 BJA1        0.0000 
     73 H          11.1863   -9.4831   24.1398 H         1 BJA1        0.0000 
     74 H          10.4644  -13.2773   23.5599 H         1 BJA1        0.0000 
     75 H           9.5731  -12.3882   24.8409 H         1 BJA1        0.0000 
     76 H          11.6808  -13.3705   22.1733 H         1 BJA1        0.0000 
     77 H          13.3831  -13.3639   20.4654 H         1 BJA1        0.0000 
@<TRIPOS>BOND
     1    2    1 1    
     2    3    1 1    
     3   40    1 1    
     4   41    1 1    
     5    9    2 2    
     6   10    2 2    
     7   11    2 1    
     8    4    3 ar   
     9    8    3 ar   
    10    5    4 ar   
    11   42    4 1    
    12    6    5 ar   
    13   43    5 1    
    14    7    6 ar   
    15   44    6 1    
    16    8    7 ar   
    17   45    7 1    
    18   46    8 1    
    19   12   11 1    
    20   47   11 1    
    21   13   12 1    
    22   20   12 1    
    23   48   12 1    
    24   14   13 1    
    25   49   13 1    
    26   50   13 1    
    27   15   14 1    
    28   51   14 1    
    29   52   14 1    
    30   16   15 1    
    31   53   15 1    
    32   54   15 1    
    33   17   16 ar   
    34   55   16 1    
    35   18   17 ar   
    36   19   17 ar   
    37   56   18 1    
    38   57   18 1    
    39   58   19 1    
    40   59   19 1    
    41   21   20 2    
    42   22   20 am   
    43   23   22 1    
    44   28   22 1    
    45   24   23 1    
    46   26   23 1    
    47   60   23 1    
    48   25   24 2    
    49   29   24 am   
    50   27   26 1    
    51   61   26 1    
    52   62   26 1    
    53   28   27 1    
    54   63   27 1    
    55   64   27 1    
    56   65   28 1    
    57   66   28 1    
    58   30   29 1    
    59   67   29 1    
    60   31   30 1    
    61   68   30 1    
    62   69   30 1    
    63   32   31 ar   
    64   39   31 ar   
    65   33   32 ar   
    66   70   32 1    
    67   34   33 ar   
    68   71   33 1    
    69   35   34 1    
    70   38   34 ar   
    71   36   35 2    
    72   37   35 1    
    73   72   36 1    
    74   73   36 1    
    75   74   37 1    
    76   75   37 1    
    77   39   38 ar   
    78   76   38 1    
    79   77   39 1    
@<TRIPOS>SUBSTRUCTURE
     1 BJA1        1 GROUP   
@<TRIPOS>SET

