#    Name: 1lrl_UPG_1_INTS_M
#    Modification time : Mon Apr  7 14:16:47 2014

@<TRIPOS>MOLECULE
1lrl_UPG_1_INTS_M
   50     0     9     0     0
SMALL
NO_CHARGES


@<TRIPOS>ATOM
      1 O          15.3405   18.6995   41.0420 O.2       1 ALC1        0.0000 
      2 O          15.7280   17.4060   40.6280 O.2       7 ALL1        0.0000 
      3 O          14.9530   19.9930   41.4560 O.2       4 ALP1        0.0000 
      4 N          12.6515   18.0685   40.0605 N.am      2 SEC2        0.0000 
      5 N          13.4990   16.9510   40.6660 N.am      8 SEL2        0.0000 
      6 N          11.8040   19.1860   39.4550 N.am      5 SEP2        0.0000 
      7 CA         15.0545   14.4975   41.6675 C.3       3 GLC5        0.0000 
      8 CA         13.9420   14.2820   39.8950 C.3       9 GLL5        0.0000 
      9 CA         16.1670   14.7130   43.4400 C.3       6 GLP5        0.0000 
     10 CA         12.4815   14.1290   41.1530 C.3       3 GLC5        0.0000 
     11 CA         11.0210   13.9760   42.4110 C.3       6 GLP5        0.0000 
     12 CA         13.9660   15.9270   37.8405 C.3       3 GLC5        0.0000 
     13 CA         13.6670   13.8340   38.4780 C.3       9 GLL5        0.0000 
     14 CA         14.2650   18.0200   37.2030 C.3       6 GLP5        0.0000 
     15 CA         14.3310   12.2080   41.9650 C.3       3 GLC5        0.0000 
     16 CA         13.6500   11.9660   40.0120 C.3       9 GLL5        0.0000 
     17 CA         15.0120   12.4500   43.9180 C.3       6 GLP5        0.0000 
     18 CA         15.9985   11.7625   41.2930 C.3       3 GLC5        0.0000 
     19 CA         14.7590   10.9870   39.8050 C.3       9 GLL5        0.0000 
     20 CA         17.2380   12.5380   42.7810 C.3       6 GLP5        0.0000 
     21 CA         14.6255    9.7715   41.4230 C.3       3 GLC5        0.0000 
     22 CA         14.4920    8.5560   43.0410 C.3       6 GLP5        0.0000 
     23 N          18.7095   11.6655   40.4705 N.am      2 SEC2        0.0000 
     24 N          18.0280   10.9130   39.1800 N.am      8 SEL2        0.0000 
     25 N          19.3910   12.4180   41.7610 N.am      5 SEP2        0.0000 
     26 N          15.4760    7.0600   38.4570 N.am      2 SEC2        0.0000 
     27 N          14.9680    7.7970   37.2230 N.am      8 SEL2        0.0000 
     28 N          15.9840    6.3230   39.6910 N.am      5 SEP2        0.0000 
     29 N          13.3300    9.6295   36.2930 N.am      2 SEC2        0.0000 
     30 N          14.9000    9.8040   35.7530 N.am      8 SEL2        0.0000 
     31 N          11.7600    9.4550   36.8330 N.am      5 SEP2        0.0000 
     32 CA         17.1620    4.9695   31.9230 C.3       3 GLC5        0.0000 
     33 CA         16.3860    5.0910   33.2010 C.3       9 GLL5        0.0000 
     34 CA         17.9380    4.8480   30.6450 C.3       6 GLP5        0.0000 
     35 CA         16.5095   15.0170   41.7037 C.3       3 GLC5        0.0000 
     36 CA         16.3430   14.9100   39.8660 C.3       9 GLL5        0.0000 
     37 CA         16.2350   16.8030   38.7007 C.3       3 GLC5        0.0000 
     38 CA         15.6180   18.2850   37.4340 C.3       6 GLP5        0.0000 
     39 CA         12.1670   13.0928   40.8890 C.3       3 GLC5        0.0000 
     40 CA         13.0100   10.2216   39.4460 C.3       3 GLC5        0.0000 
     41 CA         12.9760   12.4530   38.7220 C.3       9 GLL5        0.0000 
     42 CA         11.9840    8.8450   39.3060 C.3       6 GLP5        0.0000 
     43 CA         20.3368    8.2160   32.4300 C.3       3 GLC5        0.0000 
     44 CA         19.6740    7.3900   34.0110 C.3       9 GLL5        0.0000 
     45 CA         21.4750    9.4910   31.2910 C.3       6 GLP5        0.0000 
     46 CA         17.9782    5.5968   32.0545 C.3       3 GLC5        0.0000 
     47 CA         18.7230    6.4920   33.1270 C.3       9 GLL5        0.0000 
     48 CA         15.7695    4.4760   34.6540 C.3       3 GLC5        0.0000 
     49 CA         17.3140    6.1990   33.8010 C.3       9 GLL5        0.0000 
     50 CA         14.6890    3.3070   35.8070 C.3       6 GLP5        0.0000 
@<TRIPOS>BOND
@<TRIPOS>SUBSTRUCTURE
     1 ALC1        1 GROUP        1 X    ALC  0     ROOT ALC X 1
     2 SEC2        4 GROUP        1 X    SEC  0     **** SEC X 2
     3 GLC5        7 GROUP        1 X    GLC  0     **** GLC X 6
     4 ALP1        3 GROUP        1 Y    ALP  0     ROOT ALP Y 8
     5 SEP2        6 GROUP        1 Y    SEP  0     **** SEP Y 9
     6 GLP5        9 GROUP        1 Y    GLP  0     **** GLP Y 13
     7 ALL1        2 GROUP        1 Z    ALL  0     ROOT ALL Z 15
     8 SEL2        5 GROUP        1 Z    SEL  0     **** SEL Z 16
     9 GLL5        8 GROUP        1 Z    GLL  0     **** GLL Z 20
@<TRIPOS>SET

