#    Name: 1lrl_UPG_1_ligand
#    Modification time : Mon Apr  7 14:16:47 2014

@<TRIPOS>MOLECULE
1lrl_UPG_1_ligand
   58    60     1     0     0
SMALL
NO_CHARGES


@<TRIPOS>ATOM
      1 N1         15.0010   15.2840   40.0650 N.am      1 UPG341      0.0000 
      2 C2         14.6550   16.5700   40.4680 C.2       1 UPG341      0.0000 
      3 N3         15.7280   17.4060   40.6280 N.am      1 UPG341      0.0000 
      4 C4         17.0960   17.0840   40.4440 C.2       1 UPG341      0.0000 
      5 C5         17.3610   15.7320   40.0690 C.2       1 UPG341      0.0000 
      6 C6         16.3430   14.9100   39.8660 C.2       1 UPG341      0.0000 
      7 O2         13.4990   16.9510   40.6660 O.2       1 UPG341      0.0000 
      8 O4         17.9300   17.9590   40.6340 O.2       1 UPG341      0.0000 
      9 C1C        13.9420   14.2820   39.8950 C.3       1 UPG341      0.0000 
     10 C2C        13.6670   13.8340   38.4780 C.3       1 UPG341      0.0000 
     11 O2C        12.7700   14.7610   37.8170 O.3       1 UPG341      0.0000 
     12 C3C        12.9760   12.4530   38.7220 C.3       1 UPG341      0.0000 
     13 C4C        13.6500   11.9660   40.0120 C.3       1 UPG341      0.0000 
     14 O4C        14.2850   13.1390   40.6060 O.3       1 UPG341      0.0000 
     15 O3C        11.5480   12.5150   38.7850 O.3       1 UPG341      0.0000 
     16 C5C        14.7590   10.9870   39.8050 C.3       1 UPG341      0.0000 
     17 O5C        15.6020   11.7160   38.9120 O.3       1 UPG341      0.0000 
     18 PA         16.8910   11.0800   38.2420 P.3       1 UPG341      0.0000 
     19 O1A        17.2280   11.8200   37.0060 O.co2     1 UPG341      0.0000 
     20 O2A        18.0280   10.9130   39.1800 O.co2     1 UPG341      0.0000 
     21 O3A        16.1570    9.6350   37.9460 O.3       1 UPG341      0.0000 
     22 PB         15.7650    8.9460   36.6200 P.3       1 UPG341      0.0000 
     23 O1B        14.9680    7.7970   37.2230 O.co2     1 UPG341      0.0000 
     24 O2B        14.9000    9.8040   35.7530 O.co2     1 UPG341      0.0000 
     25 O3B        17.0970    8.4820   35.7290 O.3       1 UPG341      0.0000 
     26 C1'        17.8870    7.2620   35.9830 C.3       1 UPG341      0.0000 
     27 C2'        19.3970    7.3890   35.5550 C.3       1 UPG341      0.0000 
     28 C3'        19.6740    7.3900   34.0110 C.3       1 UPG341      0.0000 
     29 C4'        18.7230    6.4920   33.1270 C.3       1 UPG341      0.0000 
     30 C5'        17.3140    6.1990   33.8010 C.3       1 UPG341      0.0000 
     31 C6'        16.3860    5.0910   33.2010 C.3       1 UPG341      0.0000 
     32 O2'        20.1590    8.4170   36.2550 O.3       1 UPG341      0.0000 
     33 O3'        21.0790    7.1170   33.7620 O.3       1 UPG341      0.0000 
     34 O4'        18.5360    7.0970   31.8210 O.3       1 UPG341      0.0000 
     35 O5'        17.3630    6.0680   35.2900 O.3       1 UPG341      0.0000 
     36 O6'        15.0540    5.5770   32.6400 O.3       1 UPG341      0.0000 
     37 H          15.5294   18.4225   40.9258 H         1 UPG341      0.0000 
     38 H          18.3434   15.4474   39.9704 H         1 UPG341      0.0000 
     39 H          16.5104   13.9171   39.5383 H         1 UPG341      0.0000 
     40 H          12.9974   14.6833   40.2969 H         1 UPG341      0.0000 
     41 H          14.5672   13.6641   37.9833 H         1 UPG341      0.0000 
     42 H          13.3395   11.8028   37.9233 H         1 UPG341      0.0000 
     43 H          12.9218   11.5800   40.6757 H         1 UPG341      0.0000 
     44 H          14.3694   10.1031   39.3551 H         1 UPG341      0.0000 
     45 H          15.2369   10.7934   40.7375 H         1 UPG341      0.0000 
     46 H          17.9109    7.0445   37.0626 H         1 UPG341      0.0000 
     47 H          19.8617    6.3692   35.9004 H         1 UPG341      0.0000 
     48 H          19.4768    8.4548   33.6778 H         1 UPG341      0.0000 
     49 H          19.2215    5.5195   33.0137 H         1 UPG341      0.0000 
     50 H          16.7083    7.1853   33.6270 H         1 UPG341      0.0000 
     51 H          16.1990    4.3409   33.9927 H         1 UPG341      0.0000 
     52 H          16.9515    4.5704   32.4050 H         1 UPG341      0.0000 
     53 H          11.8518   14.4168   38.0130 H         1 UPG341      0.0000 
     54 H          11.2323   12.0587   37.9530 H         1 UPG341      0.0000 
     55 H          19.4708    9.0004   36.6864 H         1 UPG341      0.0000 
     56 H          21.5659    7.9076   34.1334 H         1 UPG341      0.0000 
     57 H          17.5911    6.8857   31.5709 H         1 UPG341      0.0000 
     58 H          15.2811    6.3871   32.0995 H         1 UPG341      0.0000 
@<TRIPOS>BOND
     1    2    1 1    
     2    6    1 1    
     3    9    1 1    
     4    3    2 1    
     5    7    2 2    
     6    4    3 1    
     7   37    3 1    
     8    5    4 1    
     9    8    4 2    
    10    6    5 2    
    11   38    5 1    
    12   39    6 1    
    13   10    9 1    
    14   14    9 1    
    15   40    9 1    
    16   11   10 1    
    17   12   10 1    
    18   41   10 1    
    19   53   11 1    
    20   13   12 1    
    21   15   12 1    
    22   42   12 1    
    23   14   13 1    
    24   16   13 1    
    25   43   13 1    
    26   54   15 1    
    27   17   16 1    
    28   44   16 1    
    29   45   16 1    
    30   18   17 1    
    31   19   18 ar   
    32   20   18 ar   
    33   21   18 1    
    34   22   21 1    
    35   23   22 ar   
    36   24   22 ar   
    37   25   22 1    
    38   26   25 1    
    39   27   26 1    
    40   35   26 1    
    41   46   26 1    
    42   28   27 1    
    43   32   27 1    
    44   47   27 1    
    45   29   28 1    
    46   33   28 1    
    47   48   28 1    
    48   30   29 1    
    49   34   29 1    
    50   49   29 1    
    51   31   30 1    
    52   35   30 1    
    53   50   30 1    
    54   36   31 1    
    55   51   31 1    
    56   52   31 1    
    57   55   32 1    
    58   56   33 1    
    59   57   34 1    
    60   58   36 1    
@<TRIPOS>SUBSTRUCTURE
     1 UPG341      1 GROUP   
@<TRIPOS>SET

