#    Name: 3ii5_831_2_INTS_M
#    Modification time : Tue Mar 25 16:36:07 2014

@<TRIPOS>MOLECULE
3ii5_831_2_INTS_M
   86     0     9     0     0
SMALL
NO_CHARGES


@<TRIPOS>ATOM
      1 CA        -24.6715   41.5775   11.1815 C.3       3 GLC5        0.0000 
      2 CA        -23.6080   40.9000    9.6230 C.3       9 GLL5        0.0000 
      3 CA        -25.7350   42.2550   12.7400 C.3       6 GLP5        0.0000 
      4 CA        -24.9830   39.6905   10.6820 C.3       3 GLC5        0.0000 
      5 CA        -26.3580   38.4810   11.7410 C.3       6 GLP5        0.0000 
      6 CA        -24.8935   40.2670    8.5745 C.3       3 GLC5        0.0000 
      7 CA        -26.1790   39.6340    7.5260 C.3       6 GLP5        0.0000 
      8 N         -25.4135   41.7950    5.9905 N.am      2 SEC2        0.0000 
      9 N         -24.4890   41.6010    4.9650 N.am      8 SEL2        0.0000 
     10 N         -26.3380   41.9890    7.0160 N.am      5 SEP2        0.0000 
     11 CA        -22.3470   41.1525   12.4330 C.3       3 GLC5        0.0000 
     12 CA        -22.2190   42.1450   10.7570 C.3       9 GLL5        0.0000 
     13 CA        -22.4750   40.1600   14.1090 C.3       6 GLP5        0.0000 
     14 CA        -23.9770   42.2000   11.7485 C.3       3 GLC5        0.0000 
     15 CA        -21.1390   38.7015    9.3510 C.3       3 GLC5        0.0000 
     16 CA        -21.4810   40.5640    9.4870 C.3       9 GLL5        0.0000 
     17 CA        -20.7970   36.8390    9.2150 C.3       6 GLP5        0.0000 
     18 CA        -20.8635   39.9210   11.4575 C.3       3 GLC5        0.0000 
     19 CA        -20.2460   39.2780   13.4280 C.3       6 GLP5        0.0000 
     20 CA        -33.4040   43.1695   -2.5815 C.3       3 GLC5        0.0000 
     21 CA        -33.7840   42.2470   -0.6250 C.3       9 GLL5        0.0000 
     22 CA        -33.0240   44.0920   -4.5380 C.3       6 GLP5        0.0000 
     23 O         -22.4145   44.1515    3.5425 O.2       1 ALC1        0.0000 
     24 O         -22.9360   42.7890    3.6680 O.2       7 ALL1        0.0000 
     25 O         -21.8930   45.5140    3.4170 O.2       4 ALP1        0.0000 
     26 CA        -28.4580   42.9405   -1.3785 C.3       3 GLC5        0.0000 
     27 CA        -29.5480   42.0990    0.1570 C.3       9 GLL5        0.0000 
     28 CA        -27.3680   43.7820   -2.9140 C.3       6 GLP5        0.0000 
     29 CA        -28.2495   41.3025   -1.9170 C.3       3 GLC5        0.0000 
     30 CA        -28.6280   41.0560    0.0770 C.3       9 GLL5        0.0000 
     31 CA        -27.8710   41.5490   -3.9110 C.3       6 GLP5        0.0000 
     32 CA        -25.6810   38.6070   -1.4615 C.3       3 GLC5        0.0000 
     33 CA        -26.2740   39.5230    0.1430 C.3       9 GLL5        0.0000 
     34 CA        -25.0880   37.6910   -3.0660 C.3       6 GLP5        0.0000 
     35 CA        -25.0905   38.8890    1.7740 C.3       3 GLC5        0.0000 
     36 CA        -23.9070   38.2550    3.4050 C.3       6 GLP5        0.0000 
     37 CA        -24.6450   43.5605    0.2295 C.3       3 GLC5        0.0000 
     38 CA        -24.9100   41.4330    0.8250 C.3       9 GLL5        0.0000 
     39 CA        -24.3800   45.6880   -0.3660 C.3       6 GLP5        0.0000 
     40 CA        -19.7910   44.0775    9.3530 C.3       3 GLC5        0.0000 
     41 CA        -21.8190   43.7550    8.4800 C.3       9 GLL5        0.0000 
     42 CA        -17.7630   44.4000   10.2260 C.3       6 GLP5        0.0000 
     43 CA        -24.5565   40.8510    7.3545 C.3       3 GLC5        0.0000 
     44 CA        -22.9340   42.0680    7.1830 C.3       9 GLL5        0.0000 
     45 CA        -20.7505   41.1250    7.9402 C.3       3 GLC5        0.0000 
     46 CA        -19.5530   41.1950    6.3610 C.3       6 GLP5        0.0000 
     47 CA        -31.9808   40.5288   -2.6223 C.3       3 GLC5        0.0000 
     48 CA        -31.6440   41.0670   -0.7860 C.3       9 GLL5        0.0000 
     49 CA        -31.6260   39.9560   -4.3320 C.3       6 GLP5        0.0000 
     50 CA        -30.7623   42.5802    1.9480 C.3       3 GLC5        0.0000 
     51 CA        -30.9850   42.1100   -0.1110 C.3       9 GLL5        0.0000 
     52 CA        -30.1580   42.4980    3.8060 C.3       6 GLP5        0.0000 
     53 CA        -31.6553   44.8210   -0.6663 C.3       3 GLC5        0.0000 
     54 CA        -31.7480   43.2150    0.2910 C.3       9 GLL5        0.0000 
     55 CA        -30.8760   46.3930   -1.4980 C.3       6 GLP5        0.0000 
     56 CA        -29.6230   42.0378    1.9615 C.3       3 GLC5        0.0000 
     57 CA        -22.8350   40.3150    0.6078 C.3       3 GLC5        0.0000 
     58 CA        -21.2150   39.1050    0.9140 C.3       6 GLP5        0.0000 
     59 CA        -23.5273   43.1295   -1.2250 C.3       3 GLC5        0.0000 
     60 CA        -24.0000   41.6170   -0.2220 C.3       9 GLL5        0.0000 
     61 CA        -23.6800   44.3570   -2.3390 C.3       6 GLP5        0.0000 
     62 CA        -20.7852   42.6320    0.3598 C.3       3 GLC5        0.0000 
     63 CA        -22.7490   42.1870    0.0000 C.3       9 GLL5        0.0000 
     64 CA        -19.0020   42.8800    0.0760 C.3       6 GLP5        0.0000 
     65 CA        -21.8918   40.7445    0.7788 C.3       3 GLC5        0.0000 
     66 CA        -22.3880   42.5810    1.2870 C.3       9 GLL5        0.0000 
     67 CA        -23.6062   44.0930    0.7260 C.3       3 GLC5        0.0000 
     68 CA        -21.0078   42.3010    2.9415 C.3       3 GLC5        0.0000 
     69 CA        -19.1830   42.1040    4.0650 C.3       6 GLP5        0.0000 
     70 CA        -23.9544   40.1398    2.6578 C.3       3 GLC5        0.0000 
     71 CA        -23.2770   42.4150    2.3490 C.3       9 GLL5        0.0000 
     72 CA        -22.5625   40.6150    1.5740 C.3       3 GLC5        0.0000 
     73 CA        -24.5430   41.8350    2.1190 C.3       9 GLL5        0.0000 
     74 CA        -21.1025   42.3692    6.2378 C.3       3 GLC5        0.0000 
     75 CA        -22.9320   42.9090    6.0730 C.3       9 GLL5        0.0000 
     76 CA        -24.2505   43.9352    6.8673 C.3       3 GLC5        0.0000 
     77 CA        -25.8490   44.3270    7.6200 C.3       6 GLP5        0.0000 
     78 CA        -20.9985   45.3312    5.6430 C.3       3 GLC5        0.0000 
     79 CA        -22.3720   44.1780    6.1560 C.3       9 GLL5        0.0000 
     80 CA        -19.9010   46.2770    4.5250 C.3       6 GLP5        0.0000 
     81 CA        -20.6863   42.6845    7.1420 C.3       3 GLC5        0.0000 
     82 CA        -21.8200   44.5930    7.3660 C.3       9 GLL5        0.0000 
     83 CA        -23.8342   44.2505    7.7715 C.3       3 GLC5        0.0000 
     84 CA        -21.1055   41.7355    7.0735 C.3       3 GLC5        0.0000 
     85 CA        -22.3820   42.4840    8.3890 C.3       9 GLL5        0.0000 
     86 CA        -24.2535   43.3015    7.7030 C.3       3 GLC5        0.0000 
@<TRIPOS>BOND
@<TRIPOS>SUBSTRUCTURE
     1 ALC1       23 GROUP        1 X    ALC  0     ROOT ALC X 1
     2 SEC2        8 GROUP        1 X    SEC  0     **** SEC X 2
     3 GLC5        1 GROUP        1 X    GLC  0     **** GLC X 6
     4 ALP1       25 GROUP        1 Y    ALP  0     ROOT ALP Y 8
     5 SEP2       10 GROUP        1 Y    SEP  0     **** SEP Y 9
     6 GLP5        3 GROUP        1 Y    GLP  0     **** GLP Y 13
     7 ALL1       24 GROUP        1 Z    ALL  0     ROOT ALL Z 15
     8 SEL2        9 GROUP        1 Z    SEL  0     **** SEL Z 16
     9 GLL5        2 GROUP        1 Z    GLL  0     **** GLL Z 20
@<TRIPOS>SET

