#    Name: 3ii5_831_2_ligand
#    Modification time : Tue Mar 25 16:36:07 2014

@<TRIPOS>MOLECULE
3ii5_831_2_ligand
   63    67     1     0     0
SMALL
NO_CHARGES


@<TRIPOS>ATOM
      1 C1        -35.9570   40.0980   -0.0450 C.3       1 8311        0.0000 
      2 F1        -23.6080   40.9000    9.6230 F         1 8311        0.0000 
      3 N1        -36.1480   41.1600   -1.0970 N.4       1 8311        0.0000 
      4 O1        -24.4890   41.6010    4.9650 O.2       1 8311        0.0000 
      5 C2        -37.6090   41.5210   -1.2190 C.3       1 8311        0.0000 
      6 F2        -22.2190   42.1450   10.7570 F         1 8311        0.0000 
      7 N2        -27.4770   42.9190    0.7390 N.2       1 8311        0.0000 
      8 C3        -35.2720   42.3890   -0.8630 C.3       1 8311        0.0000 
      9 F3        -21.4810   40.5640    9.4870 F         1 8311        0.0000 
     10 N3        -27.3800   41.5990    0.4390 N.pl3     1 8311        0.0000 
     11 C4        -33.7840   42.2470   -0.6250 C.ar      1 8311        0.0000 
     12 N4        -28.7270   39.7330   -0.2600 N.2       1 8311        0.0000 
     13 C5        -33.0270   41.1360   -1.0390 C.ar      1 8311        0.0000 
     14 N5        -22.9360   42.7890    3.6680 N.am      1 8311        0.0000 
     15 C6        -31.6440   41.0670   -0.7860 C.ar      1 8311        0.0000 
     16 C7        -30.9850   42.1100   -0.1110 C.ar      1 8311        0.0000 
     17 C8        -31.7480   43.2150    0.2910 C.ar      1 8311        0.0000 
     18 C9        -33.1210   43.2830    0.0400 C.ar      1 8311        0.0000 
     19 C10       -29.5480   42.0990    0.1570 C.2       1 8311        0.0000 
     20 C11       -28.7640   43.1940    0.5660 C.2       1 8311        0.0000 
     21 C12       -28.6280   41.0560    0.0770 C.2       1 8311        0.0000 
     22 C13       -27.6270   39.0410   -0.2240 C.2       1 8311        0.0000 
     23 C14       -26.2740   39.5230    0.1430 C.2       1 8311        0.0000 
     24 C15       -26.2070   40.8240    0.4710 C.2       1 8311        0.0000 
     25 C16       -24.9100   41.4330    0.8250 C.ar      1 8311        0.0000 
     26 C17       -24.0000   41.6170   -0.2220 C.ar      1 8311        0.0000 
     27 C18       -22.7490   42.1870    0.0000 C.ar      1 8311        0.0000 
     28 C19       -22.3880   42.5810    1.2870 C.ar      1 8311        0.0000 
     29 C20       -23.2770   42.4150    2.3490 C.ar      1 8311        0.0000 
     30 C21       -24.5430   41.8350    2.1190 C.ar      1 8311        0.0000 
     31 C22       -23.5420   42.3700    4.8400 C.2       1 8311        0.0000 
     32 C23       -22.9320   42.9090    6.0730 C.ar      1 8311        0.0000 
     33 C24       -22.3720   44.1780    6.1560 C.ar      1 8311        0.0000 
     34 C25       -21.8200   44.5930    7.3660 C.ar      1 8311        0.0000 
     35 C26       -21.8190   43.7550    8.4800 C.ar      1 8311        0.0000 
     36 C27       -22.3820   42.4840    8.3890 C.ar      1 8311        0.0000 
     37 C28       -22.9340   42.0680    7.1830 C.ar      1 8311        0.0000 
     38 C29       -22.4150   41.5460    9.5520 C.3       1 8311        0.0000 
     39 H         -35.8401   40.7193   -2.0705 H         1 8311        0.0000 
     40 H         -35.7171   42.9708    0.0049 H         1 8311        0.0000 
     41 H         -35.4263   43.0955   -1.7387 H         1 8311        0.0000 
     42 H         -33.4909   40.3617   -1.5344 H         1 8311        0.0000 
     43 H         -22.1119   43.4766    3.7608 H         1 8311        0.0000 
     44 H         -31.1109   40.2457   -1.0980 H         1 8311        0.0000 
     45 H         -31.2823   43.9971    0.7847 H         1 8311        0.0000 
     46 H         -33.6547   44.1112    0.3504 H         1 8311        0.0000 
     47 H         -29.1820   44.0921    0.7043 H         1 8311        0.0000 
     48 H         -27.6280   37.9885   -0.4790 H         1 8311        0.0000 
     49 H         -25.5236   38.8821    0.1262 H         1 8311        0.0000 
     50 H         -24.2646   41.3228   -1.1787 H         1 8311        0.0000 
     51 H         -22.0959   42.3164   -0.7799 H         1 8311        0.0000 
     52 H         -21.4616   42.9963    1.4553 H         1 8311        0.0000 
     53 H         -25.1928   41.7086    2.8999 H         1 8311        0.0000 
     54 H         -22.3643   44.7971    5.3449 H         1 8311        0.0000 
     55 H         -21.4044   45.5374    7.4392 H         1 8311        0.0000 
     56 H         -21.4054   44.0732    9.3627 H         1 8311        0.0000 
     57 H         -23.3502   41.1257    7.1082 H         1 8311        0.0000 
     58 H         -34.9957   39.8405    0.0526 H         1 8311        0.0000 
     59 H         -36.2710   40.4046    0.8536 H         1 8311        0.0000 
     60 H         -36.4632   39.2637   -0.2633 H         1 8311        0.0000 
     61 H         -37.7604   42.2280   -1.9098 H         1 8311        0.0000 
     62 H         -38.1659   40.7324   -1.4797 H         1 8311        0.0000 
     63 H         -37.9788   41.8690   -0.3575 H         1 8311        0.0000 
@<TRIPOS>BOND
     1    3    1 1    
     2   58    1 1    
     3   59    1 1    
     4   60    1 1    
     5   38    2 1    
     6    5    3 1    
     7    8    3 1    
     8   39    3 1    
     9   31    4 2    
    10   61    5 1    
    11   62    5 1    
    12   63    5 1    
    13   38    6 1    
    14   10    7 1    
    15   20    7 2    
    16   11    8 1    
    17   40    8 1    
    18   41    8 1    
    19   38    9 1    
    20   21   10 1    
    21   24   10 1    
    22   13   11 ar   
    23   18   11 ar   
    24   21   12 1    
    25   22   12 2    
    26   15   13 ar   
    27   42   13 1    
    28   29   14 1    
    29   31   14 am   
    30   43   14 1    
    31   16   15 ar   
    32   44   15 1    
    33   17   16 ar   
    34   19   16 1    
    35   18   17 ar   
    36   45   17 1    
    37   46   18 1    
    38   20   19 1    
    39   21   19 2    
    40   47   20 1    
    41   23   22 1    
    42   48   22 1    
    43   24   23 2    
    44   49   23 1    
    45   25   24 1    
    46   26   25 ar   
    47   30   25 ar   
    48   27   26 ar   
    49   50   26 1    
    50   28   27 ar   
    51   51   27 1    
    52   29   28 ar   
    53   52   28 1    
    54   30   29 ar   
    55   53   30 1    
    56   32   31 1    
    57   33   32 ar   
    58   37   32 ar   
    59   34   33 ar   
    60   54   33 1    
    61   35   34 ar   
    62   55   34 1    
    63   36   35 ar   
    64   56   35 1    
    65   37   36 ar   
    66   38   36 1    
    67   57   37 1    
@<TRIPOS>SUBSTRUCTURE
     1 8311        1 GROUP   
@<TRIPOS>SET

