#    Name: 1ZE8_1_CAVITY_N1_6.mol2
#    Modification time : Mon Mar 10 22:30:33 2014

@<TRIPOS>MOLECULE
1ZE8_1_CAVITY_N1_6.mol2
   89     0     6     0     0
SMALL
NO_CHARGES


@<TRIPOS>ATOM
      1 CZ         -2.2977    8.0431   14.7401 C.ar      4 PHE5        0.0000 
      2 CZ         -4.7229    8.9087   12.5909 C.ar      4 PHE5        0.0000 
      3 CA         -7.1481    9.7743   10.4417 C.3       5 GLY6        0.0000 
      4 CA         -3.0626    6.8054   15.1048 C.3       5 GLY6        0.0000 
      5 CA         -1.6398    5.6210   14.0691 C.3       5 GLY6        0.0000 
      6 DU         -2.9225    6.3043   13.6979 H         6 CUB7        0.0000 
      7 CZ         -4.2051    6.9877   13.3267 C.ar      4 PHE5        0.0000 
      8 CZ         -5.4878    7.6710   12.9556 C.ar      4 PHE5        0.0000 
      9 CZ         -6.7705    8.3544   12.5844 C.ar      4 PHE5        0.0000 
     10 N          -1.4997    5.1198   12.6622 N.2       2 ALA2        0.0000 
     11 DU         -4.0650    6.4865   11.9199 H         6 CUB7        0.0000 
     12 DU         -5.3477    7.1699   11.5487 H         6 CUB7        0.0000 
     13 DU         -6.6304    7.8532   11.1776 H         6 CUB7        0.0000 
     14 CA         -7.9131    8.5366   10.8064 C.3       5 GLY6        0.0000 
     15 N          -0.0769    3.9353   11.6265 N.2       2 ALA2        0.0000 
     16 DU         -1.3595    4.6187   11.2554 H         6 CUB7        0.0000 
     17 DU         -3.9249    5.9854   10.5130 H         6 CUB7        0.0000 
     18 O          -6.4903    7.3521    9.7707 O.2       2 ALA2        0.0000 
     19 CZ          0.0633    3.4342   10.2197 C.ar      4 PHE5        0.0000 
     20 DU         -1.2194    4.1176    9.8485 H         6 CUB7        0.0000 
     21 DU         -2.5021    4.8009    9.4773 H         6 CUB7        0.0000 
     22 N          -3.7848    5.4843    9.1062 N.2       2 ALA2        0.0000 
     23 O          -1.0793    3.6164    8.4416 O.2       2 ALA2        0.0000 
     24 CA         -3.8275    5.5677   15.4694 C.3       5 GLY6        0.0000 
     25 CZ         -5.1102    6.2511   15.0983 C.ar      4 PHE5        0.0000 
     26 CZ         -6.3928    6.9344   14.7271 C.ar      4 PHE5        0.0000 
     27 OG         -2.4047    4.3833   14.4338 O.2       1 SER1        0.0000 
     28 DU         -3.6874    5.0666   14.0626 H         6 CUB7        0.0000 
     29 CZ         -4.9700    5.7500   13.6914 C.ar      4 PHE5        0.0000 
     30 CZ         -6.2527    6.4333   13.3203 C.ar      4 PHE5        0.0000 
     31 CZ         -7.5354    7.1167   12.9491 C.ar      4 PHE5        0.0000 
     32 OG         -2.2646    3.8821   13.0269 O.2       1 SER1        0.0000 
     33 DU         -3.5472    4.5655   12.6557 H         6 CUB7        0.0000 
     34 O          -4.8299    5.2488   12.2846 O.2       2 ALA2        0.0000 
     35 O          -6.1126    5.9322   11.9134 O.2       2 ALA2        0.0000 
     36 CA         -7.3953    6.6155   11.5422 C.3       5 GLY6        0.0000 
     37 OG         -0.8418    2.6976   11.9912 O.2       1 SER1        0.0000 
     38 OG         -2.1244    3.3810   11.6200 O.2       1 SER1        0.0000 
     39 DU         -3.4071    4.0643   11.2489 H         6 CUB7        0.0000 
     40 O          -4.6898    4.7477   10.8777 O.2       2 ALA2        0.0000 
     41 CZ         -0.7016    2.1965   10.5844 C.ar      4 PHE5        0.0000 
     42 O          -1.9843    2.8799   10.2132 O.2       2 ALA2        0.0000 
     43 O          -3.2670    3.5632    9.8420 O.2       2 ALA2        0.0000 
     44 CA         -3.3097    3.6467   16.2053 C.3       5 GLY6        0.0000 
     45 CA         -4.5924    4.3300   15.8341 C.3       5 GLY6        0.0000 
     46 CA         -5.8751    5.0134   15.4630 C.3       5 GLY6        0.0000 
     47 CA         -7.1578    5.6967   15.0918 C.3       5 GLY6        0.0000 
     48 OG         -3.1696    3.1456   14.7984 O.2       1 SER1        0.0000 
     49 DU         -4.4523    3.8289   14.4273 H         6 CUB7        0.0000 
     50 DU         -5.7350    4.5123   14.0561 H         6 CUB7        0.0000 
     51 CA         -7.0176    5.1956   13.6850 C.3       5 GLY6        0.0000 
     52 OG         -3.0295    2.6444   13.3916 O.2       1 SER1        0.0000 
     53 DU         -4.3122    3.3278   13.0204 H         6 CUB7        0.0000 
     54 O          -5.5948    4.0111   12.6493 O.2       2 ALA2        0.0000 
     55 OG         -2.8894    2.1433   11.9847 O.2       1 SER1        0.0000 
     56 O          -4.1720    2.8266   11.6136 O.2       2 ALA2        0.0000 
     57 CZ         -1.4666    0.9588   10.9490 C.ar      4 PHE5        0.0000 
     58 O          -2.7492    1.6422   10.5779 O.2       2 ALA2        0.0000 
     59 O          -4.0319    2.3255   10.2067 O.2       2 ALA2        0.0000 
     60 CA         -6.7801    4.2768   17.2345 C.3       5 GLY6        0.0000 
     61 CA         -4.0746    2.4090   16.5700 C.3       5 GLY6        0.0000 
     62 CA         -5.3573    3.0923   16.1988 C.3       5 GLY6        0.0000 
     63 CA         -6.6400    3.7757   15.8277 C.3       5 GLY6        0.0000 
     64 OG         -3.9345    1.9079   15.1631 O.2       1 SER1        0.0000 
     65 N          -5.2172    2.5912   14.7920 N.2       2 ALA2        0.0000 
     66 CA         -6.4999    3.2746   14.4208 C.3       5 GLY6        0.0000 
     67 OG         -3.7944    1.4067   13.7563 O.2       1 SER1        0.0000 
     68 N          -5.0771    2.0901   13.3851 N.2       2 ALA2        0.0000 
     69 O          -6.3598    2.7734   13.0140 O.2       2 ALA2        0.0000 
     70 CA         -3.6543    0.9056   12.3494 C.3       5 GLY6        0.0000 
     71 N          -4.9370    1.5889   11.9783 N.2       2 ALA2        0.0000 
     72 CA         -2.2315   -0.2789   11.3137 C.3       5 GLY6        0.0000 
     73 O          -3.5142    0.4045   10.9426 O.2       2 ALA2        0.0000 
     74 O          -4.7968    1.0878   10.5714 O.2       2 ALA2        0.0000 
     75 CA         -4.9797    1.6724   18.3415 C.3       5 GLY6        0.0000 
     76 CA         -6.2624    2.3558   17.9704 C.3       5 GLY6        0.0000 
     77 CA         -7.5450    3.0391   17.5992 C.3       5 GLY6        0.0000 
     78 O          -4.8396    1.1713   16.9347 O.2       2 ALA2        0.0000 
     79 OD1        -6.1222    1.8546   16.5635 O.3       3 ASP3        0.0000 
     80 CA         -7.4049    2.5380   16.1924 C.3       5 GLY6        0.0000 
     81 OD1        -4.6994    0.6701   15.5278 O.3       3 ASP3        0.0000 
     82 N          -5.9821    1.3535   15.1567 N.2       2 ALA2        0.0000 
     83 N          -4.5593    0.1690   14.1210 N.2       2 ALA2        0.0000 
     84 N          -4.4192   -0.3321   12.7141 N.2       2 ALA2        0.0000 
     85 CA         -2.9964   -1.5166   11.6784 C.3       5 GLY6        0.0000 
     86 CA         -4.2791   -0.8332   11.3073 C.3       5 GLY6        0.0000 
     87 CA         -5.5618   -0.1499   10.9361 C.3       5 GLY6        0.0000 
     88 CZ         -7.0273    1.1181   18.3351 C.ar      4 PHE5        0.0000 
     89 OD1        -6.8871    0.6169   16.9282 O.3       3 ASP3        0.0000 
@<TRIPOS>BOND
@<TRIPOS>SUBSTRUCTURE
     1 SER1       27 GROUP   
     2 ALA2       10 GROUP   
     3 ASP3       79 GROUP   
     4 PHE5        1 GROUP   
     5 GLY6        3 GROUP   
     6 CUB7        6 GROUP   
@<TRIPOS>SET

