#    Name: 1ze8_PIU_1_INTS_M
#    Modification time : Tue Mar 25 11:41:06 2014

@<TRIPOS>MOLECULE
1ze8_PIU_1_INTS_M
   44     0    12     0     0
SMALL
NO_CHARGES


@<TRIPOS>ATOM
      1 N          -4.0430    0.7805   18.4850 N.am      2 SEC2        0.0000 
      2 N          -5.3180    1.1370   18.0510 N.am     10 SEL2        0.0000 
      3 N          -2.7680    0.4240   18.9190 N.am      6 SEP2        0.0000 
      4 O          -4.5460   -1.0820   16.7930 O.2       1 ALC1        0.0000 
      5 O          -5.3200   -0.2510   16.0540 O.2       9 ALL1        0.0000 
      6 O          -3.7720   -1.9130   17.5320 O.2       5 ALP1        0.0000 
      7 Zn         -5.9975   -0.8795   15.6370 Zn        3 ZIC7        0.0000 
      8 Zn         -5.3200   -0.2510   16.0540 Zn       11 ZIL7        0.0000 
      9 Zn         -6.6750   -1.5080   15.2200 Zn        7 ZIP7        0.0000 
     10 CA         -7.7410    5.3365   15.3945 C.3       4 GLC5        0.0000 
     11 CA         -5.8730    4.8280   15.0170 C.3      12 GLL5        0.0000 
     12 CA         -9.6090    5.8450   15.7720 C.3       8 GLP5        0.0000 
     13 CA         -2.8985    4.9125   16.1870 C.3       4 GLC5        0.0000 
     14 CA         -3.6230    3.8390   14.6280 C.3      12 GLL5        0.0000 
     15 CA         -2.1740    5.9860   17.7460 C.3       8 GLP5        0.0000 
     16 CA         -3.2720    3.1645   16.9980 C.3       4 GLC5        0.0000 
     17 CA         -4.0530    2.6260   15.2880 C.3      12 GLL5        0.0000 
     18 CA         -2.4910    3.7030   18.7080 C.3       8 GLP5        0.0000 
     19 CA         -2.7520    0.9335   14.8470 C.3       4 GLC5        0.0000 
     20 CA         -1.4510   -0.7590   14.4060 C.3       8 GLP5        0.0000 
     21 CA         -8.0795    3.6040   15.2110 C.3       4 GLC5        0.0000 
     22 CA         -6.2930    3.6320   15.6680 C.3      12 GLL5        0.0000 
     23 CA         -9.8660    3.5760   14.7540 C.3       8 GLP5        0.0000 
     24 CA         -4.9275    3.8605   17.0860 C.3       4 GLC5        0.0000 
     25 CA         -5.3920    2.5250   15.8040 C.3      12 GLL5        0.0000 
     26 CA         -4.4630    5.1960   18.3680 C.3       8 GLP5        0.0000 
     27 CA         -3.1480    6.1020   15.7810 C.3       4 GLC5        0.0000 
     28 CA         -4.1220    6.2180   13.8160 C.3      12 GLL5        0.0000 
     29 CA         -6.6770   11.3770   12.6550 C.3       4 GLC5        0.0000 
     30 CA         -5.9160    9.8620   11.3380 C.3      12 GLL5        0.0000 
     31 CA         -7.4380   12.8920   13.9720 C.3       8 GLP5        0.0000 
     32 CA         -5.0825   11.6900   12.4125 C.3       4 GLC5        0.0000 
     33 CA         -4.7510   11.9400   10.5330 C.3      12 GLL5        0.0000 
     34 CA         -5.4140   11.4400   14.2920 C.3       8 GLP5        0.0000 
     35 CA         -8.4875    6.6400   11.4785 C.3       4 GLC5        0.0000 
     36 CA         -7.2290    7.9440   12.1830 C.3      12 GLL5        0.0000 
     37 CA         -9.7460    5.3360   10.7740 C.3       8 GLP5        0.0000 
     38 CA         -7.0900    8.6840   13.8035 C.3       4 GLC5        0.0000 
     39 CA         -6.9510    9.4240   15.4240 C.3       8 GLP5        0.0000 
     40 CA         -4.8890    4.8895   16.6439 C.3       4 GLC5        0.0000 
     41 CA         -4.9705    7.7840   14.2088 C.3       4 GLC5        0.0000 
     42 CA         -5.5730    9.2640   15.3190 C.3       8 GLP5        0.0000 
     43 CA         -8.1204    9.6346   11.6406 C.3       4 GLC5        0.0000 
     44 CA         -9.6760   10.7010   11.4040 C.3       8 GLP5        0.0000 
@<TRIPOS>BOND
@<TRIPOS>SUBSTRUCTURE
     1 ALC1        4 GROUP        1 X    ALC  0     ROOT ALC X 1
     2 SEC2        1 GROUP        1 X    SEC  0     **** SEC X 2
     3 ZIC7        7 GROUP        1 X    ZIC  0     **** ZIC X 5
     4 GLC5       10 GROUP        1 X    GLC  0     **** GLC X 6
     5 ALP1        6 GROUP        1 Y    ALP  0     ROOT ALP Y 8
     6 SEP2        3 GROUP        1 Y    SEP  0     **** SEP Y 9
     7 ZIP7        9 GROUP        1 Y    ZIP  0     **** ZIP Y 12
     8 GLP5       12 GROUP        1 Y    GLP  0     **** GLP Y 13
     9 ALL1        5 GROUP        1 Z    ALL  0     ROOT ALL Z 15
    10 SEL2        2 GROUP        1 Z    SEL  0     **** SEL Z 16
    11 ZIL7        8 GROUP        1 Z    ZIL  0     **** ZIL Z 19
    12 GLL5       11 GROUP        1 Z    GLL  0     **** GLL Z 20
@<TRIPOS>SET

