#    Name: 1ze8_PIU_1_ligand
#    Modification time : Tue Mar 25 11:41:07 2014

@<TRIPOS>MOLECULE
1ze8_PIU_1_ligand
   41    42     1     0     0
SMALL
NO_CHARGES


@<TRIPOS>ATOM
      1 S1         -5.9260    1.0470   16.7310 S.o2      1 PIU1        0.0000 
      2 O1         -5.3180    1.1370   18.0510 O.2       1 PIU1        0.0000 
      3 O2         -7.3600    0.9510   16.6220 O.2       1 PIU1        0.0000 
      4 N1         -5.3200   -0.2510   16.0540 N.pl3     1 PIU1        0.0000 
      5 C1         -5.8730    4.8280   15.0170 C.ar      1 PIU1        0.0000 
      6 C3         -3.6230    3.8390   14.6280 C.ar      1 PIU1        0.0000 
      7 C4         -4.0530    2.6260   15.2880 C.ar      1 PIU1        0.0000 
      8 C6         -6.2930    3.6320   15.6680 C.ar      1 PIU1        0.0000 
      9 C2         -4.5470    4.9360   14.4970 C.ar      1 PIU1        0.0000 
     10 C5         -5.3920    2.5250   15.8040 C.ar      1 PIU1        0.0000 
     11 C15        -4.1220    6.2180   13.8160 C.3       1 PIU1        0.0000 
     12 C16        -4.6140    6.3900   12.3810 C.3       1 PIU1        0.0000 
     13 N2         -4.6250    7.8330   11.9070 N.pl3     1 PIU1        0.0000 
     14 C7         -3.4390    9.8460   11.0770 C.ar      1 PIU1        0.0000 
     15 C9         -5.9160    9.8620   11.3380 C.ar      1 PIU1        0.0000 
     16 C10        -5.8850    8.5230   11.8050 C.ar      1 PIU1        0.0000 
     17 C11        -3.3930    8.5010   11.5400 C.ar      1 PIU1        0.0000 
     18 C8         -4.6990   10.5110   10.9830 C.ar      1 PIU1        0.0000 
     19 C12        -4.7510   11.9400   10.5330 C.3       1 PIU1        0.0000 
     20 C13        -1.9930    7.9110   11.5970 C.3       1 PIU1        0.0000 
     21 C14        -7.2290    7.9440   12.1830 C.3       1 PIU1        0.0000 
     22 H          -4.6551   -0.7619   16.5989 H         1 PIU1        0.0000 
     23 H          -6.5189    5.6088   14.9215 H         1 PIU1        0.0000 
     24 H          -2.6879    3.9130   14.2652 H         1 PIU1        0.0000 
     25 H          -3.4106    1.8518   15.3849 H         1 PIU1        0.0000 
     26 H          -7.2380    3.5593   16.0402 H         1 PIU1        0.0000 
     27 H          -3.0134    6.2801   13.8186 H         1 PIU1        0.0000 
     28 H          -4.4760    7.0824   14.4163 H         1 PIU1        0.0000 
     29 H          -5.6327    5.9760   12.3022 H         1 PIU1        0.0000 
     30 H          -3.9721    5.7945   11.7110 H         1 PIU1        0.0000 
     31 H          -2.5883   10.3281   10.8165 H         1 PIU1        0.0000 
     32 H          -6.7985   10.3567   11.2564 H         1 PIU1        0.0000 
     33 H          -4.2323   12.5402   11.1419 H         1 PIU1        0.0000 
     34 H          -4.3710   12.0544    9.6151 H         1 PIU1        0.0000 
     35 H          -5.6883   12.2875   10.5076 H         1 PIU1        0.0000 
     36 H          -1.3012    8.5661   11.2932 H         1 PIU1        0.0000 
     37 H          -1.7450    7.6320   12.5247 H         1 PIU1        0.0000 
     38 H          -1.9067    7.1025   11.0149 H         1 PIU1        0.0000 
     39 H          -7.4459    7.1282   11.6470 H         1 PIU1        0.0000 
     40 H          -7.2614    7.6787   13.1466 H         1 PIU1        0.0000 
     41 H          -7.9704    8.5983   12.0340 H         1 PIU1        0.0000 
@<TRIPOS>BOND
     1    2    1 2    
     2    3    1 2    
     3    4    1 1    
     4   10    1 1    
     5   22    4 1    
     6    8    5 ar   
     7    9    5 ar   
     8   23    5 1    
     9    7    6 ar   
    10    9    6 ar   
    11   24    6 1    
    12   10    7 ar   
    13   25    7 1    
    14   10    8 ar   
    15   26    8 1    
    16   11    9 1    
    17   12   11 1    
    18   27   11 1    
    19   28   11 1    
    20   13   12 1    
    21   29   12 1    
    22   30   12 1    
    23   16   13 ar   
    24   17   13 ar   
    25   17   14 ar   
    26   18   14 ar   
    27   31   14 1    
    28   16   15 ar   
    29   18   15 ar   
    30   32   15 1    
    31   21   16 1    
    32   20   17 1    
    33   19   18 1    
    34   33   19 1    
    35   34   19 1    
    36   35   19 1    
    37   36   20 1    
    38   37   20 1    
    39   38   20 1    
    40   39   21 1    
    41   40   21 1    
    42   41   21 1    
@<TRIPOS>SUBSTRUCTURE
     1 PIU1        1 GROUP   
@<TRIPOS>SET

