#    Name: 3uqg_B5A_2_INTS_M
#    Modification time : Mon Mar 24 23:19:49 2014

@<TRIPOS>MOLECULE
3uqg_B5A_2_INTS_M
   31     0     9     0     0
SMALL
NO_CHARGES


@<TRIPOS>ATOM
      1 CA         -5.7885  -71.0100  -25.2025 C.3       3 GLC5        0.0000 
      2 CA         -6.4360  -72.2400  -26.8410 C.3       9 GLL5        0.0000 
      3 CA         -5.1410  -69.7800  -23.5640 C.3       6 GLP5        0.0000 
      4 CA         -3.1585  -73.5480  -31.0055 C.3       3 GLC5        0.0000 
      5 CA         -4.6090  -72.0500  -30.2760 C.3       9 GLL5        0.0000 
      6 CA         -1.7080  -75.0460  -31.7350 C.3       6 GLP5        0.0000 
      7 CA         -4.8900  -72.2235  -32.1330 C.3       3 GLC5        0.0000 
      8 CA         -5.1710  -72.3970  -33.9900 C.3       6 GLP5        0.0000 
      9 CA         -3.8620  -68.8065  -29.2525 C.3       3 GLC5        0.0000 
     10 CA         -3.5100  -69.9680  -31.0420 C.3       9 GLL5        0.0000 
     11 CA         -4.2140  -67.6450  -27.4630 C.3       6 GLP5        0.0000 
     12 CA         -0.9295  -71.0945  -31.8465 C.3       3 GLC5        0.0000 
     13 CA         -1.3280  -69.1910  -31.0720 C.3       9 GLL5        0.0000 
     14 CA         -0.5310  -72.9980  -32.6210 C.3       6 GLP5        0.0000 
     15 CA         -0.4030  -67.3585  -30.6965 C.3       3 GLC5        0.0000 
     16 CA          0.5220  -65.5260  -30.3210 C.3       6 GLP5        0.0000 
     17 N          -0.7305  -66.9805  -31.6710 N.am      2 SEC2        0.0000 
     18 N          -1.7060  -68.0440  -31.6400 N.am      8 SEL2        0.0000 
     19 N           0.2450  -65.9170  -31.7020 N.am      5 SEP2        0.0000 
     20 CA         -1.8930  -66.5490  -30.7510 C.3       3 GLC5        0.0000 
     21 CA         -2.9990  -67.8030  -31.9320 C.3       9 GLL5        0.0000 
     22 CA         -0.7870  -65.2950  -29.5700 C.3       6 GLP5        0.0000 
     23 O          -2.7285  -65.7615  -33.4205 O.2       1 ALC1        0.0000 
     24 O          -3.3560  -66.6480  -32.4870 O.2       7 ALL1        0.0000 
     25 O          -2.1010  -64.8750  -34.3540 O.2       4 ALP1        0.0000 
     26 CA         -4.4490  -70.8878  -32.6635 C.3       3 GLC5        0.0000 
     27 CA         -3.9440  -68.7890  -31.6320 C.3       9 GLL5        0.0000 
     28 CA         -3.1238  -68.4290  -33.5615 C.3       3 GLC5        0.0000 
     29 CA         -2.7760  -68.5620  -35.3410 C.3       6 GLP5        0.0000 
     30 CA         -4.2257  -67.2435  -30.5670 C.3       3 GLC5        0.0000 
     31 CA         -4.9800  -66.1910  -29.3520 C.3       6 GLP5        0.0000 
@<TRIPOS>BOND
@<TRIPOS>SUBSTRUCTURE
     1 ALC1       23 GROUP        1 X    ALC  0     ROOT ALC X 1
     2 SEC2       17 GROUP        1 X    SEC  0     **** SEC X 2
     3 GLC5        1 GROUP        1 X    GLC  0     **** GLC X 6
     4 ALP1       25 GROUP        1 Y    ALP  0     ROOT ALP Y 8
     5 SEP2       19 GROUP        1 Y    SEP  0     **** SEP Y 9
     6 GLP5        3 GROUP        1 Y    GLP  0     **** GLP Y 13
     7 ALL1       24 GROUP        1 Z    ALL  0     ROOT ALL Z 15
     8 SEL2       18 GROUP        1 Z    SEL  0     **** SEL Z 16
     9 GLL5        2 GROUP        1 Z    GLL  0     **** GLL Z 20
@<TRIPOS>SET

