#    Name: 3uqg_B5A_2_ligand
#    Modification time : Mon Mar 24 23:19:49 2014

@<TRIPOS>MOLECULE
3uqg_B5A_2_ligand
   32    34     1     0     0
SMALL
NO_CHARGES


@<TRIPOS>ATOM
      1 CAF        -4.0200  -73.2180  -28.1130 C.3       1 B5A1        0.0000 
      2 CAD        -4.3390  -73.3870  -26.6200 C.3       1 B5A1        0.0000 
      3 NAL        -5.7940  -73.5040  -26.4350 N.4       1 B5A1        0.0000 
      4 CAE        -6.4360  -72.2400  -26.8410 C.3       1 B5A1        0.0000 
      5 CAG        -6.2520  -72.0170  -28.3500 C.3       1 B5A1        0.0000 
      6 CAP        -4.7570  -72.0150  -28.7420 C.3       1 B5A1        0.0000 
      7 CAH        -4.6090  -72.0500  -30.2760 C.3       1 B5A1        0.0000 
      8 NAQ        -4.6030  -70.6990  -30.8710 N.pl3     1 B5A1        0.0000 
      9 NAK        -5.6090  -70.1060  -31.2810 N.2       1 B5A1        0.0000 
     10 CAC        -5.2650  -68.9090  -31.7660 C.2       1 B5A1        0.0000 
     11 C5         -3.9440  -68.7890  -31.6320 C.ar      1 B5A1        0.0000 
     12 C4         -3.5100  -69.9680  -31.0420 C.ar      1 B5A1        0.0000 
     13 N3         -2.2030  -70.1440  -30.7700 N.ar      1 B5A1        0.0000 
     14 C2         -1.3280  -69.1910  -31.0720 C.ar      1 B5A1        0.0000 
     15 N1         -1.7060  -68.0440  -31.6400 N.ar      1 B5A1        0.0000 
     16 C6         -2.9990  -67.8030  -31.9320 C.ar      1 B5A1        0.0000 
     17 NAA        -3.3560  -66.6480  -32.4870 N.pl3     1 B5A1        0.0000 
     18 H          -4.3090  -74.1271  -28.6469 H         1 B5A1        0.0000 
     19 H          -2.9432  -73.0755  -28.2360 H         1 B5A1        0.0000 
     20 H          -3.9484  -72.5208  -26.0871 H         1 B5A1        0.0000 
     21 H          -3.8290  -74.2802  -26.2607 H         1 B5A1        0.0000 
     22 H          -5.9926  -71.3945  -26.3137 H         1 B5A1        0.0000 
     23 H          -7.5051  -72.2631  -26.6265 H         1 B5A1        0.0000 
     24 H          -6.6910  -71.0607  -28.6282 H         1 B5A1        0.0000 
     25 H          -6.7587  -72.8112  -28.8951 H         1 B5A1        0.0000 
     26 H          -4.3065  -71.1067  -28.3761 H         1 B5A1        0.0000 
     27 H          -5.4383  -72.6471  -30.6829 H         1 B5A1        0.0000 
     28 H          -3.6756  -72.5807  -30.5143 H         1 B5A1        0.0000 
     29 H          -5.8642  -68.2535  -32.1434 H         1 B5A1        0.0000 
     30 H          -0.3013  -69.3432  -30.8571 H         1 B5A1        0.0000 
     31 H          -2.6962  -66.2408  -33.1185 H         1 B5A1        0.0000 
     32 H          -4.2520  -66.2911  -32.2226 H         1 B5A1        0.0000 
@<TRIPOS>BOND
     1    2    1 1    
     2    6    1 1    
     3   18    1 1    
     4   19    1 1    
     5    3    2 1    
     6   20    2 1    
     7   21    2 1    
     8    4    3 1    
     9    5    4 1    
    10   22    4 1    
    11   23    4 1    
    12    6    5 1    
    13   24    5 1    
    14   25    5 1    
    15    7    6 1    
    16   26    6 1    
    17    8    7 1    
    18   27    7 1    
    19   28    7 1    
    20    9    8 1    
    21   12    8 1    
    22   10    9 2    
    23   11   10 1    
    24   29   10 1    
    25   12   11 ar   
    26   16   11 ar   
    27   13   12 ar   
    28   14   13 ar   
    29   15   14 ar   
    30   30   14 1    
    31   16   15 ar   
    32   17   16 1    
    33   31   17 1    
    34   32   17 1    
@<TRIPOS>SUBSTRUCTURE
     1 B5A1        1 GROUP   
@<TRIPOS>SET

