#    Name: 1sp5_TYR_ASP_GLN_ILE_LEU_1_INTS_M
#    Modification time : Tue Mar 25 02:36:46 2014

@<TRIPOS>MOLECULE
1sp5_TYR_ASP_GLN_ILE_LEU_1_INTS_M
   71     0    12     0     0
SMALL
NO_CHARGES


@<TRIPOS>ATOM
      1 CA         18.3440   12.5195    9.8695 C.3       4 GLC5        0.0000 
      2 CA         20.2910   12.7000    9.3010 C.3      12 GLL5        0.0000 
      3 CA         16.3970   12.3390   10.4380 C.3       8 GLP5        0.0000 
      4 N          17.0305   14.7700    6.4725 N.am      2 SEC2        0.0000 
      5 N          18.3280   15.1610    6.0380 N.am     10 SEL2        0.0000 
      6 N          15.7330   14.3790    6.9070 N.am      6 SEP2        0.0000 
      7 CA         20.5175   12.6630    2.6685 C.3       4 GLC5        0.0000 
      8 CA         20.2660   14.0030    4.0910 C.3      12 GLL5        0.0000 
      9 CA         20.7690   11.3230    1.2460 C.3       8 GLP5        0.0000 
     10 CA         18.4360   13.7245    3.3330 C.3       4 GLC5        0.0000 
     11 CA         16.6060   13.4460    2.5750 C.3       8 GLP5        0.0000 
     12 NZ         21.4240   12.6505    1.6900 N.4       3 LYC4        0.0000 
     13 NZ         20.6760   14.2160    1.7330 N.4      11 LYL4        0.0000 
     14 NZ         22.1720   11.0850    1.6470 N.4       7 LYP4        0.0000 
     15 O          20.9580   17.5120    5.7015 O.2       1 ALC1        0.0000 
     16 O          19.7510   16.9000    6.1370 O.2       9 ALL1        0.0000 
     17 O          22.1650   18.1240    5.2660 O.2       5 ALP1        0.0000 
     18 N          19.5780   20.0870    3.8075 N.am      2 SEC2        0.0000 
     19 N          18.8040   19.5400    4.9310 N.am     10 SEL2        0.0000 
     20 N          20.3520   20.6340    2.6840 N.am      6 SEP2        0.0000 
     21 O          16.1220   17.9260    6.4400 O.2       1 ALC1        0.0000 
     22 O          16.8030   18.7020    5.5040 O.2       9 ALL1        0.0000 
     23 O          15.4410   17.1500    7.3760 O.2       5 ALP1        0.0000 
     24 CA         17.3040   20.8675    3.5835 C.3       4 GLC5        0.0000 
     25 CA         16.1100   19.5160    4.5320 C.3      12 GLL5        0.0000 
     26 CA         18.4980   22.2190    2.6350 C.3       8 GLP5        0.0000 
     27 CA         15.9475   15.6725    3.3435 C.3       4 GLC5        0.0000 
     28 CA         16.2090   17.5260    2.9540 C.3      12 GLL5        0.0000 
     29 CA         15.6860   13.8190    3.7330 C.3       8 GLP5        0.0000 
     30 CA         16.1045   20.7745    1.9485 C.3       4 GLC5        0.0000 
     31 CA         14.7710   19.4910    2.3960 C.3      12 GLL5        0.0000 
     32 CA         17.4380   22.0580    1.5010 C.3       8 GLP5        0.0000 
     33 CA         14.7300   18.2735    0.8285 C.3       4 GLC5        0.0000 
     34 CA         14.6890   17.0560   -0.7390 C.3       8 GLP5        0.0000 
     35 CA         13.4885   20.3300    1.3240 C.3       4 GLC5        0.0000 
     36 CA         12.2060   21.1690    0.2520 C.3       8 GLP5        0.0000 
     37 CA         17.4460   20.0340    1.8880 C.3       4 GLC5        0.0000 
     38 CA         17.4540   18.0100    2.2750 C.3      12 GLL5        0.0000 
     39 CA         18.7305   17.4850    0.8000 C.3       4 GLC5        0.0000 
     40 CA         20.0070   16.9600   -0.6750 C.3       8 GLP5        0.0000 
     41 O          16.9405   22.3460    5.4015 O.2       1 ALC1        0.0000 
     42 O          15.6350   21.6510    5.5580 O.2       9 ALL1        0.0000 
     43 O          18.2460   23.0410    5.2450 O.2       5 ALP1        0.0000 
     44 CA         17.4925   24.0725    8.0185 C.3       4 GLC5        0.0000 
     45 CA         15.5710   23.1140    7.5480 C.3      12 GLL5        0.0000 
     46 CA         19.4140   25.0310    8.4890 C.3       8 GLP5        0.0000 
     47 CA         18.1030   23.6715    9.0090 C.3       4 GLC5        0.0000 
     48 CA         16.7920   22.3120    9.5290 C.3      12 GLL5        0.0000 
     49 CA         15.9410   21.1235   11.1560 C.3       4 GLC5        0.0000 
     50 CA         15.0900   19.9350   12.7830 C.3       8 GLP5        0.0000 
     51 CA         17.4760   22.8450   10.8885 C.3       4 GLC5        0.0000 
     52 CA         18.1600   23.3780   12.2480 C.3       8 GLP5        0.0000 
     53 CA         13.6205   19.9435    8.6165 C.3       4 GLC5        0.0000 
     54 CA         14.3220   21.8590    9.2560 C.3      12 GLL5        0.0000 
     55 CA         12.9190   18.0280    7.9770 C.3       8 GLP5        0.0000 
     56 CA         12.6120   21.0335    9.8030 C.3       4 GLC5        0.0000 
     57 CA         10.9020   20.2080   10.3500 C.3       8 GLP5        0.0000 
     58 CA         14.7060   20.8970   11.0195 C.3       4 GLC5        0.0000 
     59 CA         14.2540   23.6195   10.0185 C.3       4 GLC5        0.0000 
     60 CA         14.1860   25.3800   10.7810 C.3       8 GLP5        0.0000 
     61 O          14.8155   24.1810    2.9610 O.2       1 ALC1        0.0000 
     62 O          15.2060   24.0060    4.2890 O.2       9 ALL1        0.0000 
     63 O          14.4250   24.3560    1.6330 O.2       5 ALP1        0.0000 
     64 CA         16.8935   15.1822    8.7462 C.3       4 GLC5        0.0000 
     65 CA         18.4870   16.0520    9.7050 C.3      12 GLL5        0.0000 
     66 CA         15.0370   14.8940    8.0670 C.3       8 GLP5        0.0000 
     67 CA         13.2447   18.6702    3.1082 C.3       4 GLC5        0.0000 
     68 CA         15.3140   18.6340    3.5270 C.3      12 GLL5        0.0000 
     69 CA         11.4470   18.2780    3.2550 C.3       8 GLP5        0.0000 
     70 CA         15.7602   17.4120    0.9378 C.3       4 GLC5        0.0000 
     71 CA         15.1977   23.9080    9.7864 C.3       4 GLC5        0.0000 
@<TRIPOS>BOND
@<TRIPOS>SUBSTRUCTURE
     1 ALC1       15 GROUP        1 X    ALC  0     ROOT ALC X 1
     2 SEC2        4 GROUP        1 X    SEC  0     **** SEC X 2
     3 LYC4       12 GROUP        1 X    LYC  0     **** LYC X 4
     4 GLC5        1 GROUP        1 X    GLC  0     **** GLC X 6
     5 ALP1       17 GROUP        1 Y    ALP  0     ROOT ALP Y 8
     6 SEP2        6 GROUP        1 Y    SEP  0     **** SEP Y 9
     7 LYP4       14 GROUP        1 Y    LYP  0     **** LYP Y 11
     8 GLP5        3 GROUP        1 Y    GLP  0     **** GLP Y 13
     9 ALL1       16 GROUP        1 Z    ALL  0     ROOT ALL Z 15
    10 SEL2        5 GROUP        1 Z    SEL  0     **** SEL Z 16
    11 LYL4       13 GROUP        1 Z    LYL  0     **** LYL Z 18
    12 GLL5        2 GROUP        1 Z    GLL  0     **** GLL Z 20
@<TRIPOS>SET

