#    Name: 1sp5_TYR_ASP_GLN_ILE_LEU_1_ligand
#    Modification time : Tue Mar 25 02:36:46 2014

@<TRIPOS>MOLECULE
1sp5_TYR_ASP_GLN_ILE_LEU_1_ligand
   92    92     5     0     0
SMALL
NO_CHARGES


@<TRIPOS>ATOM
      1 N          22.6350   13.4840    9.7070 N.4       1 TYR59       0.0000
      2 CA         21.6530   13.0200    8.6580 C.3       1 TYR59       0.0000
      3 C          21.4930   14.1280    7.6110 C.2       1 TYR59       0.0000
      4 O          21.9580   15.2540    7.8420 O.2       1 TYR59       0.0000
      5 CB         20.2910   12.7000    9.3010 C.3       1 TYR59       0.0000
      6 CG         19.6300   13.9120    9.9370 C.ar      1 TYR59       0.0000
      7 CD1        19.0130   14.8890    9.1460 C.ar      1 TYR59       0.0000
      8 CD2        19.6950   14.1280   11.3190 C.ar      1 TYR59       0.0000
      9 CE1        18.4870   16.0520    9.7050 C.ar      1 TYR59       0.0000
     10 CE2        19.1660   15.3060   11.8920 C.ar      1 TYR59       0.0000
     11 CZ         18.5660   16.2610   11.0690 C.ar      1 TYR59       0.0000
     12 OH         18.0520   17.4290   11.5930 O.3       1 TYR59       0.0000
     13 HA         22.0282   12.1417    8.1770 H         1 TYR59       0.0000
     14 HB2        20.4373   11.9226   10.0632 H         1 TYR59       0.0000
     15 HB3        19.6278   12.2860    8.5293 H         1 TYR59       0.0000
     16 HD1        18.9476   14.7410    8.1222 H         1 TYR59       0.0000
     17 HD2        20.1318   13.4242   11.9286 H         1 TYR59       0.0000
     18 HE1        18.0403   16.7528    9.0975 H         1 TYR59       0.0000
     19 HE2        19.2256   15.4508   12.8999 H         1 TYR59       0.0000
     20 HNCA       22.2213   13.5107   10.6170 H         1 TYR59       0.0000
     21 H          23.4302   12.8804    9.7641 H         1 TYR59       0.0000
     22 H          22.9780   14.4032    9.5138 H         1 TYR59       0.0000
     23 HH         18.5611   18.1614   11.1409 H         1 TYR59       0.0000
     24 N          20.8660   13.8020    6.4720 N.am      2 ASP60       0.0000
     25 CA         20.6360   14.7670    5.3770 C.3       2 ASP60       0.0000
     26 C          19.4620   15.6330    5.8800 C.2       2 ASP60       0.0000
     27 O          18.3280   15.1610    6.0380 O.2       2 ASP60       0.0000
     28 CB         20.2660   14.0030    4.0910 C.3       2 ASP60       0.0000
     29 CG         20.4250   14.8390    2.7920 C.2       2 ASP60       0.0000
     30 OD1        20.2600   16.0850    2.8000 O.co2     2 ASP60       0.0000
     31 OD2        20.6760   14.2160    1.7330 O.co2     2 ASP60       0.0000
     32 HNCA       20.5028   12.8382    6.2961 H         2 ASP60       0.0000
     33 HA         21.4766   15.3718    5.2271 H         2 ASP60       0.0000
     34 HB2        19.2236   13.6645    4.1631 H         2 ASP60       0.0000
     35 HB3        20.8994   13.1092    4.0109 H         2 ASP60       0.0000
     36 N          19.7510   16.9000    6.1370 N.am      3 GLN61       0.0000
     37 CA         18.7700   17.8350    6.6780 C.3       3 GLN61       0.0000
     38 C          18.1210   18.7690    5.6220 C.2       3 GLN61       0.0000
     39 O          18.8040   19.5400    4.9310 O.2       3 GLN61       0.0000
     40 CB         19.4800   18.6250    7.7850 C.3       3 GLN61       0.0000
     41 CG         18.7610   19.8120    8.3510 C.3       3 GLN61       0.0000
     42 CD         19.4980   20.3330    9.5750 C.2       3 GLN61       0.0000
     43 OE1        19.2810   19.8490   10.6960 O.2       3 GLN61       0.0000
     44 NE2        20.4000   21.3040    9.3650 N.am      3 GLN61       0.0000
     45 HNCA       20.7036   17.3004    5.9648 H         3 GLN61       0.0000
     46 HA         17.9647   17.2707    7.1688 H         3 GLN61       0.0000
     47 HB2        20.4760   18.9506    7.3900 H         3 GLN61       0.0000
     48 HB3        19.7244   17.9120    8.6133 H         3 GLN61       0.0000
     49 HG2        17.7486   19.5304    8.6388 H         3 GLN61       0.0000
     50 HG3        18.7070   20.6040    7.6048 H         3 GLN61       0.0000
     51 HE21       20.8603   21.6604   10.1781 H         3 GLN61       0.0000
     52 HE22       20.5313   21.5845    8.4142 H         3 GLN61       0.0000
     53 N          16.8030   18.7020    5.5040 N.am      4 ILE62       0.0000
     54 CA         16.1100   19.5160    4.5320 C.3       4 ILE62       0.0000
     55 C          15.1530   20.4390    5.2740 C.2       4 ILE62       0.0000
     56 O          13.9980   20.0670    5.5800 O.2       4 ILE62       0.0000
     57 CB         15.3140   18.6340    3.5270 C.3       4 ILE62       0.0000
     58 CG1        16.2090   17.5260    2.9540 C.3       4 ILE62       0.0000
     59 CG2        14.7710   19.4910    2.3960 C.3       4 ILE62       0.0000
     60 CD1        17.4540   18.0100    2.2750 C.3       4 ILE62       0.0000
     61 HNCA       16.2176   18.0785    6.0878 H         4 ILE62       0.0000
     62 HA         16.7974   20.1223    3.9704 H         4 ILE62       0.0000
     63 HB         14.4930   18.1803    4.0526 H         4 ILE62       0.0000
     64 HG12       15.6053   16.9279    2.2418 H         4 ILE62       0.0000
     65 HG13       16.4794   16.8381    3.7806 H         4 ILE62       0.0000
     66 HG21       15.5038   19.9455    1.8896 H         4 ILE62       0.0000
     67 HG22       14.2511   18.9488    1.7359 H         4 ILE62       0.0000
     68 HG23       14.1599   20.2071    2.7331 H         4 ILE62       0.0000
     69 HD11       18.0414   18.5249    2.8994 H         4 ILE62       0.0000
     70 HD12       17.9999   17.2527    1.9165 H         4 ILE62       0.0000
     71 HD13       17.2465   18.6123    1.5042 H         4 ILE62       0.0000
     72 N          15.6350   21.6510    5.5580 N.am      5 LEU63       0.0000
     73 CA         14.8480   22.6860    6.2640 C.3       5 LEU63       0.0000
     74 C          14.6100   23.9240    5.3890 C.2       5 LEU63       0.0000
     75 O          13.8300   24.8050    5.8140 O.2       5 LEU63       0.0000
     76 CB         15.5710   23.1140    7.5480 C.3       5 LEU63       0.0000
     77 CG         15.6830   22.0060    8.5610 C.3       5 LEU63       0.0000
     78 CD1        16.7920   22.3120    9.5290 C.3       5 LEU63       0.0000
     79 CD2        14.3220   21.8590    9.2560 C.3       5 LEU63       0.0000
     80 OXT        15.2060   24.0060    4.2890 O.3       5 LEU63       0.0000
     81 HNCA       16.6053   21.9400    5.2949 H         5 LEU63       0.0000
     82 HA         13.8809   22.2871    6.5512 H         5 LEU63       0.0000
     83 HB2        15.0277   23.9639    7.9879 H         5 LEU63       0.0000
     84 HB3        16.5761   23.4730    7.2797 H         5 LEU63       0.0000
     85 HG         15.8975   21.0858    8.0388 H         5 LEU63       0.0000
     86 HD11       17.6735   22.4059    9.0663 H         5 LEU63       0.0000
     87 HD12       16.6282   23.1655   10.0236 H         5 LEU63       0.0000
     88 HD13       16.8961   21.5913   10.2144 H         5 LEU63       0.0000
     89 HD21       14.3319   21.1315    9.9420 H         5 LEU63       0.0000
     90 HD22       14.0515   22.7000    9.7246 H         5 LEU63       0.0000
     91 HD23       13.5948   21.6389    8.6058 H         5 LEU63       0.0000
     92 H          14.4824   24.1412    3.6122 H         5 LEU63       0.0000
@<TRIPOS>BOND
     1    2    1 1
     2   20    1 1
     3   21    1 1
     4   22    1 1
     5    3    2 1
     6    5    2 1
     7   13    2 1
     8    4    3 2
     9    6    5 1
    10   14    5 1
    11   15    5 1
    12    7    6 ar
    13    8    6 ar
    14    9    7 ar
    15   16    7 1
    16   10    8 ar
    17   17    8 1
    18   11    9 ar
    19   18    9 1
    20   11   10 ar
    21   19   10 1
    22   12   11 1
    23   23   12 1
    24   25   24 1
    25   32   24 1
    26   26   25 1
    27   28   25 1
    28   33   25 1
    29   27   26 2
    30   29   28 1
    31   34   28 1
    32   35   28 1
    33   30   29 ar
    34   31   29 ar
    35   37   36 1
    36   45   36 1
    37   38   37 1
    38   40   37 1
    39   46   37 1
    40   39   38 2
    41   41   40 1
    42   47   40 1
    43   48   40 1
    44   42   41 1
    45   49   41 1
    46   50   41 1
    47   43   42 2
    48   44   42 am
    49   51   44 1
    50   52   44 1
    51   54   53 1
    52   61   53 1
    53   55   54 1
    54   57   54 1
    55   62   54 1
    56   56   55 2
    57   58   57 1
    58   59   57 1
    59   63   57 1
    60   60   58 1
    61   64   58 1
    62   65   58 1
    63   66   59 1
    64   67   59 1
    65   68   59 1
    66   69   60 1
    67   70   60 1
    68   71   60 1
    69   73   72 1
    70   81   72 1
    71   74   73 1
    72   76   73 1
    73   82   73 1
    74   75   74 2
    75   80   74 1
    76   77   76 1
    77   83   76 1
    78   84   76 1
    79   78   77 1
    80   79   77 1
    81   85   77 1
    82   86   78 1
    83   87   78 1
    84   88   78 1
    85   89   79 1
    86   90   79 1
    87   91   79 1
    88   92   80 1
    89   24    3 am
    90   36   26 am
    91   53   38 am
    92   72   55 am
@<TRIPOS>SUBSTRUCTURE
     1 TYR59       1 RESIDUE
     2 ASP60      24 RESIDUE
     3 GLN61      36 RESIDUE
     4 ILE62      53 RESIDUE
     5 LEU63      72 RESIDUE
@<TRIPOS>SET

