#    Name: 3a7r_LAQ_1_INTS_M
#    Modification time : Tue Mar 25 11:37:49 2014

@<TRIPOS>MOLECULE
3a7r_LAQ_1_INTS_M
  115     0    12     0     0
SMALL
NO_CHARGES


@<TRIPOS>ATOM
      1 N         -16.8140  -40.5150    0.1925 N.am      2 SEC2        0.0000 
      2 N         -17.2870  -40.2820    1.4650 N.am     10 SEL2        0.0000 
      3 N         -16.3410  -40.7480   -1.0800 N.am      6 SEP2        0.0000 
      4 NZ        -18.6500  -36.9945    2.1865 N.4       3 LYC4        0.0000 
      5 NZ        -19.1630  -38.5940    1.7710 N.4      11 LYL4        0.0000 
      6 NZ        -18.1370  -35.3950    2.6020 N.4       7 LYP4        0.0000 
      7 N         -20.4250  -38.2585    2.5930 N.am      2 SEC2        0.0000 
      8 N         -19.1630  -38.5940    1.7710 N.am     10 SEL2        0.0000 
      9 N         -21.6870  -37.9230    3.4150 N.am      6 SEP2        0.0000 
     10 N         -18.1650  -41.2125    3.8860 N.am      2 SEC2        0.0000 
     11 N         -17.9120  -39.6380    3.7460 N.am     10 SEL2        0.0000 
     12 N         -18.4180  -42.7870    4.0260 N.am      6 SEP2        0.0000 
     13 CA        -17.8140  -41.1900    4.8850 C.3       4 GLC5        0.0000 
     14 CA        -18.6310  -39.5200    6.0490 C.3      12 GLL5        0.0000 
     15 CA        -16.9970  -42.8600    3.7210 C.3       8 GLP5        0.0000 
     16 CA        -19.6080  -36.7125    6.6385 C.3       4 GLC5        0.0000 
     17 CA        -19.1830  -38.6270    7.1710 C.3      12 GLL5        0.0000 
     18 CA        -20.0330  -34.7980    6.1060 C.3       8 GLP5        0.0000 
     19 CA        -21.0535  -37.7390    7.3680 C.3       4 GLC5        0.0000 
     20 CA        -22.9240  -36.8510    7.5650 C.3       8 GLP5        0.0000 
     21 CA        -19.1590  -41.2910    9.7050 C.3       4 GLC5        0.0000 
     22 CA        -19.1220  -39.4100    8.5100 C.3      12 GLL5        0.0000 
     23 CA        -19.1960  -43.1720   10.9000 C.3       8 GLP5        0.0000 
     24 CA        -17.1000  -39.0550    8.6925 C.3       4 GLC5        0.0000 
     25 CA        -15.0780  -38.7000    8.8750 C.3       8 GLP5        0.0000 
     26 CA        -20.8840  -40.4260    8.3270 C.3       4 GLC5        0.0000 
     27 CA        -22.6460  -41.4420    8.1440 C.3       8 GLP5        0.0000 
     28 CA        -21.2430  -37.6940    8.6300 C.3       4 GLC5        0.0000 
     29 CA        -19.5620  -38.5370    9.6950 C.3      12 GLL5        0.0000 
     30 CA        -20.7535  -36.9990   10.4045 C.3       4 GLC5        0.0000 
     31 CA        -21.9450  -35.4610   11.1140 C.3       8 GLP5        0.0000 
     32 CA        -18.4575  -36.8645   10.2440 C.3       4 GLC5        0.0000 
     33 CA        -17.3530  -35.1920   10.7930 C.3       8 GLP5        0.0000 
     34 CA        -16.6025  -41.2905   11.7215 C.3       4 GLC5        0.0000 
     35 CA        -17.5860  -39.7400   11.3580 C.3      12 GLL5        0.0000 
     36 CA        -15.6190  -42.8410   12.0850 C.3       8 GLP5        0.0000 
     37 CA        -16.3320  -39.2200   10.1165 C.3       4 GLC5        0.0000 
     38 CA        -18.3250  -40.0350   15.1655 C.3       4 GLC5        0.0000 
     39 CA        -18.0310  -40.1610   13.3490 C.3      12 GLL5        0.0000 
     40 CA        -18.6190  -39.9090   16.9820 C.3       8 GLP5        0.0000 
     41 CA        -16.8250  -41.5010   12.7170 C.3       4 GLC5        0.0000 
     42 CA        -18.6135  -41.6665   12.1245 C.3       4 GLC5        0.0000 
     43 CA        -19.6085  -39.0860   15.3205 C.3       4 GLC5        0.0000 
     44 CA        -19.4050  -38.9560   13.5710 C.3      12 GLL5        0.0000 
     45 CA        -19.8120  -39.2160   17.0700 C.3       8 GLP5        0.0000 
     46 CA        -18.2960  -37.4010   14.4015 C.3       4 GLC5        0.0000 
     47 CA        -17.1870  -35.8460   15.2320 C.3       8 GLP5        0.0000 
     48 CA        -21.1800  -39.4730   13.4645 C.3       4 GLC5        0.0000 
     49 CA        -22.9550  -39.9900   13.3580 C.3       8 GLP5        0.0000 
     50 CA        -20.7650  -36.8485   11.6575 C.3       4 GLC5        0.0000 
     51 CA        -19.5850  -38.2360   12.2010 C.3      12 GLL5        0.0000 
     52 CA        -18.4690  -36.7140   11.4970 C.3       4 GLC5        0.0000 
     53 N         -18.3365  -36.4925    3.5895 N.am      2 SEC2        0.0000 
     54 N         -18.5360  -37.5900    4.5770 N.am     10 SEL2        0.0000 
     55 N         -18.1370  -35.3950    2.6020 N.am      6 SEP2        0.0000 
     56 CA        -15.3695  -37.9865    4.4465 C.3       4 GLC5        0.0000 
     57 CA        -15.3520  -38.1760    2.3570 C.3      12 GLL5        0.0000 
     58 CA        -15.3870  -37.7970    6.5360 C.3       8 GLP5        0.0000 
     59 O         -12.3250  -38.8910    1.6050 O.2       1 ALC1        0.0000 
     60 O         -12.5240  -37.7090    1.0590 O.2       9 ALL1        0.0000 
     61 O         -12.1260  -40.0730    2.1510 O.2       5 ALP1        0.0000 
     62 N         -13.5355  -34.8525   -0.4850 N.am      2 SEC2        0.0000 
     63 N         -12.8980  -34.9690    0.9000 N.am     10 SEL2        0.0000 
     64 N         -14.1730  -34.7360   -1.8700 N.am      6 SEP2        0.0000 
     65 CA        -15.7395  -33.9825    2.6060 C.3       4 GLC5        0.0000 
     66 CA        -13.8730  -34.9630    3.0750 C.3      12 GLL5        0.0000 
     67 CA        -17.6060  -33.0020    2.1370 C.3       8 GLP5        0.0000 
     68 N         -12.0265  -36.4570    7.4215 N.am      2 SEC2        0.0000 
     69 N         -12.6860  -35.3860    6.4730 N.am     10 SEL2        0.0000 
     70 N         -11.3670  -37.5280    8.3700 N.am      6 SEP2        0.0000 
     71 CA        -15.9950  -33.8930    9.1770 C.3       4 GLC5        0.0000 
     72 CA        -14.3960  -34.0940    7.7860 C.3      12 GLL5        0.0000 
     73 CA        -17.5940  -33.6920   10.5680 C.3       8 GLP5        0.0000 
     74 O         -12.6620  -34.8155    9.5525 O.2       1 ALC1        0.0000 
     75 O         -13.8950  -34.3090    9.0180 O.2       9 ALL1        0.0000 
     76 O         -11.4290  -35.3220   10.0870 O.2       5 ALP1        0.0000 
     77 O         -14.2860  -33.5240   10.3060 O.2       1 ALC1        0.0000 
     78 O         -14.6770  -32.7390   11.5940 O.2       5 ALP1        0.0000 
     79 N         -16.6120  -33.3725    8.3895 N.am      2 SEC2        0.0000 
     80 N         -15.4710  -33.3020    7.6150 N.am     10 SEL2        0.0000 
     81 N         -17.7530  -33.4430    9.1640 N.am      6 SEP2        0.0000 
     82 CA        -17.0590  -33.5435    4.7870 C.3       4 GLC5        0.0000 
     83 CA        -15.9900  -33.0710    6.4070 C.3      12 GLL5        0.0000 
     84 CA        -18.1280  -34.0160    3.1670 C.3       8 GLP5        0.0000 
     85 CA        -17.7435  -32.0965    6.6515 C.3       4 GLC5        0.0000 
     86 CA        -19.4970  -31.1220    6.8960 C.3       8 GLP5        0.0000 
     87 CA        -18.0115  -33.9345    6.2565 C.3       4 GLC5        0.0000 
     88 CA        -14.8250  -31.5995    6.4625 C.3       4 GLC5        0.0000 
     89 CA        -13.6600  -30.1280    6.5180 C.3       8 GLP5        0.0000 
     90 CA        -14.8385  -36.0415    5.9750 C.3       4 GLC5        0.0000 
     91 CA        -14.2900  -34.2860    5.4140 C.3      12 GLL5        0.0000 
     92 CA        -16.2090  -34.1510    4.2905 C.3       4 GLC5        0.0000 
     93 CA        -13.9750  -32.2070    5.9660 C.3       4 GLC5        0.0000 
     94 CA        -13.8265  -32.8130    4.1180 C.3       4 GLC5        0.0000 
     95 CA        -13.3630  -31.3400    2.8220 C.3       8 GLP5        0.0000 
     96 CA        -17.1470  -38.4353    6.5730 C.3       4 GLC5        0.0000 
     97 CA        -18.8290  -41.3335   11.0528 C.3       4 GLC5        0.0000 
     98 CA        -19.3380  -39.2500   11.0530 C.3      12 GLL5        0.0000 
     99 CA        -21.1178  -39.4799   11.6863 C.3       4 GLC5        0.0000 
    100 CA        -22.7180  -40.3950   12.0850 C.3       8 GLP5        0.0000 
    101 CA        -13.8133  -37.0457   -0.0688 C.3       4 GLC5        0.0000 
    102 CA        -14.6100  -36.9070    1.9960 C.3      12 GLL5        0.0000 
    103 CA        -13.7690  -37.1290   -2.2240 C.3       8 GLP5        0.0000 
    104 CA        -11.4165  -37.0385    3.4650 C.3       4 GLC5        0.0000 
    105 CA        -13.1050  -37.0180    2.1770 C.3      12 GLL5        0.0000 
    106 CA         -9.9120  -37.8010    4.7380 C.3       8 GLP5        0.0000 
    107 CA        -13.3340  -33.2942    2.7315 C.3       4 GLC5        0.0000 
    108 CA        -12.7370  -35.5340    2.2070 C.3      12 GLL5        0.0000 
    109 CA        -14.2323  -36.1520    7.4697 C.3       4 GLC5        0.0000 
    110 CA        -13.7450  -34.5760    6.6610 C.3      12 GLL5        0.0000 
    111 CA        -14.3940  -37.9690    7.7160 C.3       8 GLP5        0.0000 
    112 CA        -13.4693  -32.6385    7.9947 C.3       4 GLC5        0.0000 
    113 CA        -12.8680  -30.9420    8.7660 C.3       8 GLP5        0.0000 
    114 CA        -12.0822  -33.7370    6.2387 C.3       4 GLC5        0.0000 
    115 CA        -10.1470  -33.0430    6.4400 C.3       8 GLP5        0.0000 
@<TRIPOS>BOND
@<TRIPOS>SUBSTRUCTURE
     1 ALC1       59 GROUP        1 X    ALC  0     ROOT ALC X 1
     2 SEC2        1 GROUP        1 X    SEC  0     **** SEC X 2
     3 LYC4        4 GROUP        1 X    LYC  0     **** LYC X 4
     4 GLC5       13 GROUP        1 X    GLC  0     **** GLC X 6
     5 ALP1       61 GROUP        1 Y    ALP  0     ROOT ALP Y 8
     6 SEP2        3 GROUP        1 Y    SEP  0     **** SEP Y 9
     7 LYP4        6 GROUP        1 Y    LYP  0     **** LYP Y 11
     8 GLP5       15 GROUP        1 Y    GLP  0     **** GLP Y 13
     9 ALL1       60 GROUP        1 Z    ALL  0     ROOT ALL Z 15
    10 SEL2        2 GROUP        1 Z    SEL  0     **** SEL Z 16
    11 LYL4        5 GROUP        1 Z    LYL  0     **** LYL Z 18
    12 GLL5       14 GROUP        1 Z    GLL  0     **** GLL Z 20
@<TRIPOS>SET

