#    Name: 3a7r_LAQ_1_ligand
#    Modification time : Tue Mar 25 11:37:50 2014

@<TRIPOS>MOLECULE
3a7r_LAQ_1_ligand
   59    62     1     0     0
SMALL
NO_CHARGES


@<TRIPOS>ATOM
      1 O2P       -17.2870  -40.2820    1.4650 O.co2     1 LAQ401      0.0000 
      2 P         -17.8620  -39.1250    2.2000 P.3       1 LAQ401      0.0000 
      3 O1P       -19.1630  -38.5940    1.7710 O.co2     1 LAQ401      0.0000 
      4 O3P       -17.9120  -39.6380    3.7460 O.3       1 LAQ401      0.0000 
      5 C10       -18.4190  -38.8080    4.7000 C.2       1 LAQ401      0.0000 
      6 C11       -18.6310  -39.5200    6.0490 C.3       1 LAQ401      0.0000 
      7 C12       -19.1830  -38.6270    7.1710 C.3       1 LAQ401      0.0000 
      8 C13       -19.1220  -39.4100    8.5100 C.3       1 LAQ401      0.0000 
      9 C14       -19.5620  -38.5370    9.6950 C.3       1 LAQ401      0.0000 
     10 C15       -19.3380  -39.2500   11.0530 C.3       1 LAQ401      0.0000 
     11 S15       -17.5860  -39.7400   11.3580 S.3       1 LAQ401      0.0000 
     12 S17       -18.0310  -40.1610   13.3490 S.3       1 LAQ401      0.0000 
     13 C17       -19.4050  -38.9560   13.5710 C.3       1 LAQ401      0.0000 
     14 C16       -19.5850  -38.2360   12.2010 C.3       1 LAQ401      0.0000 
     15 O10       -18.5360  -37.5900    4.5770 O.2       1 LAQ401      0.0000 
     16 O5'       -16.7810  -37.9410    2.2210 O.3       1 LAQ401      0.0000 
     17 C5'       -15.3520  -38.1760    2.3570 C.3       1 LAQ401      0.0000 
     18 C4'       -14.6100  -36.9070    1.9960 C.3       1 LAQ401      0.0000 
     19 C3'       -13.1050  -37.0180    2.1770 C.3       1 LAQ401      0.0000 
     20 O3'       -12.5240  -37.7090    1.0590 O.3       1 LAQ401      0.0000 
     21 C2'       -12.7370  -35.5340    2.2070 C.3       1 LAQ401      0.0000 
     22 O2'       -12.8980  -34.9690    0.9000 O.3       1 LAQ401      0.0000 
     23 C1'       -13.8730  -34.9630    3.0750 C.3       1 LAQ401      0.0000 
     24 O4'       -14.9830  -35.8530    2.9170 O.3       1 LAQ401      0.0000 
     25 N9        -13.5760  -34.9560    4.5140 N.pl3     1 LAQ401      0.0000 
     26 C8        -12.6030  -35.6450    5.1590 C.2       1 LAQ401      0.0000 
     27 N7        -12.6860  -35.3860    6.4730 N.2       1 LAQ401      0.0000 
     28 C5        -13.7450  -34.5760    6.6610 C.ar      1 LAQ401      0.0000 
     29 C6        -14.3960  -34.0940    7.7860 C.ar      1 LAQ401      0.0000 
     30 N6        -13.8950  -34.3090    9.0180 N.pl3     1 LAQ401      0.0000 
     31 N1        -15.4710  -33.3020    7.6150 N.ar      1 LAQ401      0.0000 
     32 C2        -15.9900  -33.0710    6.4070 C.ar      1 LAQ401      0.0000 
     33 N3        -15.4210  -33.5580    5.3130 N.ar      1 LAQ401      0.0000 
     34 C4        -14.2900  -34.2860    5.4140 C.ar      1 LAQ401      0.0000 
     35 H         -17.6682  -39.9495    6.3771 H         1 LAQ401      0.0000 
     36 H         -19.3217  -40.3678    5.8965 H         1 LAQ401      0.0000 
     37 H         -20.2078  -38.3731    6.9600 H         1 LAQ401      0.0000 
     38 H         -18.5798  -37.7393    7.2565 H         1 LAQ401      0.0000 
     39 H         -18.1003  -39.7487    8.6707 H         1 LAQ401      0.0000 
     40 H         -19.7756  -40.2772    8.4380 H         1 LAQ401      0.0000 
     41 H         -20.6211  -38.2997    9.5942 H         1 LAQ401      0.0000 
     42 H         -18.9926  -37.6076    9.6890 H         1 LAQ401      0.0000 
     43 H         -19.8595  -40.1106   11.1989 H         1 LAQ401      0.0000 
     44 H         -19.0367  -38.3360   14.3207 H         1 LAQ401      0.0000 
     45 H         -20.2029  -39.5740   13.8233 H         1 LAQ401      0.0000 
     46 H         -20.5905  -37.8583   12.1321 H         1 LAQ401      0.0000 
     47 H         -18.8698  -37.4350   12.1285 H         1 LAQ401      0.0000 
     48 H         -15.0218  -38.9739    1.6907 H         1 LAQ401      0.0000 
     49 H         -15.0965  -38.4492    3.3816 H         1 LAQ401      0.0000 
     50 H         -14.8191  -36.6156    0.9983 H         1 LAQ401      0.0000 
     51 H         -12.9117  -37.4348    3.1121 H         1 LAQ401      0.0000 
     52 H         -11.8455  -35.3857    2.6610 H         1 LAQ401      0.0000 
     53 H         -14.1233  -33.9927    2.7271 H         1 LAQ401      0.0000 
     54 H         -11.9565  -36.2277    4.7333 H         1 LAQ401      0.0000 
     55 H         -12.8987  -34.3636    9.0845 H         1 LAQ401      0.0000 
     56 H         -14.5640  -34.3949    9.7563 H         1 LAQ401      0.0000 
     57 H         -16.8680  -32.4906    6.3257 H         1 LAQ401      0.0000 
     58 H         -12.3827  -38.6458    1.3790 H         1 LAQ401      0.0000 
     59 H         -13.0679  -33.9963    1.0578 H         1 LAQ401      0.0000 
@<TRIPOS>BOND
     1    2    1 ar   
     2    3    2 ar   
     3    4    2 1    
     4   16    2 1    
     5    5    4 1    
     6    6    5 1    
     7   15    5 2    
     8    7    6 1    
     9   35    6 1    
    10   36    6 1    
    11    8    7 1    
    12   37    7 1    
    13   38    7 1    
    14    9    8 1    
    15   39    8 1    
    16   40    8 1    
    17   10    9 1    
    18   41    9 1    
    19   42    9 1    
    20   11   10 1    
    21   14   10 1    
    22   43   10 1    
    23   12   11 1    
    24   13   12 1    
    25   14   13 1    
    26   44   13 1    
    27   45   13 1    
    28   46   14 1    
    29   47   14 1    
    30   17   16 1    
    31   18   17 1    
    32   48   17 1    
    33   49   17 1    
    34   19   18 1    
    35   24   18 1    
    36   50   18 1    
    37   20   19 1    
    38   21   19 1    
    39   51   19 1    
    40   58   20 1    
    41   22   21 1    
    42   23   21 1    
    43   52   21 1    
    44   59   22 1    
    45   24   23 1    
    46   25   23 1    
    47   53   23 1    
    48   26   25 1    
    49   34   25 1    
    50   27   26 2    
    51   54   26 1    
    52   28   27 1    
    53   29   28 ar   
    54   34   28 ar   
    55   30   29 1    
    56   31   29 ar   
    57   55   30 1    
    58   56   30 1    
    59   32   31 ar   
    60   33   32 ar   
    61   57   32 1    
    62   34   33 ar   
@<TRIPOS>SUBSTRUCTURE
     1 LAQ401      1 GROUP   
@<TRIPOS>SET

