#    Name: 2y5s_78H_1_INTS_M
#    Modification time : Tue Mar 25 07:40:47 2014

@<TRIPOS>MOLECULE
2y5s_78H_1_INTS_M
   62     0     9     0     0
SMALL
NO_CHARGES


@<TRIPOS>ATOM
      1 N          49.6160  -12.4895   -0.3125 N.am      2 SEC2        0.0000 
      2 N          50.1290  -12.6870   -1.6060 N.am      8 SEL2        0.0000 
      3 N          49.1030  -12.2920    0.9810 N.am      5 SEP2        0.0000 
      4 N          49.0825  -13.2335   -2.1135 N.am      2 SEC2        0.0000 
      5 N          48.0360  -13.7800   -2.6210 N.am      5 SEP2        0.0000 
      6 O          52.2910  -11.7695    0.4015 O.2       1 ALC1        0.0000 
      7 O          52.2110  -12.1050   -0.8380 O.2       7 ALL1        0.0000 
      8 O          52.3710  -11.4340    1.6410 O.2       4 ALP1        0.0000 
      9 CA         54.2815  -14.6705   -2.9475 C.3       3 GLC5        0.0000 
     10 CA         53.2480  -12.9180   -3.2440 C.3       9 GLL5        0.0000 
     11 CA         55.3150  -16.4230   -2.6510 C.3       6 GLP5        0.0000 
     12 N          49.5515  -13.6275   -3.3345 N.am      2 SEC2        0.0000 
     13 N          51.0670  -13.4750   -4.0480 N.am      8 SEL2        0.0000 
     14 O          54.9205  -13.1960   -5.6190 O.2       1 ALC1        0.0000 
     15 O          53.8120  -13.3100   -4.4520 O.2       7 ALL1        0.0000 
     16 O          56.0290  -13.0820   -6.7860 O.2       4 ALP1        0.0000 
     17 N          55.2995  -11.5775   -2.4220 N.am      2 SEC2        0.0000 
     18 N          54.0640  -12.4430   -2.2910 N.am      8 SEL2        0.0000 
     19 N          56.5350  -10.7120   -2.5530 N.am      5 SEP2        0.0000 
     20 O          55.7085  -11.5330   -0.3215 O.2       1 ALC1        0.0000 
     21 O          54.4600  -11.6210   -0.1640 O.2       7 ALL1        0.0000 
     22 O          56.9570  -11.4450   -0.4790 O.2       4 ALP1        0.0000 
     23 O          53.4155  -11.5275    0.7385 O.2       1 ALC1        0.0000 
     24 CA         54.4640  -15.4620   -6.0045 C.3       3 GLC5        0.0000 
     25 CA         53.0880  -14.2040   -5.3690 C.3       9 GLL5        0.0000 
     26 CA         55.8400  -16.7200   -6.6400 C.3       6 GLP5        0.0000 
     27 CA         54.2015  -15.3135   -4.0100 C.3       3 GLC5        0.0000 
     28 CA         50.6520  -16.4620   -7.0965 C.3       3 GLC5        0.0000 
     29 CA         50.6300  -14.4570   -6.2690 C.3       9 GLL5        0.0000 
     30 CA         50.6740  -18.4670   -7.9240 C.3       6 GLP5        0.0000 
     31 CA         51.0345  -15.8205   -4.7520 C.3       3 GLC5        0.0000 
     32 CA         51.4390  -17.1840   -3.2350 C.3       6 GLP5        0.0000 
     33 CA         48.9850  -14.0530   -5.1040 C.3       3 GLC5        0.0000 
     34 CA         47.3400  -13.6490   -3.9390 C.3       6 GLP5        0.0000 
     35 O          51.7070  -16.4860   -6.0970 O.2       1 ALC1        0.0000 
     36 O          50.1890  -15.8270   -6.0410 O.2       7 ALL1        0.0000 
     37 O          53.2250  -17.1450   -6.1530 O.2       4 ALP1        0.0000 
     38 CA         46.2295  -17.6380   -3.1840 C.3       3 GLC5        0.0000 
     39 CA         47.0060  -17.2040   -5.0360 C.3       9 GLL5        0.0000 
     40 CA         45.4530  -18.0720   -1.3320 C.3       6 GLP5        0.0000 
     41 CA         46.4150  -15.5710   -4.4265 C.3       3 GLC5        0.0000 
     42 CA         45.8240  -13.9380   -3.8170 C.3       6 GLP5        0.0000 
     43 N          42.9070  -16.6080   -5.6630 N.am      2 SEC2        0.0000 
     44 N          44.2230  -17.5360   -5.0730 N.am      8 SEL2        0.0000 
     45 N          41.5910  -15.6800   -6.2530 N.am      5 SEP2        0.0000 
     46 N          42.8270  -16.2790   -6.7030 N.am      2 SEC2        0.0000 
     47 N          44.0630  -16.8780   -7.1530 N.am      8 SEL2        0.0000 
     48 N          42.7045  -17.6495   -7.2140 N.am      2 SEC2        0.0000 
     49 N          41.3460  -18.4210   -7.2750 N.am      5 SEP2        0.0000 
     50 CA         52.7503  -14.2428   -1.4148 C.3       3 GLC5        0.0000 
     51 CA         51.8690  -13.0190   -3.0550 C.3       9 GLL5        0.0000 
     52 CA         52.9420  -15.5170    0.3200 C.3       6 GLP5        0.0000 
     53 CA         52.6467  -10.9282   -3.3513 C.3       3 GLC5        0.0000 
     54 CA         52.7350   -8.8880   -3.5530 C.3       6 GLP5        0.0000 
     55 CA         49.5505  -17.4348   -6.8630 C.3       3 GLC5        0.0000 
     56 CA         48.8970  -16.1370   -6.0570 C.3       9 GLL5        0.0000 
     57 CA         47.8835  -15.0257   -4.8705 C.3       3 GLC5        0.0000 
     58 CA         45.7815  -14.9503   -5.8585 C.3       3 GLC5        0.0000 
     59 CA         46.2160  -16.7710   -6.1060 C.3       9 GLL5        0.0000 
     60 CA         45.0710  -13.5020   -5.0900 C.3       6 GLP5        0.0000 
     61 CA         48.6165  -18.6436   -5.3304 C.3       3 GLC5        0.0000 
     62 CA         49.4190  -20.4290   -5.3750 C.3       6 GLP5        0.0000 
@<TRIPOS>BOND
@<TRIPOS>SUBSTRUCTURE
     1 ALC1        6 GROUP        1 X    ALC  0     ROOT ALC X 1
     2 SEC2        1 GROUP        1 X    SEC  0     **** SEC X 2
     3 GLC5        9 GROUP        1 X    GLC  0     **** GLC X 6
     4 ALP1        8 GROUP        1 Y    ALP  0     ROOT ALP Y 8
     5 SEP2        3 GROUP        1 Y    SEP  0     **** SEP Y 9
     6 GLP5       11 GROUP        1 Y    GLP  0     **** GLP Y 13
     7 ALL1        7 GROUP        1 Z    ALL  0     ROOT ALL Z 15
     8 SEL2        2 GROUP        1 Z    SEL  0     **** SEL Z 16
     9 GLL5       10 GROUP        1 Z    GLL  0     **** GLL Z 20
@<TRIPOS>SET

