#    Name: 2y5s_78H_1_ligand
#    Modification time : Tue Mar 25 07:40:47 2014

@<TRIPOS>MOLECULE
2y5s_78H_1_ligand
   36    38     1     0     0
SMALL
NO_CHARGES


@<TRIPOS>ATOM
      1 O4         50.1290  -12.6870   -1.6060 O.2       1 78H1293     0.0000 
      2 C4         51.3380  -12.6090   -1.8280 C.2       1 78H1293     0.0000 
      3 C5         51.8690  -13.0190   -3.0550 C.2       1 78H1293     0.0000 
      4 N3         52.2110  -12.1050   -0.8380 N.am      1 78H1293     0.0000 
      5 C9         53.2480  -12.9180   -3.2440 C.2       1 78H1293     0.0000 
      6 N5         51.0670  -13.4750   -4.0480 N.2       1 78H1293     0.0000 
      7 C2         53.6000  -12.0550   -1.0950 C.2       1 78H1293     0.0000 
      8 N8         53.8120  -13.3100   -4.4520 N.pl3     1 78H1293     0.0000 
      9 N1         54.0640  -12.4430   -2.2910 N.2       1 78H1293     0.0000 
     10 C6         51.5740  -14.0190   -5.1650 C.2       1 78H1293     0.0000 
     11 N2         54.4600  -11.6210   -0.1640 N.pl3     1 78H1293     0.0000 
     12 C7         53.0880  -14.2040   -5.3690 C.3       1 78H1293     0.0000 
     13 C10        50.6300  -14.4570   -6.2690 C.3       1 78H1293     0.0000 
     14 N11        50.1890  -15.8270   -6.0410 N.pl3     1 78H1293     0.0000 
     15 C15        48.8970  -16.1370   -6.0570 C.ar      1 78H1293     0.0000 
     16 C16        48.1170  -15.6970   -7.1230 C.ar      1 78H1293     0.0000 
     17 C17        48.3470  -16.8880   -5.0140 C.ar      1 78H1293     0.0000 
     18 C18        46.7680  -16.0260   -7.1480 C.ar      1 78H1293     0.0000 
     19 C19        47.0060  -17.2040   -5.0360 C.ar      1 78H1293     0.0000 
     20 C20        46.2160  -16.7710   -6.1060 C.ar      1 78H1293     0.0000 
     21 C21        44.7170  -17.1130   -6.1240 C.2       1 78H1293     0.0000 
     22 O22        44.2230  -17.5360   -5.0730 O.co2     1 78H1293     0.0000 
     23 O23        44.0630  -16.8780   -7.1530 O.co2     1 78H1293     0.0000 
     24 H          51.8430  -11.7805    0.0530 H         1 78H1293     0.0000 
     25 H          54.7400  -12.9923   -4.7394 H         1 78H1293     0.0000 
     26 H          54.0649  -11.3839    0.7236 H         1 78H1293     0.0000 
     27 H          55.4199  -11.5730   -0.4399 H         1 78H1293     0.0000 
     28 H          53.3333  -15.2448   -5.1723 H         1 78H1293     0.0000 
     29 H          53.3227  -13.9719   -6.4049 H         1 78H1293     0.0000 
     30 H          51.1537  -14.3703   -7.2274 H         1 78H1293     0.0000 
     31 H          49.7763  -13.7706   -6.2876 H         1 78H1293     0.0000 
     32 H          50.9332  -16.5249   -5.8699 H         1 78H1293     0.0000 
     33 H          48.5311  -15.1421   -7.8727 H         1 78H1293     0.0000 
     34 H          48.9462  -17.1980   -4.2403 H         1 78H1293     0.0000 
     35 H          46.1762  -15.7229   -7.9303 H         1 78H1293     0.0000 
     36 H          46.5823  -17.7508   -4.2798 H         1 78H1293     0.0000 
@<TRIPOS>BOND
     1    2    1 2    
     2    3    2 1    
     3    4    2 am   
     4    5    3 2    
     5    6    3 1    
     6    7    4 1    
     7   24    4 1    
     8    8    5 1    
     9    9    5 1    
    10   10    6 2    
    11    9    7 2    
    12   11    7 1    
    13   12    8 1    
    14   25    8 1    
    15   12   10 1    
    16   13   10 1    
    17   26   11 1    
    18   27   11 1    
    19   28   12 1    
    20   29   12 1    
    21   14   13 1    
    22   30   13 1    
    23   31   13 1    
    24   15   14 1    
    25   32   14 1    
    26   16   15 ar   
    27   17   15 ar   
    28   18   16 ar   
    29   33   16 1    
    30   19   17 ar   
    31   34   17 1    
    32   20   18 ar   
    33   35   18 1    
    34   20   19 ar   
    35   36   19 1    
    36   21   20 1    
    37   22   21 ar   
    38   23   21 ar   
@<TRIPOS>SUBSTRUCTURE
     1 78H1293     1 GROUP   
@<TRIPOS>SET

