#    Name: 3a2j_TEJ_1_INTS_M
#    Modification time : Mon Apr  7 18:55:12 2014

@<TRIPOS>MOLECULE
3a2j_TEJ_1_INTS_M
  106     0     9     0     0
SMALL
NO_CHARGES


@<TRIPOS>ATOM
      1 CA          4.1570   -1.1805  -35.6865 C.3       3 GLC5        0.0000 
      2 CA          5.2770   -1.9830  -34.5720 C.3       9 GLL5        0.0000 
      3 CA          3.0370   -0.3780  -36.8010 C.3       6 GLP5        0.0000 
      4 CA          4.7770   -3.6545  -35.0825 C.3       3 GLC5        0.0000 
      5 CA          4.2770   -5.3260  -35.5930 C.3       6 GLP5        0.0000 
      6 CA          6.6725    0.1125  -30.4675 C.3       3 GLC5        0.0000 
      7 CA          7.5740   -0.4980  -32.1570 C.3       9 GLL5        0.0000 
      8 CA          5.7710    0.7230  -28.7780 C.3       6 GLP5        0.0000 
      9 CA          8.3885   -1.5580  -29.5120 C.3       3 GLC5        0.0000 
     10 CA          8.8470   -1.1520  -31.6410 C.3       9 GLL5        0.0000 
     11 CA          7.9300   -1.9640  -27.3830 C.3       6 GLP5        0.0000 
     12 CA         10.3200    1.9940  -33.1775 C.3       3 GLC5        0.0000 
     13 CA          9.8200    1.2220  -31.6090 C.3       9 GLL5        0.0000 
     14 CA         10.8200    2.7660  -34.7460 C.3       6 GLP5        0.0000 
     15 CA          9.3025    2.9030  -30.5765 C.3       3 GLC5        0.0000 
     16 CA          8.7850    4.5840  -29.5440 C.3       6 GLP5        0.0000 
     17 CA         11.7780    1.6225  -30.7110 C.3       3 GLC5        0.0000 
     18 CA         13.7360    2.0230  -29.8130 C.3       6 GLP5        0.0000 
     19 CA         14.5535   -3.6455  -29.8660 C.3       3 GLC5        0.0000 
     20 CA         13.0110   -2.3050  -30.2800 C.3       9 GLL5        0.0000 
     21 CA         16.0960   -4.9860  -29.4520 C.3       6 GLP5        0.0000 
     22 CA          9.2265   -3.8090  -32.2050 C.3       3 GLC5        0.0000 
     23 CA         10.8610   -2.9290  -32.4690 C.3       9 GLL5        0.0000 
     24 CA          7.5920   -4.6890  -31.9410 C.3       6 GLP5        0.0000 
     25 CA         15.6950   -2.2190  -33.7545 C.3       3 GLC5        0.0000 
     26 CA         14.0340   -2.8070  -34.0710 C.3       9 GLL5        0.0000 
     27 CA         17.3560   -1.6310  -33.4380 C.3       6 GLP5        0.0000 
     28 CA         11.6770   -2.8060  -36.2260 C.3       3 GLC5        0.0000 
     29 CA         12.8370   -2.0360  -34.6670 C.3       9 GLL5        0.0000 
     30 CA         10.5170   -3.5760  -37.7850 C.3       6 GLP5        0.0000 
     31 CA         14.9385   -1.2935  -34.4705 C.3       3 GLC5        0.0000 
     32 CA         17.0400   -0.5510  -34.2740 C.3       6 GLP5        0.0000 
     33 CA         13.3310   -8.4290  -33.9675 C.3       3 GLC5        0.0000 
     34 CA         15.2260   -7.8630  -33.3350 C.3       9 GLL5        0.0000 
     35 CA         11.4360   -8.9950  -34.6000 C.3       6 GLP5        0.0000 
     36 CA         17.0925  -10.1815  -31.1680 C.3       3 GLC5        0.0000 
     37 CA         15.8390   -8.9080  -32.3920 C.3       9 GLL5        0.0000 
     38 CA         18.3460  -11.4550  -29.9440 C.3       6 GLP5        0.0000 
     39 CA         17.0815  -10.2555  -33.0755 C.3       3 GLC5        0.0000 
     40 CA         18.3240  -11.6030  -33.7590 C.3       6 GLP5        0.0000 
     41 N          17.8390   -9.3375  -31.1565 N.am      2 SEC2        0.0000 
     42 N          16.9160   -8.3200  -31.6490 N.am      8 SEL2        0.0000 
     43 N          18.7620  -10.3550  -30.6640 N.am      5 SEP2        0.0000 
     44 O          17.7975   -7.4905  -32.2380 O.2       1 ALC1        0.0000 
     45 O          16.9160   -8.3200  -31.6490 O.2       7 ALL1        0.0000 
     46 O          18.6790   -6.6610  -32.8270 O.2       4 ALP1        0.0000 
     47 CA         16.0275  -10.4100  -30.2525 C.3       3 GLC5        0.0000 
     48 CA         14.8020   -9.4640  -31.4080 C.3       9 GLL5        0.0000 
     49 CA         17.2530  -11.3560  -29.0970 C.3       6 GLP5        0.0000 
     50 CA         14.3135   -8.6360  -28.6250 C.3       3 GLC5        0.0000 
     51 CA         14.1650   -8.3700  -30.5500 C.3       9 GLL5        0.0000 
     52 CA         14.4620   -8.9020  -26.7000 C.3       6 GLP5        0.0000 
     53 CA         15.5890   -7.2530  -29.7925 C.3       3 GLC5        0.0000 
     54 CA         17.0130   -6.1360  -29.0350 C.3       6 GLP5        0.0000 
     55 N          13.0420  -10.2810  -29.0380 N.am      2 SEC2        0.0000 
     56 N          13.1250   -8.9410  -29.7480 N.am      8 SEL2        0.0000 
     57 N          12.9590  -11.6210  -28.3280 N.am      5 SEP2        0.0000 
     58 O          11.8665   -9.2870  -30.2725 O.2       1 ALC1        0.0000 
     59 O          13.1250   -8.9410  -29.7480 O.2       7 ALL1        0.0000 
     60 O          10.6080   -9.6330  -30.7970 O.2       4 ALP1        0.0000 
     61 CA         12.5300   -8.1485  -33.0295 C.3       3 GLC5        0.0000 
     62 CA         13.6240   -7.3020  -31.4590 C.3       9 GLL5        0.0000 
     63 CA         11.5630   -7.2630  -33.0680 C.3       3 GLC5        0.0000 
     64 CA         12.3840   -6.8690  -31.3170 C.3       9 GLL5        0.0000 
     65 CA         10.7420   -7.6570  -34.8190 C.3       6 GLP5        0.0000 
     66 CA         11.0770   -8.2485  -30.4865 C.3       3 GLC5        0.0000 
     67 CA          9.7700   -9.6280  -29.6560 C.3       6 GLP5        0.0000 
     68 CA         11.6430   -6.0640  -29.8365 C.3       3 GLC5        0.0000 
     69 CA         10.9020   -5.2590  -28.3560 C.3       6 GLP5        0.0000 
     70 CA          6.6072   -3.2340  -32.9945 C.3       3 GLC5        0.0000 
     71 CA          5.5762    0.1560  -33.8650 C.3       3 GLC5        0.0000 
     72 CA          5.9680   -1.5750  -33.5240 C.3       9 GLL5        0.0000 
     73 CA          5.5300    2.0910  -33.6820 C.3       6 GLP5        0.0000 
     74 CA          7.2919   -2.2590  -35.4633 C.3       3 GLC5        0.0000 
     75 CA          8.1080   -3.1590  -37.1000 C.3       6 GLP5        0.0000 
     76 CA          6.4908    0.6863  -33.2815 C.3       3 GLC5        0.0000 
     77 CA          7.3290   -0.9390  -33.6050 C.3       9 GLL5        0.0000 
     78 CA          7.8706   -2.8121  -32.1010 C.3       3 GLC5        0.0000 
     79 CA         11.6757   -3.5393  -29.2268 C.3       3 GLC5        0.0000 
     80 CA         11.8880   -1.3340  -29.9150 C.3       9 GLL5        0.0000 
     81 CA         12.5817   -1.3558  -28.1363 C.3       3 GLC5        0.0000 
     82 CA         12.7140   -0.8920  -26.1750 C.3       6 GLP5        0.0000 
     83 CA         13.0289    0.1781  -30.1195 C.3       3 GLC5        0.0000 
     84 CA         15.3803   -2.0475  -32.1193 C.3       3 GLC5        0.0000 
     85 CA         13.1760   -2.0950  -31.7830 C.3       9 GLL5        0.0000 
     86 CA         17.2730   -1.4570  -32.0380 C.3       6 GLP5        0.0000 
     87 CA         15.0240   -4.3840  -30.9028 C.3       3 GLC5        0.0000 
     88 CA         13.7990   -3.1810  -32.6180 C.3       9 GLL5        0.0000 
     89 CA         14.4243   -2.4292  -36.2120 C.3       3 GLC5        0.0000 
     90 CA         15.4130   -2.4370  -38.0550 C.3       6 GLP5        0.0000 
     91 CA         12.6500    0.1990  -35.0588 C.3       3 GLC5        0.0000 
     92 CA         12.8570    1.9680  -35.9250 C.3       6 GLP5        0.0000 
     93 CA         16.1698   -4.2470  -32.4468 C.3       3 GLC5        0.0000 
     94 CA         14.1050   -4.3830  -32.0890 C.3       9 GLL5        0.0000 
     95 CA         17.9260   -3.5520  -32.4420 C.3       6 GLP5        0.0000 
     96 CA         13.1505   -6.4102  -34.0810 C.3       3 GLC5        0.0000 
     97 CA         14.7220   -5.5010  -32.8140 C.3       9 GLL5        0.0000 
     98 CA         11.6860   -6.6670  -35.4930 C.3       6 GLP5        0.0000 
     99 CA         14.8012   -9.6913  -34.2378 C.3       3 GLC5        0.0000 
    100 CA         14.0700  -10.9970  -35.6120 C.3       6 GLP5        0.0000 
    101 CA         17.5458   -8.0362  -33.0577 C.3       3 GLC5        0.0000 
    102 CA         19.5590   -7.6870  -33.2520 C.3       6 GLP5        0.0000 
    103 CA         16.4537   -8.3292  -34.5288 C.3       3 GLC5        0.0000 
    104 CA         17.3750   -8.2730  -36.1940 C.3       6 GLP5        0.0000 
    105 CA         15.1077   -5.8569  -30.7580 C.3       3 GLC5        0.0000 
    106 CA         14.5080   -6.8060  -32.5240 C.3       9 GLL5        0.0000 
@<TRIPOS>BOND
@<TRIPOS>SUBSTRUCTURE
     1 ALC1       44 GROUP        1 X    ALC  0     ROOT ALC X 1
     2 SEC2       41 GROUP        1 X    SEC  0     **** SEC X 2
     3 GLC5        1 GROUP        1 X    GLC  0     **** GLC X 6
     4 ALP1       46 GROUP        1 Y    ALP  0     ROOT ALP Y 8
     5 SEP2       43 GROUP        1 Y    SEP  0     **** SEP Y 9
     6 GLP5        3 GROUP        1 Y    GLP  0     **** GLP Y 13
     7 ALL1       45 GROUP        1 Z    ALL  0     ROOT ALL Z 15
     8 SEL2       42 GROUP        1 Z    SEL  0     **** SEL Z 16
     9 GLL5        2 GROUP        1 Z    GLL  0     **** GLL Z 20
@<TRIPOS>SET

