#    Name: 3a2j_TEJ_1_ligand
#    Modification time : Mon Apr  7 18:55:12 2014

@<TRIPOS>MOLECULE
3a2j_TEJ_1_ligand
   65    68     1     0     0
SMALL
NO_CHARGES


@<TRIPOS>ATOM
      1 O21         4.5650   -2.2370  -31.8770 O.2       1 TEJ1        0.0000 
      2 C17         5.5630   -1.6510  -32.2680 C.2       1 TEJ1        0.0000 
      3 C18         5.9680   -1.5750  -33.5240 C.2       1 TEJ1        0.0000 
      4 C20         5.2770   -1.9830  -34.5720 C.2       1 TEJ1        0.0000 
      5 C19         7.3290   -0.9390  -33.6050 C.3       1 TEJ1        0.0000 
      6 C15         7.5740   -0.4980  -32.1570 C.3       1 TEJ1        0.0000 
      7 O16         6.4660   -0.9540  -31.3710 O.3       1 TEJ1        0.0000 
      8 C12         8.8470   -1.1520  -31.6410 C.3       1 TEJ1        0.0000 
      9 C10         9.9250   -0.2110  -31.0860 C.3       1 TEJ1        0.0000 
     10 C11         9.8200    1.2220  -31.6090 C.3       1 TEJ1        0.0000 
     11 C7         11.3770   -0.7230  -31.2290 C.3       1 TEJ1        0.0000 
     12 C8         11.8880   -1.3340  -29.9150 C.3       1 TEJ1        0.0000 
     13 C9         13.0110   -2.3050  -30.2800 C.3       1 TEJ1        0.0000 
     14 C5         13.1760   -2.0950  -31.7830 C.3       1 TEJ1        0.0000 
     15 C6         11.8040   -1.7170  -32.3330 C.3       1 TEJ1        0.0000 
     16 C22        10.8610   -2.9290  -32.4690 C.3       1 TEJ1        0.0000 
     17 C4         13.7990   -3.1810  -32.6180 C.2       1 TEJ1        0.0000 
     18 C3         14.0340   -2.8070  -34.0710 C.3       1 TEJ1        0.0000 
     19 C2         12.8370   -2.0360  -34.6670 C.3       1 TEJ1        0.0000 
     20 C1         12.0490   -1.1040  -33.7180 C.3       1 TEJ1        0.0000 
     21 C23        14.1050   -4.3830  -32.0890 C.2       1 TEJ1        0.0000 
     22 C24        14.7220   -5.5010  -32.8140 C.2       1 TEJ1        0.0000 
     23 C25        14.5080   -6.8060  -32.5240 C.2       1 TEJ1        0.0000 
     24 C26        15.2260   -7.8630  -33.3350 C.3       1 TEJ1        0.0000 
     25 C27        15.8390   -8.9080  -32.3920 C.3       1 TEJ1        0.0000 
     26 O34        16.9160   -8.3200  -31.6490 O.3       1 TEJ1        0.0000 
     27 C73        14.8020   -9.4640  -31.4080 C.3       1 TEJ1        0.0000 
     28 C29        14.1650   -8.3700  -30.5500 C.3       1 TEJ1        0.0000 
     29 O32        13.1250   -8.9410  -29.7480 O.3       1 TEJ1        0.0000 
     30 C30        13.6240   -7.3020  -31.4590 C.2       1 TEJ1        0.0000 
     31 C31        12.3840   -6.8690  -31.3170 C.2       1 TEJ1        0.0000 
     32 H           7.3046   -0.0879  -34.2316 H         1 TEJ1        0.0000 
     33 H           8.0571   -1.6536  -33.8821 H         1 TEJ1        0.0000 
     34 H           7.6774    0.5540  -32.1307 H         1 TEJ1        0.0000 
     35 H           9.2983   -1.7571  -32.4602 H         1 TEJ1        0.0000 
     36 H           8.5785   -1.8846  -30.8460 H         1 TEJ1        0.0000 
     37 H           9.7439   -0.1370  -29.9685 H         1 TEJ1        0.0000 
     38 H          12.0448    0.1902  -31.3651 H         1 TEJ1        0.0000 
     39 H          11.0906   -1.8669  -29.4364 H         1 TEJ1        0.0000 
     40 H          12.2730   -0.5557  -29.2866 H         1 TEJ1        0.0000 
     41 H          12.7028   -3.2983  -30.0870 H         1 TEJ1        0.0000 
     42 H          13.9004   -2.0293  -29.7782 H         1 TEJ1        0.0000 
     43 H          13.7924   -1.1608  -31.9086 H         1 TEJ1        0.0000 
     44 H          14.1952   -3.7120  -34.6614 H         1 TEJ1        0.0000 
     45 H          14.9261   -2.1812  -34.1492 H         1 TEJ1        0.0000 
     46 H          12.1255   -2.7736  -35.1041 H         1 TEJ1        0.0000 
     47 H          13.2016   -1.4313  -35.5288 H         1 TEJ1        0.0000 
     48 H          12.6067   -0.1669  -33.6030 H         1 TEJ1        0.0000 
     49 H          11.0843   -0.8652  -34.1814 H         1 TEJ1        0.0000 
     50 H          13.9008   -4.5841  -31.0654 H         1 TEJ1        0.0000 
     51 H          15.3636   -5.2226  -33.6007 H         1 TEJ1        0.0000 
     52 H          16.0184   -7.4054  -33.9169 H         1 TEJ1        0.0000 
     53 H          14.5253   -8.3560  -33.9998 H         1 TEJ1        0.0000 
     54 H          16.2012   -9.7334  -32.9950 H         1 TEJ1        0.0000 
     55 H          15.2880  -10.1958  -30.7544 H         1 TEJ1        0.0000 
     56 H          14.0181   -9.9808  -31.9713 H         1 TEJ1        0.0000 
     57 H          14.9440   -7.9430  -29.9370 H         1 TEJ1        0.0000 
     58 H          10.5370    1.8084  -31.2321 H         1 TEJ1        0.0000 
     59 H           9.9028    1.2609  -32.6048 H         1 TEJ1        0.0000 
     60 H           8.9437    1.6409  -31.3712 H         1 TEJ1        0.0000 
     61 H          11.1607   -3.5537  -33.1900 H         1 TEJ1        0.0000 
     62 H          10.8136   -3.4595  -31.6226 H         1 TEJ1        0.0000 
     63 H           9.9272   -2.6498  -32.6926 H         1 TEJ1        0.0000 
     64 H          17.3861   -7.7256  -32.3014 H         1 TEJ1        0.0000 
     65 H          12.3505   -9.0534  -30.3705 H         1 TEJ1        0.0000 
@<TRIPOS>BOND
     1    2    1 2    
     2    3    2 1    
     3    7    2 1    
     4    4    3 2    
     5    5    3 1    
     6    6    5 1    
     7   32    5 1    
     8   33    5 1    
     9    7    6 1    
    10    8    6 1    
    11   34    6 1    
    12    9    8 1    
    13   35    8 1    
    14   36    8 1    
    15   10    9 1    
    16   11    9 1    
    17   37    9 1    
    18   58   10 1    
    19   59   10 1    
    20   60   10 1    
    21   12   11 1    
    22   15   11 1    
    23   38   11 1    
    24   13   12 1    
    25   39   12 1    
    26   40   12 1    
    27   14   13 1    
    28   41   13 1    
    29   42   13 1    
    30   15   14 1    
    31   17   14 1    
    32   43   14 1    
    33   16   15 1    
    34   20   15 1    
    35   61   16 1    
    36   62   16 1    
    37   63   16 1    
    38   18   17 1    
    39   21   17 2    
    40   19   18 1    
    41   44   18 1    
    42   45   18 1    
    43   20   19 1    
    44   46   19 1    
    45   47   19 1    
    46   48   20 1    
    47   49   20 1    
    48   22   21 1    
    49   50   21 1    
    50   23   22 2    
    51   51   22 1    
    52   24   23 1    
    53   30   23 1    
    54   25   24 1    
    55   52   24 1    
    56   53   24 1    
    57   26   25 1    
    58   27   25 1    
    59   54   25 1    
    60   64   26 1    
    61   28   27 1    
    62   55   27 1    
    63   56   27 1    
    64   29   28 1    
    65   30   28 1    
    66   57   28 1    
    67   65   29 1    
    68   31   30 2    
@<TRIPOS>SUBSTRUCTURE
     1 TEJ1        1 GROUP   
@<TRIPOS>SET

