#    Name: 2pjl_047_1_INTS_M
#    Modification time : Mon Mar 24 19:04:22 2014

@<TRIPOS>MOLECULE
2pjl_047_1_INTS_M
   92     0     6     0     0
SMALL
NO_CHARGES


@<TRIPOS>ATOM
      1 CA        -11.4850   -5.9370    7.2290 C.3       2 GLC5        0.0000 
      2 CA        -11.4770   -7.3940    8.5860 C.3       6 GLL5        0.0000 
      3 CA        -11.4930   -4.4800    5.8720 C.3       4 GLP5        0.0000 
      4 CA        -10.5805   -9.6630    9.0965 C.3       2 GLC5        0.0000 
      5 CA        -11.4160   -9.1330    7.2320 C.3       6 GLL5        0.0000 
      6 CA         -9.7450  -10.1930   10.9610 C.3       4 GLP5        0.0000 
      7 CA        -11.8055  -11.1560    6.5035 C.3       2 GLC5        0.0000 
      8 CA        -12.1950  -13.1790    5.7750 C.3       4 GLP5        0.0000 
      9 CA        -14.5285  -10.4800    9.1375 C.3       2 GLC5        0.0000 
     10 CA        -13.8280   -9.9920    7.2580 C.3       6 GLL5        0.0000 
     11 CA        -15.2290  -10.9680   11.0170 C.3       4 GLP5        0.0000 
     12 CA        -13.0115  -11.5855    6.5165 C.3       2 GLC5        0.0000 
     13 OD1       -16.2440  -10.0915    6.9710 O.co2     1 ASC3        0.0000 
     14 OD1       -14.8930   -9.3050    6.4870 O.co2     5 ASL3        0.0000 
     15 OD1       -17.5950  -10.8780    7.4550 O.co2     3 ASP3        0.0000 
     16 OD1       -15.5250  -10.4625    6.2325 O.co2     1 ASC3        0.0000 
     17 OD1       -16.1570  -11.6200    5.9780 O.co2     3 ASP3        0.0000 
     18 CA        -14.0030  -10.5910    4.4470 C.3       2 GLC5        0.0000 
     19 CA        -14.5360   -8.8910    5.1120 C.3       6 GLL5        0.0000 
     20 CA        -13.4700  -12.2910    3.7820 C.3       4 GLP5        0.0000 
     21 CA        -15.0265   -6.6580    2.7205 C.3       2 GLC5        0.0000 
     22 CA        -15.3780   -7.6800    4.6040 C.3       6 GLL5        0.0000 
     23 CA        -14.6750   -5.6360    0.8370 C.3       4 GLP5        0.0000 
     24 CA        -17.5140   -9.7500    3.3845 C.3       2 GLC5        0.0000 
     25 CA        -16.8840   -8.0390    4.3870 C.3       6 GLL5        0.0000 
     26 CA        -18.1440  -11.4610    2.3820 C.3       4 GLP5        0.0000 
     27 CA        -18.8635   -8.4225    2.9205 C.3       2 GLC5        0.0000 
     28 CA        -17.6740   -6.8420    3.7910 C.3       6 GLL5        0.0000 
     29 CA        -20.0530  -10.0030    2.0500 C.3       4 GLP5        0.0000 
     30 CA        -16.1745   -6.2390    2.3140 C.3       2 GLC5        0.0000 
     31 CA        -18.1860   -3.7255    3.9215 C.3       2 GLC5        0.0000 
     32 CA        -17.4510   -5.5250    4.5910 C.3       6 GLL5        0.0000 
     33 CA        -18.9210   -1.9260    3.2520 C.3       4 GLP5        0.0000 
     34 CA        -14.4650   -4.2310    6.1230 C.3       2 GLC5        0.0000 
     35 CA        -15.9300   -5.2290    4.8000 C.3       6 GLL5        0.0000 
     36 CA        -13.0000   -3.2330    7.4460 C.3       4 GLP5        0.0000 
     37 CA        -16.4800   -3.2835    4.8060 C.3       2 GLC5        0.0000 
     38 CA        -17.0300   -1.3380    4.8120 C.3       4 GLP5        0.0000 
     39 CA        -15.3025   -5.4325    2.8185 C.3       2 GLC5        0.0000 
     40 CA        -16.0375   -5.5130    7.1080 C.3       2 GLC5        0.0000 
     41 CA        -15.2500   -6.4300    5.5240 C.3       6 GLL5        0.0000 
     42 CA        -16.8250   -4.5960    8.6920 C.3       4 GLP5        0.0000 
     43 CA        -13.3715   -5.4550    5.6980 C.3       2 GLC5        0.0000 
     44 CA        -14.5205   -9.1345   10.1675 C.3       2 GLC5        0.0000 
     45 CA        -13.8120   -7.3010    9.3180 C.3       6 GLL5        0.0000 
     46 CA        -12.6865   -4.1150   11.5555 C.3       2 GLC5        0.0000 
     47 CA        -12.1600   -5.6780   10.1020 C.3       6 GLL5        0.0000 
     48 CA        -13.2130   -2.5520   13.0090 C.3       4 GLP5        0.0000 
     49 CA         -9.9955   -7.1445   10.6200 C.3       2 GLC5        0.0000 
     50 CA        -11.1390   -6.2790    9.3600 C.3       6 GLL5        0.0000 
     51 CA         -8.8520   -8.0100   11.8800 C.3       4 GLP5        0.0000 
     52 CA        -11.3505   -4.8350    8.1420 C.3       2 GLC5        0.0000 
     53 CA        -11.5620   -3.3910    6.9240 C.3       4 GLP5        0.0000 
     54 CA         -7.0240   -4.7300    7.5615 C.3       2 GLC5        0.0000 
     55 CA         -7.3820   -6.7210    6.9490 C.3       6 GLL5        0.0000 
     56 CA         -6.6660   -2.7390    8.1740 C.3       4 GLP5        0.0000 
     57 CA         -4.6915   -8.0105    4.8985 C.3       2 GLC5        0.0000 
     58 CA         -5.0710   -7.8710    6.8660 C.3       6 GLL5        0.0000 
     59 CA         -4.3120   -8.1500    2.9310 C.3       4 GLP5        0.0000 
     60 CA        -10.9370   -8.9165    9.7705 C.3       2 GLC5        0.0000 
     61 CA        -17.0145   -8.0092    2.0970 C.3       2 GLC5        0.0000 
     62 CA        -16.7500   -8.5780    0.1050 C.3       4 GLP5        0.0000 
     63 CA        -18.4942   -5.5983    2.5110 C.3       2 GLC5        0.0000 
     64 CA        -19.4260   -5.0130    0.8310 C.3       4 GLP5        0.0000 
     65 CA        -19.0702   -6.4238    5.5105 C.3       2 GLC5        0.0000 
     66 CA        -20.5780   -6.6640    6.8300 C.3       4 GLP5        0.0000 
     67 CA        -16.6083   -4.4020    6.3478 C.3       2 GLC5        0.0000 
     68 CA        -16.5260   -3.4270    8.0000 C.3       4 GLP5        0.0000 
     69 CA        -13.3893   -7.2659    4.0910 C.3       2 GLC5        0.0000 
     70 CA        -11.6750   -7.1740    2.9910 C.3       4 GLP5        0.0000 
     71 CA        -15.3567   -6.3295   10.2617 C.3       2 GLC5        0.0000 
     72 CA        -17.0730   -5.9150   10.8200 C.3       4 GLP5        0.0000 
     73 CA        -11.9303   -7.4172   11.3968 C.3       2 GLC5        0.0000 
     74 CA        -13.4690   -6.1870   10.0890 C.3       6 GLL5        0.0000 
     75 CA        -11.0460   -8.9020   12.6980 C.3       4 GLP5        0.0000 
     76 CA        -12.9073   -4.5827    8.7707 C.3       2 GLC5        0.0000 
     77 CA        -13.5581   -6.5145   11.7879 C.3       2 GLC5        0.0000 
     78 CA        -14.2160   -6.8180   13.6730 C.3       4 GLP5        0.0000 
     79 CA        -10.6807   -4.6542   10.7995 C.3       2 GLC5        0.0000 
     80 CA         -9.7120   -3.3300   11.8680 C.3       4 GLP5        0.0000 
     81 CA        -10.2808   -5.9395    6.6130 C.3       2 GLC5        0.0000 
     82 CA         -9.3690   -8.0080    7.5380 C.3       6 GLL5        0.0000 
     83 CA         -7.4787  -10.6678    6.4990 C.3       2 GLC5        0.0000 
     84 CA         -8.5690   -9.1470    7.6630 C.3       6 GLL5        0.0000 
     85 CA         -7.0770  -12.2200    5.4450 C.3       4 GLP5        0.0000 
     86 CA         -8.9127   -9.5119    9.2414 C.3       2 GLC5        0.0000 
     87 CA         -7.1920   -9.0840    7.4430 C.3       6 GLL5        0.0000 
     88 CA         -5.2510   -9.8063    6.4740 C.3       2 GLC5        0.0000 
     89 CA         -6.5890   -7.8740    7.0880 C.3       6 GLL5        0.0000 
     90 CA         -4.6720  -11.7400    5.9710 C.3       4 GLP5        0.0000 
     91 CA         -5.2774   -9.3675    8.3154 C.3       2 GLC5        0.0000 
     92 CA         -4.5740  -10.5600    9.5650 C.3       4 GLP5        0.0000 
@<TRIPOS>BOND
@<TRIPOS>SUBSTRUCTURE
     1 ASC3       13 GROUP        1 X    ASC  0     ROOT ASC X 3
     2 GLC5        1 GROUP        1 X    GLC  0     **** GLC X 6
     3 ASP3       15 GROUP        1 Y    ASP  0     ROOT ASP Y 10
     4 GLP5        3 GROUP        1 Y    GLP  0     **** GLP Y 13
     5 ASL3       14 GROUP        1 Z    ASL  0     ROOT ASL Z 17
     6 GLL5        2 GROUP        1 Z    GLL  0     **** GLL Z 20
@<TRIPOS>SET

