#    Name: 2pjl_047_1_ligand
#    Modification time : Mon Mar 24 19:04:22 2014

@<TRIPOS>MOLECULE
2pjl_047_1_ligand
   52    55     1     0     0
SMALL
NO_CHARGES


@<TRIPOS>ATOM
      1 N1        -10.7060   -8.1570    7.7670 N.pl3     1 047600      0.0000 
      2 C2        -11.4770   -7.3940    8.5860 C.ar      1 047600      0.0000 
      3 C3        -12.7810   -7.8860    8.5740 C.ar      1 047600      0.0000 
      4 C4        -12.6940   -9.0680    7.6420 C.2       1 047600      0.0000 
      5 C5        -11.4160   -9.1330    7.2320 C.2       1 047600      0.0000 
      6 C7        -13.8280   -9.9920    7.2580 C.3       1 047600      0.0000 
      7 N10       -14.8930   -9.3050    6.4870 N.4       1 047600      0.0000 
      8 C12       -14.5360   -8.8910    5.1120 C.3       1 047600      0.0000 
      9 C15       -15.3780   -7.6800    4.6040 C.3       1 047600      0.0000 
     10 C17       -16.8840   -8.0390    4.3870 C.3       1 047600      0.0000 
     11 C20       -17.6740   -6.8420    3.7910 C.3       1 047600      0.0000 
     12 C23       -17.4510   -5.5250    4.5910 C.3       1 047600      0.0000 
     13 C26       -15.9300   -5.2290    4.8000 C.3       1 047600      0.0000 
     14 C29       -15.2500   -6.4300    5.5240 C.3       1 047600      0.0000 
     15 C32       -13.8120   -7.3010    9.3180 C.ar      1 047600      0.0000 
     16 C34       -13.4690   -6.1870   10.0890 C.ar      1 047600      0.0000 
     17 C36       -12.1600   -5.6780   10.1020 C.ar      1 047600      0.0000 
     18 C38       -11.1390   -6.2790    9.3600 C.ar      1 047600      0.0000 
     19 C40        -9.3690   -8.0080    7.5380 C.ar      1 047600      0.0000 
     20 C41        -8.5690   -9.1470    7.6630 C.ar      1 047600      0.0000 
     21 C43        -7.1920   -9.0840    7.4430 C.ar      1 047600      0.0000 
     22 C45        -6.5890   -7.8740    7.0880 C.ar      1 047600      0.0000 
     23 C46        -7.3820   -6.7210    6.9490 C.ar      1 047600      0.0000 
     24 C48        -8.7680   -6.7900    7.1700 C.ar      1 047600      0.0000 
     25 C50        -5.0710   -7.8710    6.8660 C.3       1 047600      0.0000 
     26 H         -11.0690   -9.8207    6.6157 H         1 047600      0.0000 
     27 H         -14.2541  -10.4302    8.1771 H         1 047600      0.0000 
     28 H         -13.4178  -10.8289    6.6666 H         1 047600      0.0000 
     29 H         -14.6883   -9.7197    4.4048 H         1 047600      0.0000 
     30 H         -13.4757   -8.6035    5.0557 H         1 047600      0.0000 
     31 H         -14.9767   -7.3903    3.6149 H         1 047600      0.0000 
     32 H         -17.3187   -8.3121    5.3428 H         1 047600      0.0000 
     33 H         -16.9472   -8.8816    3.7065 H         1 047600      0.0000 
     34 H         -18.7372   -7.0811    3.7971 H         1 047600      0.0000 
     35 H         -17.3556   -6.6854    2.7606 H         1 047600      0.0000 
     36 H         -17.9263   -5.6155    5.5621 H         1 047600      0.0000 
     37 H         -17.8962   -4.6994    4.0456 H         1 047600      0.0000 
     38 H         -15.8253   -4.3446    5.4067 H         1 047600      0.0000 
     39 H         -15.4654   -5.0864    3.8382 H         1 047600      0.0000 
     40 H         -14.2143   -6.2086    5.6773 H         1 047600      0.0000 
     41 H         -15.7568   -6.6176    6.4476 H         1 047600      0.0000 
     42 H         -14.7453   -7.6621    9.2983 H         1 047600      0.0000 
     43 H         -14.1944   -5.7241   10.6650 H         1 047600      0.0000 
     44 H         -11.9501   -4.8416   10.6729 H         1 047600      0.0000 
     45 H         -10.1968   -5.9233    9.3816 H         1 047600      0.0000 
     46 H          -9.0032  -10.0475    7.9218 H         1 047600      0.0000 
     47 H          -6.6178   -9.9313    7.5424 H         1 047600      0.0000 
     48 H          -6.9491   -5.8315    6.6868 H         1 047600      0.0000 
     49 H          -9.3450   -5.9492    7.0628 H         1 047600      0.0000 
     50 H          -4.5751   -8.1558    7.6864 H         1 047600      0.0000 
     51 H          -4.8020   -8.4926    6.1303 H         1 047600      0.0000 
     52 H          -4.7334   -6.9624    6.6201 H         1 047600      0.0000 
@<TRIPOS>BOND
     1    2    1 1    
     2    5    1 1    
     3   19    1 1    
     4    3    2 ar   
     5   18    2 ar   
     6    4    3 1    
     7   15    3 ar   
     8    5    4 2    
     9    6    4 1    
    10   26    5 1    
    11    7    6 1    
    12   27    6 1    
    13   28    6 1    
    14    8    7 1    
    15    9    8 1    
    16   29    8 1    
    17   30    8 1    
    18   10    9 1    
    19   14    9 1    
    20   31    9 1    
    21   11   10 1    
    22   32   10 1    
    23   33   10 1    
    24   12   11 1    
    25   34   11 1    
    26   35   11 1    
    27   13   12 1    
    28   36   12 1    
    29   37   12 1    
    30   14   13 1    
    31   38   13 1    
    32   39   13 1    
    33   40   14 1    
    34   41   14 1    
    35   16   15 ar   
    36   42   15 1    
    37   17   16 ar   
    38   43   16 1    
    39   18   17 ar   
    40   44   17 1    
    41   45   18 1    
    42   20   19 ar   
    43   24   19 ar   
    44   21   20 ar   
    45   46   20 1    
    46   22   21 ar   
    47   47   21 1    
    48   23   22 ar   
    49   25   22 1    
    50   24   23 ar   
    51   48   23 1    
    52   49   24 1    
    53   50   25 1    
    54   51   25 1    
    55   52   25 1    
@<TRIPOS>SUBSTRUCTURE
     1 047600      1 GROUP   
@<TRIPOS>SET

