#    Name: 1FDK_1_CAVITY_N1_ALL.mol2
#    Modification time : Mon Mar 10 22:58:53 2014

@<TRIPOS>MOLECULE
1FDK_1_CAVITY_N1_ALL.mol2
   62     0     6     0     0
SMALL
NO_CHARGES


@<TRIPOS>ATOM
      1 CA         37.2304    1.7644   65.1131 C.3       5 GLY6        0.0000 
      2 CA         36.7859    3.1274   66.6766 C.3       5 GLY6        0.0000 
      3 CA         36.2014    0.0157   67.7839 C.3       5 GLY6        0.0000 
      4 O          36.0878    1.1270   66.7828 O.2       2 ALA2        0.0000 
      5 O          35.9742    2.2383   65.7818 O.2       2 ALA2        0.0000 
      6 O          35.2761    0.2380   65.8880 O.2       2 ALA2        0.0000 
      7 CA         35.7568    1.3787   69.3474 C.3       5 GLY6        0.0000 
      8 CZ         35.6432    2.4900   68.3463 C.ar      4 PHE5        0.0000 
      9 CA         34.9451    0.4897   68.4526 C.3       5 GLY6        0.0000 
     10 CA         34.8315    1.6010   67.4515 C.3       5 GLY6        0.0000 
     11 O          34.7179    2.7123   66.4505 O.2       2 ALA2        0.0000 
     12 N          34.0198    0.7119   66.5567 N.2       2 ALA2        0.0000 
     13 N          33.9062    1.8232   65.5556 N.2       2 ALA2        0.0000 
     14 CZ         34.3869    2.9639   69.0150 C.ar      4 PHE5        0.0000 
     15 CA         33.5752    2.0749   68.1202 C.3       5 GLY6        0.0000 
     16 CZ         33.4616    3.1862   67.1192 C.ar      4 PHE5        0.0000 
     17 N          33.3480    4.2975   66.1181 N.2       2 ALA2        0.0000 
     18 CA         32.8771    0.0746   68.2264 C.3       5 GLY6        0.0000 
     19 CA         32.7635    1.1859   67.2254 C.3       5 GLY6        0.0000 
     20 CA         32.6499    2.2972   66.2243 C.3       5 GLY6        0.0000 
     21 CA         32.0654   -0.8145   67.3316 C.3       5 GLY6        0.0000 
     22 CA         31.9518    0.2968   66.3305 C.3       5 GLY6        0.0000 
     23 N          31.8382    1.4081   65.3295 N.2       2 ALA2        0.0000 
     24 N          31.2537   -1.7035   66.4367 N.2       2 ALA2        0.0000 
     25 CA         32.3190    2.5488   68.7889 C.3       5 GLY6        0.0000 
     26 CZ         32.2054    3.6601   67.7879 C.ar      4 PHE5        0.0000 
     27 OG         32.0918    4.7715   66.7868 O.2       1 SER1        0.0000 
     28 CA         31.7344   -0.5628   69.8962 C.3       5 GLY6        0.0000 
     29 CA         31.6208    0.5485   68.8951 C.3       5 GLY6        0.0000 
     30 CA         31.5072    1.6598   67.8941 C.3       5 GLY6        0.0000 
     31 DU         31.3936    2.7711   66.8930 H         6 CUB7        0.0000 
     32 O          31.2800    3.8824   65.8920 O.2       2 ALA2        0.0000 
     33 N          31.1664    4.9937   64.8909 N.2       2 ALA2        0.0000 
     34 CA         30.9227   -1.4518   69.0013 C.3       5 GLY6        0.0000 
     35 CA         30.8091   -0.3405   68.0003 C.3       5 GLY6        0.0000 
     36 DU         30.6955    0.7708   66.9992 H         6 CUB7        0.0000 
     37 O          30.5819    1.8821   65.9982 O.2       2 ALA2        0.0000 
     38 O          30.4683    2.9934   64.9971 O.2       2 ALA2        0.0000 
     39 N          29.9974   -1.2296   67.1054 N.2       2 ALA2        0.0000 
     40 CA         29.8838   -0.1183   66.1044 C.3       5 GLY6        0.0000 
     41 N          29.7702    0.9930   65.1033 N.2       2 ALA2        0.0000 
     42 O          29.6566    2.1043   64.1023 O.2       2 ALA2        0.0000 
     43 CZ         31.0627    3.0228   69.4576 C.ar      4 PHE5        0.0000 
     44 CZ         30.9491    4.1341   68.4566 C.ar      4 PHE5        0.0000 
     45 OG         30.8355    5.2454   67.4555 O.2       1 SER1        0.0000 
     46 CZ         30.3646    1.0224   69.5638 C.ar      4 PHE5        0.0000 
     47 CZ         30.2510    2.1337   68.5628 C.ar      4 PHE5        0.0000 
     48 CZ         30.1374    3.2451   67.5617 C.ar      4 PHE5        0.0000 
     49 O          30.0238    4.3564   66.5607 O.2       2 ALA2        0.0000 
     50 NZ         29.9102    5.4677   65.5596 N.2       3 LYS4        0.0000 
     51 CA         29.6665   -0.9779   69.6700 C.3       5 GLY6        0.0000 
     52 CZ         29.5529    0.1334   68.6690 C.ar      4 PHE5        0.0000 
     53 CZ         29.4393    1.2447   67.6679 C.ar      4 PHE5        0.0000 
     54 CZ         29.3257    2.3560   66.6669 C.ar      4 PHE5        0.0000 
     55 O          29.2121    3.4673   65.6658 O.2       2 ALA2        0.0000 
     56 CA         29.0985    4.5786   64.6648 C.3       5 GLY6        0.0000 
     57 CA         28.7412   -0.7556   67.7741 C.3       5 GLY6        0.0000 
     58 CZ         28.6276    0.3557   66.7731 C.ar      4 PHE5        0.0000 
     59 CZ         28.5140    1.4670   65.7720 C.ar      4 PHE5        0.0000 
     60 CA         28.4004    2.5783   64.7710 C.3       5 GLY6        0.0000 
     61 CZ         27.9558    3.9413   66.3345 C.ar      4 PHE5        0.0000 
     62 CA         27.8422    5.0526   65.3335 C.3       5 GLY6        0.0000 
@<TRIPOS>BOND
@<TRIPOS>SUBSTRUCTURE
     1 SER1       27 GROUP   
     2 ALA2        4 GROUP   
     3 LYS4       50 GROUP   
     4 PHE5        8 GROUP   
     5 GLY6        1 GROUP   
     6 CUB7       31 GROUP   
@<TRIPOS>SET

