#    Name: 1fdk_GLE_1_INTS_M
#    Modification time : Tue Mar 25 01:05:39 2014

@<TRIPOS>MOLECULE
1fdk_GLE_1_INTS_M
   59     0     6     0     0
SMALL
NO_CHARGES


@<TRIPOS>ATOM
      1 CA         35.1195    4.5060   66.4155 C.3       2 GLC5        0.0000 
      2 CA         33.7570    3.2820   66.2860 C.3       6 GLL5        0.0000 
      3 CA         36.4820    5.7300   66.5450 C.3       4 GLP5        0.0000 
      4 N          32.3695    5.7255   67.4290 N.am      1 SEC2        0.0000 
      5 N          31.6450    4.6220   66.9060 N.am      5 SEL2        0.0000 
      6 N          33.0940    6.8290   67.9520 N.am      3 SEP2        0.0000 
      7 CA         32.4905    1.7935   69.0535 C.3       2 GLC5        0.0000 
      8 CA         31.6990    1.8760   66.9920 C.3       6 GLL5        0.0000 
      9 CA         33.2820    1.7110   71.1150 C.3       4 GLP5        0.0000 
     10 CA         28.9255    1.9555   68.5130 C.3       2 GLC5        0.0000 
     11 CA         29.7320    0.8230   67.4500 C.3       6 GLL5        0.0000 
     12 CA         28.1190    3.0880   69.5760 C.3       4 GLP5        0.0000 
     13 CA         30.9180   -2.6805   67.4475 C.3       2 GLC5        0.0000 
     14 CA         29.9480   -0.7330   67.6510 C.3       6 GLL5        0.0000 
     15 CA         31.8880   -4.6280   67.2440 C.3       4 GLP5        0.0000 
     16 CA         32.4480   -2.0110   67.1485 C.3       2 GLC5        0.0000 
     17 CA         30.9590   -1.3210   66.6720 C.3       6 GLL5        0.0000 
     18 CA         33.9370   -2.7010   67.6250 C.3       4 GLP5        0.0000 
     19 CA         31.9865   -1.5760   65.2300 C.3       2 GLC5        0.0000 
     20 CA         33.0140   -1.8310   63.7880 C.3       4 GLP5        0.0000 
     21 CA         26.9280   -0.2765   66.9490 C.3       2 GLC5        0.0000 
     22 CA         28.6590   -1.4770   67.4340 C.3       6 GLL5        0.0000 
     23 CA         25.1970    0.9240   66.4640 C.3       4 GLP5        0.0000 
     24 CA         31.8490    0.3250   70.0905 C.3       2 GLC5        0.0000 
     25 CA         30.4160   -1.0610   69.0660 C.3       6 GLL5        0.0000 
     26 CA         29.6200    0.8325   69.9030 C.3       2 GLC5        0.0000 
     27 CA         28.8240    2.7260   70.7400 C.3       4 GLP5        0.0000 
     28 CA         29.6890   -1.7920   70.9830 C.3       2 GLC5        0.0000 
     29 CA         28.9620   -2.5230   72.9000 C.3       4 GLP5        0.0000 
     30 CA         32.1765   -1.8810   68.3455 C.3       2 GLC5        0.0000 
     31 N          28.7640    6.5205   67.4665 N.am      1 SEC2        0.0000 
     32 N          29.7050    6.3570   66.5720 N.am      5 SEL2        0.0000 
     33 N          27.8230    6.6840   68.3610 N.am      3 SEP2        0.0000 
     34 N          31.3950    4.5430   63.7105 N.am      1 SEC2        0.0000 
     35 N          31.1600    5.5930   64.6540 N.am      5 SEL2        0.0000 
     36 N          31.6300    3.4930   62.7670 N.am      3 SEP2        0.0000 
     37 CA         28.8330    4.0285   63.4765 C.3       2 GLC5        0.0000 
     38 CA         28.1620    4.5360   65.2630 C.3       6 GLL5        0.0000 
     39 CA         29.5040    3.5210   61.6900 C.3       4 GLP5        0.0000 
     40 CA         27.2545    4.1655   64.0345 C.3       2 GLC5        0.0000 
     41 CA         26.3470    3.7950   62.8060 C.3       4 GLP5        0.0000 
     42 CA         26.9825    6.1435   66.2875 C.3       2 GLC5        0.0000 
     43 CA         25.8030    7.7510   67.3120 C.3       4 GLP5        0.0000 
     44 CA         26.6545    3.3565   65.5515 C.3       2 GLC5        0.0000 
     45 CA         25.1470    2.1770   65.8400 C.3       4 GLP5        0.0000 
     46 CA         36.1560    3.9745   66.7380 C.3       2 GLC5        0.0000 
     47 CA         35.8300    2.2190   66.9310 C.3       6 GLL5        0.0000 
     48 CA         35.0475   -0.9745   67.1685 C.3       2 GLC5        0.0000 
     49 CA         36.1580    0.7520   66.7120 C.3       6 GLL5        0.0000 
     50 CA         33.0302    3.2525   64.6817 C.3       2 GLC5        0.0000 
     51 CA         33.0430    3.2110   62.8870 C.3       4 GLP5        0.0000 
     52 CA         33.5233    4.3645   68.0567 C.3       2 GLC5        0.0000 
     53 CA         34.0290    5.4350   69.6370 C.3       4 GLP5        0.0000 
     54 CA         28.4946   -1.5710   65.7894 C.3       2 GLC5        0.0000 
     55 CA         27.4330   -1.8900   64.2810 C.3       4 GLP5        0.0000 
     56 CA         28.0539   -0.8898   68.9486 C.3       2 GLC5        0.0000 
     57 CA         26.2750   -0.8910   69.6180 C.3       4 GLP5        0.0000 
     58 CA         28.8589   -2.7105   68.5661 C.3       2 GLC5        0.0000 
     59 CA         27.8580   -4.3380   68.8280 C.3       4 GLP5        0.0000 
@<TRIPOS>BOND
@<TRIPOS>SUBSTRUCTURE
     1 SEC2        4 GROUP        1 X    SEC  0     ROOT SEC X 2
     2 GLC5        1 GROUP        1 X    GLC  0     **** GLC X 6
     3 SEP2        6 GROUP        1 Y    SEP  0     ROOT SEP Y 9
     4 GLP5        3 GROUP        1 Y    GLP  0     **** GLP Y 13
     5 SEL2        5 GROUP        1 Z    SEL  0     ROOT SEL Z 16
     6 GLL5        2 GROUP        1 Z    GLL  0     **** GLL Z 20
@<TRIPOS>SET

