#    Name: 1fdk_GLE_1_ligand
#    Modification time : Tue Mar 25 01:05:39 2014

@<TRIPOS>MOLECULE
1fdk_GLE_1_ligand
   57    56     1     0     0
SMALL
NO_CHARGES


@<TRIPOS>ATOM
      1 C1         33.7570    3.2820   66.2860 C.3       1 GLE150      0.0000 
      2 O1         34.4000    2.3000   67.1280 O.3       1 GLE150      0.0000 
      3 C2         32.2780    3.3060   66.6670 C.3       1 GLE150      0.0000 
      4 O2         31.6450    4.6220   66.9060 O.3       1 GLE150      0.0000 
      5 C3         31.6990    1.8760   66.9920 C.3       1 GLE150      0.0000 
      6 O3         30.4800    1.3530   66.3750 O.3       1 GLE150      0.0000 
      7 C31        29.7320    0.8230   67.4500 C.3       1 GLE150      0.0000 
      8 C32        29.9480   -0.7330   67.6510 C.3       1 GLE150      0.0000 
      9 F31        30.9590   -1.3210   66.6720 F         1 GLE150      0.0000 
     10 F32        28.6590   -1.4770   67.4340 F         1 GLE150      0.0000 
     11 F33        30.4160   -1.0610   69.0660 F         1 GLE150      0.0000 
     12 P2         30.4840    5.0710   65.8720 P.3       1 GLE150      0.0000 
     13 O21        29.7050    6.3570   66.5720 O.co2     1 GLE150      0.0000 
     14 O22        31.1600    5.5930   64.6540 O.co2     1 GLE150      0.0000 
     15 C2P        28.1620    4.5360   65.2630 C.3       1 GLE150      0.0000 
     16 O23        29.4280    3.9300   65.4680 O.3       1 GLE150      0.0000 
     17 C11        35.8300    2.2190   66.9310 C.3       1 GLE150      0.0000 
     18 C12        36.1580    0.7520   66.7120 C.3       1 GLE150      0.0000 
     19 C13        37.6960    0.5130   66.6850 C.3       1 GLE150      0.0000 
     20 C14        38.1530   -0.1040   65.3360 C.3       1 GLE150      0.0000 
     21 C15        39.0190    0.9260   64.4550 C.3       1 GLE150      0.0000 
     22 C16        38.3900    1.1520   63.0040 C.3       1 GLE150      0.0000 
     23 C17        39.1980    0.3950   61.9270 C.3       1 GLE150      0.0000 
     24 C18        40.1400    1.3640   61.1890 C.3       1 GLE150      0.0000 
     25 C19        41.6340    1.0770   61.5090 C.3       1 GLE150      0.0000 
     26 C20        42.4310    0.6530   60.2420 C.3       1 GLE150      0.0000 
     27 H          33.8333    3.0204   65.2370 H         1 GLE150      0.0000 
     28 H          34.1649    4.2735   66.4452 H         1 GLE150      0.0000 
     29 H          31.8976    3.2268   65.3379 H         1 GLE150      0.0000 
     30 H          31.6035    1.8362   68.1342 H         1 GLE150      0.0000 
     31 H          32.5665    1.1468   66.8161 H         1 GLE150      0.0000 
     32 H          28.6411    0.9620   67.3188 H         1 GLE150      0.0000 
     33 H          29.9900    1.2915   68.4198 H         1 GLE150      0.0000 
     34 H          36.3712    2.5663   67.8017 H         1 GLE150      0.0000 
     35 H          36.1427    2.7757   66.0570 H         1 GLE150      0.0000 
     36 H          35.7418    0.4172   65.7631 H         1 GLE150      0.0000 
     37 H          35.7316    0.1533   67.5154 H         1 GLE150      0.0000 
     38 H          37.9610   -0.1632   67.4923 H         1 GLE150      0.0000 
     39 H          38.2021    1.4627   66.8303 H         1 GLE150      0.0000 
     40 H          37.2866   -0.3886   64.7498 H         1 GLE150      0.0000 
     41 H          38.7699   -0.9761   65.5210 H         1 GLE150      0.0000 
     42 H          40.0131    0.5242   64.3433 H         1 GLE150      0.0000 
     43 H          39.0489    1.8719   64.9712 H         1 GLE150      0.0000 
     44 H          38.4046    2.2123   62.7983 H         1 GLE150      0.0000 
     45 H          37.3726    0.7896   63.0241 H         1 GLE150      0.0000 
     46 H          38.5122   -0.0487   61.2158 H         1 GLE150      0.0000 
     47 H          39.7844   -0.3808   62.4037 H         1 GLE150      0.0000 
     48 H          39.9093    2.3862   61.4858 H         1 GLE150      0.0000 
     49 H          39.9877    1.2660   60.1150 H         1 GLE150      0.0000 
     50 H          41.6905    0.2777   62.2449 H         1 GLE150      0.0000 
     51 H          42.0851    1.9753   61.9250 H         1 GLE150      0.0000 
     52 H          27.8347    5.0000   66.0861 H         1 GLE150      0.0000 
     53 H          28.1911    5.2192   64.5333 H         1 GLE150      0.0000 
     54 H          27.4658    3.8648   65.0085 H         1 GLE150      0.0000 
     55 H          43.3920    0.4720   60.4511 H         1 GLE150      0.0000 
     56 H          42.0589   -0.1789   59.8303 H         1 GLE150      0.0000 
     57 H          42.4129    1.3622   59.5372 H         1 GLE150      0.0000 
@<TRIPOS>BOND
     1    2    1 1    
     2    3    1 1    
     3   27    1 1    
     4   28    1 1    
     5   17    2 1    
     6    4    3 1    
     7    5    3 1    
     8   29    3 1    
     9   12    4 1    
    10    6    5 1    
    11   30    5 1    
    12   31    5 1    
    13    7    6 1    
    14    8    7 1    
    15   32    7 1    
    16   33    7 1    
    17    9    8 1    
    18   10    8 1    
    19   11    8 1    
    20   13   12 ar   
    21   14   12 ar   
    22   16   12 1    
    23   16   15 1    
    24   52   15 1    
    25   53   15 1    
    26   54   15 1    
    27   18   17 1    
    28   34   17 1    
    29   35   17 1    
    30   19   18 1    
    31   36   18 1    
    32   37   18 1    
    33   20   19 1    
    34   38   19 1    
    35   39   19 1    
    36   21   20 1    
    37   40   20 1    
    38   41   20 1    
    39   22   21 1    
    40   42   21 1    
    41   43   21 1    
    42   23   22 1    
    43   44   22 1    
    44   45   22 1    
    45   24   23 1    
    46   46   23 1    
    47   47   23 1    
    48   25   24 1    
    49   48   24 1    
    50   49   24 1    
    51   26   25 1    
    52   50   25 1    
    53   51   25 1    
    54   55   26 1    
    55   56   26 1    
    56   57   26 1    
@<TRIPOS>SUBSTRUCTURE
     1 GLE150      1 GROUP   
@<TRIPOS>SET

