#    Name: 4ea0_651_2_INTS_M
#    Modification time : Tue Mar 25 10:47:30 2014

@<TRIPOS>MOLECULE
4ea0_651_2_INTS_M
   41     0     6     0     0
SMALL
NO_CHARGES


@<TRIPOS>ATOM
      1 O          27.2470   12.4660   24.1825 O.2       1 ALC1        0.0000 
      2 O          26.8980   11.9960   22.7870 O.2       5 ALL1        0.0000 
      3 O          27.5960   12.9360   25.5780 O.2       3 ALP1        0.0000 
      4 CA         25.6355   15.9830   23.0840 C.3       2 GLC5        0.0000 
      5 CA         23.9100   15.1150   23.3010 C.3       6 GLL5        0.0000 
      6 CA         27.3610   16.8510   22.8670 C.3       4 GLP5        0.0000 
      7 CA         25.8190   10.9030   25.3710 C.3       2 GLC5        0.0000 
      8 CA         24.8900   11.0190   23.4180 C.3       6 GLL5        0.0000 
      9 CA         26.7480   10.7870   27.3240 C.3       4 GLP5        0.0000 
     10 CA         23.8558   19.6660   21.0255 C.3       2 GLC5        0.0000 
     11 CA         23.1350   19.1110   23.0640 C.3       6 GLL5        0.0000 
     12 CA         25.0220   19.9930   19.4510 C.3       4 GLP5        0.0000 
     13 CA         20.7260   20.4298   22.5180 C.3       2 GLC5        0.0000 
     14 CA         22.2440   19.5670   22.1360 C.3       6 GLL5        0.0000 
     15 CA         19.4330   21.7250   23.3810 C.3       4 GLP5        0.0000 
     16 CA         22.8385   18.2103   24.7660 C.3       2 GLC5        0.0000 
     17 CA         22.3340   17.9610   26.5010 C.3       4 GLP5        0.0000 
     18 CA         23.5115   19.0185   20.3017 C.3       2 GLC5        0.0000 
     19 CA         21.7940   18.7020   21.1740 C.3       6 GLL5        0.0000 
     20 CA         24.4831   19.7503   23.4465 C.3       2 GLC5        0.0000 
     21 CA         23.5510   17.8080   22.9980 C.3       6 GLL5        0.0000 
     22 CA         25.8460   20.9270   24.0940 C.3       4 GLP5        0.0000 
     23 CA         24.1697   18.6792   20.9915 C.3       2 GLC5        0.0000 
     24 CA         24.4432   14.5140   25.0992 C.3       2 GLC5        0.0000 
     25 CA         24.6790   14.5260   26.8700 C.3       4 GLP5        0.0000 
     26 CA         25.6475   15.6805   21.1675 C.3       2 GLC5        0.0000 
     27 CA         24.5620   13.7510   20.9830 C.3       6 GLL5        0.0000 
     28 CA         27.0290   16.9860   21.3740 C.3       4 GLP5        0.0000 
     29 CA         26.3822   14.5437   22.9655 C.3       2 GLC5        0.0000 
     30 CA         24.8440   13.1960   22.2200 C.3       6 GLL5        0.0000 
     31 CA         28.0900   15.5450   23.1430 C.3       4 GLP5        0.0000 
     32 CA         24.7603   11.4330   19.0353 C.3       2 GLC5        0.0000 
     33 CA         25.6020   11.1300   21.0950 C.3       6 GLL5        0.0000 
     34 CA         24.5450   12.0960   17.0210 C.3       4 GLP5        0.0000 
     35 CA         28.0273    8.5965   21.8210 C.3       2 GLC5        0.0000 
     36 CA         26.6550   10.0840   21.2730 C.3       6 GLL5        0.0000 
     37 CA         29.4090    7.3380   21.6540 C.3       4 GLP5        0.0000 
     38 CA         25.2494   16.7516   21.8430 C.3       2 GLC5        0.0000 
     39 CA         23.6220   15.6690   22.0920 C.3       6 GLL5        0.0000 
     40 CA         20.9808   17.2829   22.5652 C.3       2 GLC5        0.0000 
     41 CA         19.2460   16.7530   23.1680 C.3       4 GLP5        0.0000 
@<TRIPOS>BOND
@<TRIPOS>SUBSTRUCTURE
     1 ALC1        1 GROUP        1 X    ALC  0     ROOT ALC X 1
     2 GLC5        4 GROUP        1 X    GLC  0     **** GLC X 6
     3 ALP1        3 GROUP        1 Y    ALP  0     ROOT ALP Y 8
     4 GLP5        6 GROUP        1 Y    GLP  0     **** GLP Y 13
     5 ALL1        2 GROUP        1 Z    ALL  0     ROOT ALL Z 15
     6 GLL5        5 GROUP        1 Z    GLL  0     **** GLL Z 20
@<TRIPOS>SET

