#    Name: 4ea0_651_2_ligand
#    Modification time : Tue Mar 25 10:47:30 2014

@<TRIPOS>MOLECULE
4ea0_651_2_ligand
   43    46     1     0     0
SMALL
NO_CHARGES


@<TRIPOS>ATOM
      1 OAA        26.8980   11.9960   22.7870 O.3       1 651305      0.0000 
      2 CAB        22.2440   19.5670   22.1360 C.ar      1 651305      0.0000 
      3 CAC        23.1350   19.1110   23.0640 C.ar      1 651305      0.0000 
      4 CAD        21.7940   18.7020   21.1740 C.ar      1 651305      0.0000 
      5 CAE        23.5510   17.8080   22.9980 C.ar      1 651305      0.0000 
      6 CAF        22.2080   17.3860   21.1310 C.ar      1 651305      0.0000 
      7 CAG        23.9100   15.1150   23.3010 C.ar      1 651305      0.0000 
      8 CAH        23.9700   14.9990   20.9390 C.ar      1 651305      0.0000 
      9 CAI        24.5050   13.8890   23.3560 C.ar      1 651305      0.0000 
     10 CAJ        24.5620   13.7510   20.9830 C.ar      1 651305      0.0000 
     11 CAK        24.3490   10.4100   21.0040 C.3       1 651305      0.0000 
     12 CAL        26.6550   10.0840   21.2730 C.3       1 651305      0.0000 
     13 CAM        24.4940    9.2730   22.0180 C.3       1 651305      0.0000 
     14 CAN        26.6360    9.6260   22.7030 C.3       1 651305      0.0000 
     15 CAO        24.8900   11.0190   23.4180 C.3       1 651305      0.0000 
     16 CAP        23.0840   16.9230   22.0660 C.ar      1 651305      0.0000 
     17 CAQ        23.6220   15.6690   22.0920 C.ar      1 651305      0.0000 
     18 CAR        24.8440   13.1960   22.2200 C.ar      1 651305      0.0000 
     19 CAS        25.6020   11.1300   21.0950 C.3       1 651305      0.0000 
     20 NAT        25.2800    9.6780   23.1560 N.4       1 651305      0.0000 
     21 CAU        25.5450   11.8490   22.3720 C.3       1 651305      0.0000 
     22 H          21.9157   20.5403   22.1567 H         1 651305      0.0000 
     23 H          23.4894   19.7342   23.8016 H         1 651305      0.0000 
     24 H          21.1196   19.0429   20.4518 H         1 651305      0.0000 
     25 H          24.2657   17.4717   23.6998 H         1 651305      0.0000 
     26 H          21.8506   16.7616   20.3902 H         1 651305      0.0000 
     27 H          23.6794   15.6199   24.1746 H         1 651305      0.0000 
     28 H          23.7837   15.4409   20.0147 H         1 651305      0.0000 
     29 H          24.7111   13.4600   24.2903 H         1 651305      0.0000 
     30 H          24.7869   13.2485   20.1238 H         1 651305      0.0000 
     31 H          23.5169   11.0194   21.2939 H         1 651305      0.0000 
     32 H          24.2046    9.9821   20.0325 H         1 651305      0.0000 
     33 H          26.4528    9.2418   20.6183 H         1 651305      0.0000 
     34 H          27.6303   10.4983   21.0363 H         1 651305      0.0000 
     35 H          24.9533    8.4171   21.4988 H         1 651305      0.0000 
     36 H          23.4816    8.9627   22.3211 H         1 651305      0.0000 
     37 H          27.2786   10.2835   23.2880 H         1 651305      0.0000 
     38 H          27.0348    8.6129   22.7497 H         1 651305      0.0000 
     39 H          25.2270   11.3518   24.3955 H         1 651305      0.0000 
     40 H          23.8135   11.1456   23.3469 H         1 651305      0.0000 
     41 H          25.7894   11.7331   20.3043 H         1 651305      0.0000 
     42 H          25.1066    9.0399   23.9667 H         1 651305      0.0000 
     43 H          26.8451   12.3407   23.7242 H         1 651305      0.0000 
@<TRIPOS>BOND
     1   21    1 1    
     2   43    1 1    
     3    3    2 ar   
     4    4    2 ar   
     5   22    2 1    
     6    5    3 ar   
     7   23    3 1    
     8    6    4 ar   
     9   24    4 1    
    10   16    5 ar   
    11   25    5 1    
    12   16    6 ar   
    13   26    6 1    
    14    9    7 ar   
    15   17    7 ar   
    16   27    7 1    
    17   10    8 ar   
    18   17    8 ar   
    19   28    8 1    
    20   18    9 ar   
    21   29    9 1    
    22   18   10 ar   
    23   30   10 1    
    24   13   11 1    
    25   19   11 1    
    26   31   11 1    
    27   32   11 1    
    28   14   12 1    
    29   19   12 1    
    30   33   12 1    
    31   34   12 1    
    32   20   13 1    
    33   35   13 1    
    34   36   13 1    
    35   20   14 1    
    36   37   14 1    
    37   38   14 1    
    38   20   15 1    
    39   21   15 1    
    40   39   15 1    
    41   40   15 1    
    42   17   16 1    
    43   21   18 1    
    44   21   19 1    
    45   41   19 1    
    46   42   20 1    
@<TRIPOS>SUBSTRUCTURE
     1 651305      1 GROUP   
@<TRIPOS>SET

