#    Name: 2p9k_ATP_2_INTS_M
#    Modification time : Mon Mar 24 18:32:56 2014

@<TRIPOS>MOLECULE
2p9k_ATP_2_INTS_M
   72     0    12     0     0
SMALL
NO_CHARGES


@<TRIPOS>ATOM
      1 N         -20.7385   32.2000   26.5760 N.am      2 SEC2        0.0000 
      2 N         -21.1870   33.1680   25.2180 N.am     10 SEL2        0.0000 
      3 N         -20.2900   31.2320   27.9340 N.am      6 SEP2        0.0000 
      4 N         -19.9160   33.2985   26.1555 N.am      2 SEC2        0.0000 
      5 N         -18.6450   33.4290   27.0930 N.am      6 SEP2        0.0000 
      6 N         -21.8355   31.4445   22.5730 N.am      2 SEC2        0.0000 
      7 N         -22.8200   32.2360   23.4660 N.am     10 SEL2        0.0000 
      8 N         -20.8510   30.6530   21.6800 N.am      6 SEP2        0.0000 
      9 NZ        -23.7220   28.0460   23.8910 N.4       3 LYC4        0.0000 
     10 NZ        -23.3550   29.3150   24.2620 N.4      11 LYL4        0.0000 
     11 NZ        -24.0890   26.7770   23.5200 N.4       7 LYP4        0.0000 
     12 N         -23.7220   28.0460   23.8910 N.am      2 SEC2        0.0000 
     13 N         -23.3550   29.3150   24.2620 N.am     10 SEL2        0.0000 
     14 N         -24.0890   26.7770   23.5200 N.am      6 SEP2        0.0000 
     15 NZ        -22.5830   27.4845   23.8680 N.4       3 LYC4        0.0000 
     16 NZ        -21.0770   28.1920   24.2160 N.4      11 LYL4        0.0000 
     17 N         -19.9215   28.6225   23.2795 N.am      2 SEC2        0.0000 
     18 N         -21.0770   28.1920   24.2160 N.am     10 SEL2        0.0000 
     19 N         -18.7660   29.0530   22.3430 N.am      6 SEP2        0.0000 
     20 N         -20.2640   27.2900   23.5020 N.am      2 SEC2        0.0000 
     21 N         -19.4510   26.3880   22.7880 N.am      6 SEP2        0.0000 
     22 N         -21.0665   30.6400   23.2250 N.am      2 SEC2        0.0000 
     23 N         -21.2820   30.6270   24.7700 N.am     10 SEL2        0.0000 
     24 N         -20.7860   30.9295   26.3520 N.am      2 SEC2        0.0000 
     25 N         -24.4325   27.8135   28.9595 N.am      2 SEC2        0.0000 
     26 N         -24.1990   28.0650   27.4200 N.am     10 SEL2        0.0000 
     27 N         -24.6660   27.5620   30.4990 N.am      6 SEP2        0.0000 
     28 NZ        -23.3935   26.6375   24.8060 N.4       3 LYC4        0.0000 
     29 NZ        -22.6980   26.4980   26.0920 N.4      11 LYL4        0.0000 
     30 N         -23.3935   26.6375   24.8060 N.am      2 SEC2        0.0000 
     31 N         -22.6980   26.4980   26.0920 N.am     10 SEL2        0.0000 
     32 N         -23.3245   27.4620   29.4285 N.am      2 SEC2        0.0000 
     33 N         -21.9830   27.3620   28.3580 N.am     10 SEL2        0.0000 
     34 CA        -19.4860   28.6315   27.5890 C.3       4 GLC5        0.0000 
     35 CA        -20.5810   27.0820   28.3190 C.3      12 GLL5        0.0000 
     36 CA        -18.3910   30.1810   26.8590 C.3       8 GLP5        0.0000 
     37 CA        -21.2100   29.4130   29.2165 C.3       4 GLC5        0.0000 
     38 CA        -19.9050   27.6610   29.5650 C.3      12 GLL5        0.0000 
     39 CA        -22.5150   31.1650   28.8680 C.3       8 GLP5        0.0000 
     40 CA        -19.3705   29.4050   28.7615 C.3       4 GLC5        0.0000 
     41 CA        -18.8360   31.1490   27.9580 C.3       8 GLP5        0.0000 
     42 CA        -18.4085   28.7285   28.2590 C.3       4 GLC5        0.0000 
     43 CA        -18.4260   27.2760   29.6590 C.3      12 GLL5        0.0000 
     44 CA        -17.9815   29.0980   30.6935 C.3       4 GLC5        0.0000 
     45 CA        -17.5370   30.9200   31.7280 C.3       8 GLP5        0.0000 
     46 N         -17.0170   27.9550   31.7695 N.am      2 SEC2        0.0000 
     47 N         -17.7130   28.2990   30.3590 N.am     10 SEL2        0.0000 
     48 N         -16.3210   27.6110   33.1800 N.am      6 SEP2        0.0000 
     49 O         -17.0355   28.9640   29.1595 O.2       1 ALC1        0.0000 
     50 O         -17.7130   28.2990   30.3590 O.2       9 ALL1        0.0000 
     51 O         -16.3580   29.6290   27.9600 O.2       5 ALP1        0.0000 
     52 CA        -16.4715   25.2320   30.1460 C.3       4 GLC5        0.0000 
     53 CA        -18.4970   26.0010   30.4990 C.3      12 GLL5        0.0000 
     54 CA        -14.4460   24.4630   29.7930 C.3       8 GLP5        0.0000 
     55 N         -16.7870   26.7070   32.1775 N.am      2 SEC2        0.0000 
     56 N         -17.2530   25.8030   31.1750 N.am     10 SEL2        0.0000 
     57 O         -17.2775   24.4250   31.3285 O.2       1 ALC1        0.0000 
     58 O         -17.2530   25.8030   31.1750 O.2       9 ALL1        0.0000 
     59 O         -17.3020   23.0470   31.4820 O.2       5 ALP1        0.0000 
     60 CA        -21.6780   26.5810   31.4145 C.3       4 GLC5        0.0000 
     61 CA        -19.5490   26.4430   31.5170 C.3      12 GLL5        0.0000 
     62 CA        -23.8070   26.7190   31.3120 C.3       8 GLP5        0.0000 
     63 CA        -19.2005   24.3700   34.7880 C.3       4 GLC5        0.0000 
     64 CA        -20.5250   25.8370   35.7870 C.3      12 GLL5        0.0000 
     65 CA        -17.8760   22.9030   33.7890 C.3       8 GLP5        0.0000 
     66 CA        -22.1080   25.9815   32.4235 C.3       4 GLC5        0.0000 
     67 CA        -20.4090   25.2440   33.5350 C.3      12 GLL5        0.0000 
     68 CA        -22.0250   27.0453   30.1270 C.3       4 GLC5        0.0000 
     69 CA        -23.1300   24.3163   35.0950 C.3       4 GLC5        0.0000 
     70 CA        -21.0540   24.0320   33.7720 C.3      12 GLL5        0.0000 
     71 CA        -25.0090   24.7560   35.7700 C.3       8 GLP5        0.0000 
     72 CA        -19.3530   23.7316   33.8833 C.3       4 GLC5        0.0000 
@<TRIPOS>BOND
@<TRIPOS>SUBSTRUCTURE
     1 ALC1       49 GROUP        1 X    ALC  0     ROOT ALC X 1
     2 SEC2        1 GROUP        1 X    SEC  0     **** SEC X 2
     3 LYC4        9 GROUP        1 X    LYC  0     **** LYC X 4
     4 GLC5       34 GROUP        1 X    GLC  0     **** GLC X 6
     5 ALP1       51 GROUP        1 Y    ALP  0     ROOT ALP Y 8
     6 SEP2        3 GROUP        1 Y    SEP  0     **** SEP Y 9
     7 LYP4       11 GROUP        1 Y    LYP  0     **** LYP Y 11
     8 GLP5       36 GROUP        1 Y    GLP  0     **** GLP Y 13
     9 ALL1       50 GROUP        1 Z    ALL  0     ROOT ALL Z 15
    10 SEL2        2 GROUP        1 Z    SEL  0     **** SEL Z 16
    11 LYL4       10 GROUP        1 Z    LYL  0     **** LYL Z 18
    12 GLL5       35 GROUP        1 Z    GLL  0     **** GLL Z 20
@<TRIPOS>SET

