#    Name: 2p9k_ATP_2_ligand
#    Modification time : Mon Mar 24 18:32:56 2014

@<TRIPOS>MOLECULE
2p9k_ATP_2_ligand
   43    45     1     0     0
SMALL
NO_CHARGES


@<TRIPOS>ATOM
      1 PG        -22.1670   31.9720   24.7690 P.3       1 ATP602      0.0000 
      2 O1G       -21.1870   33.1680   25.2180 O.co2     1 ATP602      0.0000 
      3 O2G       -23.2420   31.8290   25.9580 O.co2     1 ATP602      0.0000 
      4 O3G       -22.8200   32.2360   23.4660 O.co2     1 ATP602      0.0000 
      5 PB        -21.9920   29.1830   24.8250 P.3       1 ATP602      0.0000 
      6 O1B       -23.3550   29.3150   24.2620 O.co2     1 ATP602      0.0000 
      7 O2B       -21.0770   28.1920   24.2160 O.co2     1 ATP602      0.0000 
      8 O3B       -21.2820   30.6270   24.7700 O.3       1 ATP602      0.0000 
      9 PA        -22.8380   27.6380   27.0230 P.3       1 ATP602      0.0000 
     10 O1A       -24.1990   28.0650   27.4200 O.co2     1 ATP602      0.0000 
     11 O2A       -22.6980   26.4980   26.0920 O.co2     1 ATP602      0.0000 
     12 O3A       -22.0990   28.9320   26.4120 O.3       1 ATP602      0.0000 
     13 O5'       -21.9830   27.3620   28.3580 O.3       1 ATP602      0.0000 
     14 C5'       -20.5810   27.0820   28.3190 C.3       1 ATP602      0.0000 
     15 C4'       -19.9050   27.6610   29.5650 C.3       1 ATP602      0.0000 
     16 O4'       -20.5480   27.1130   30.7300 O.3       1 ATP602      0.0000 
     17 C3'       -18.4260   27.2760   29.6590 C.3       1 ATP602      0.0000 
     18 O3'       -17.7130   28.2990   30.3590 O.3       1 ATP602      0.0000 
     19 C2'       -18.4970   26.0010   30.4990 C.3       1 ATP602      0.0000 
     20 O2'       -17.2530   25.8030   31.1750 O.3       1 ATP602      0.0000 
     21 C1'       -19.5490   26.4430   31.5170 C.3       1 ATP602      0.0000 
     22 N9        -20.1600   25.3000   32.2340 N.pl3     1 ATP602      0.0000 
     23 C8        -20.6150   24.1770   31.6720 C.2       1 ATP602      0.0000 
     24 N7        -21.1600   23.4060   32.6060 N.2       1 ATP602      0.0000 
     25 C5        -21.0540   24.0320   33.7720 C.ar      1 ATP602      0.0000 
     26 C6        -21.4480   23.7210   35.0680 C.ar      1 ATP602      0.0000 
     27 N6        -22.0820   22.5820   35.3260 N.pl3     1 ATP602      0.0000 
     28 N1        -21.1790   24.6370   36.0930 N.ar      1 ATP602      0.0000 
     29 C2        -20.5250   25.8370   35.7870 C.ar      1 ATP602      0.0000 
     30 N3        -20.1670   26.0990   34.5410 N.ar      1 ATP602      0.0000 
     31 C4        -20.4090   25.2440   33.5350 C.ar      1 ATP602      0.0000 
     32 H         -20.1014   27.5289   27.4416 H         1 ATP602      0.0000 
     33 H         -20.3818   26.0052   28.3018 H         1 ATP602      0.0000 
     34 H         -19.9860   28.7242   29.5516 H         1 ATP602      0.0000 
     35 H         -18.0723   27.0498   28.7136 H         1 ATP602      0.0000 
     36 H         -18.8518   25.2311   29.9421 H         1 ATP602      0.0000 
     37 H         -19.0904   27.1256   32.1957 H         1 ATP602      0.0000 
     38 H         -20.5542   23.9601   30.7196 H         1 ATP602      0.0000 
     39 H         -22.3773   22.4473   36.2719 H         1 ATP602      0.0000 
     40 H         -22.2065   21.9624   34.5510 H         1 ATP602      0.0000 
     41 H         -20.3365   26.5000   36.5650 H         1 ATP602      0.0000 
     42 H         -17.3600   28.9033   29.6447 H         1 ATP602      0.0000 
     43 H         -17.2058   24.8190   31.3471 H         1 ATP602      0.0000 
@<TRIPOS>BOND
     1    2    1 ar   
     2    3    1 ar   
     3    4    1 ar   
     4    8    1 1    
     5    6    5 ar   
     6    7    5 ar   
     7    8    5 1    
     8   12    5 1    
     9   10    9 ar   
    10   11    9 ar   
    11   12    9 1    
    12   13    9 1    
    13   14   13 1    
    14   15   14 1    
    15   32   14 1    
    16   33   14 1    
    17   16   15 1    
    18   17   15 1    
    19   34   15 1    
    20   21   16 1    
    21   18   17 1    
    22   19   17 1    
    23   35   17 1    
    24   42   18 1    
    25   20   19 1    
    26   21   19 1    
    27   36   19 1    
    28   43   20 1    
    29   22   21 1    
    30   37   21 1    
    31   23   22 1    
    32   31   22 1    
    33   24   23 2    
    34   38   23 1    
    35   25   24 1    
    36   26   25 ar   
    37   31   25 ar   
    38   27   26 1    
    39   28   26 ar   
    40   39   27 1    
    41   40   27 1    
    42   29   28 ar   
    43   30   29 ar   
    44   41   29 1    
    45   31   30 ar   
@<TRIPOS>SUBSTRUCTURE
     1 ATP602      1 GROUP   
@<TRIPOS>SET

