#    Name: 4a4l_939_1_INTS_M
#    Modification time : Tue Mar 25 04:54:39 2014

@<TRIPOS>MOLECULE
4a4l_939_1_INTS_M
   89     0    12     0     0
SMALL
NO_CHARGES


@<TRIPOS>ATOM
      1 N          11.0425   41.8560    7.0255 N.am      2 SEC2        0.0000 
      2 N          10.8510   42.6060    8.2990 N.am     10 SEL2        0.0000 
      3 N          11.2340   41.1060    5.7520 N.am      6 SEP2        0.0000 
      4 CA         12.1010   42.2995    9.6670 C.3       4 GLC5        0.0000 
      5 CA         11.0680   43.8630    8.5380 C.3      12 GLL5        0.0000 
      6 CA         13.1340   40.7360   10.7960 C.3       8 GLP5        0.0000 
      7 CA         12.9215   42.6875    8.0670 C.3       4 GLC5        0.0000 
      8 CA         14.7750   41.5120    7.5960 C.3       8 GLP5        0.0000 
      9 CA         10.1855   43.1250    6.7915 C.3       4 GLC5        0.0000 
     10 CA          9.3030   42.3870    5.0450 C.3       8 GLP5        0.0000 
     11 CA          9.2850   41.1175   11.9890 C.3       4 GLC5        0.0000 
     12 CA          9.6380   42.3820   10.3300 C.3      12 GLL5        0.0000 
     13 CA          8.9320   39.8530   13.6480 C.3       8 GLP5        0.0000 
     14 CA         11.3365   40.5885    7.9985 C.3       4 GLC5        0.0000 
     15 CA         10.1180   41.8190    9.2090 C.3      12 GLL5        0.0000 
     16 CA         12.5550   39.3580    6.7880 C.3       8 GLP5        0.0000 
     17 CA          9.1650   41.4540    7.4285 C.3       4 GLC5        0.0000 
     18 CA          8.2120   41.0890    5.6480 C.3       8 GLP5        0.0000 
     19 O          11.7850   44.2575    6.0930 O.2       1 ALC1        0.0000 
     20 O          11.7960   44.6080    7.5960 O.2       9 ALL1        0.0000 
     21 O          11.7740   43.9070    4.5900 O.2       5 ALP1        0.0000 
     22 CA         10.6100   44.8640   13.5180 C.3       4 GLC5        0.0000 
     23 CA          9.3730   44.4990   11.7950 C.3      12 GLL5        0.0000 
     24 CA         11.8470   45.2290   15.2410 C.3       8 GLP5        0.0000 
     25 CA          8.6715   41.9380   13.1135 C.3       4 GLC5        0.0000 
     26 CA          8.4110   44.0230   12.5790 C.3      12 GLL5        0.0000 
     27 O           5.4180   46.4245   15.5965 O.2       1 ALC1        0.0000 
     28 O           6.6430   46.0910   15.1990 O.2       9 ALL1        0.0000 
     29 O           4.1930   46.7580   15.9940 O.2       5 ALP1        0.0000 
     30 N           6.7300   43.7275   16.4305 N.am      2 SEC2        0.0000 
     31 N           6.8630   43.8470   15.1310 N.am     10 SEL2        0.0000 
     32 N           6.5970   43.6080   17.7300 N.am      6 SEP2        0.0000 
     33 CA         13.6995   45.3700    8.8785 C.3       4 GLC5        0.0000 
     34 CA         12.0480   46.0210    7.6180 C.3      12 GLL5        0.0000 
     35 CA         15.3510   44.7190   10.1390 C.3       8 GLP5        0.0000 
     36 CA         13.8545   47.9840    9.1755 C.3       4 GLC5        0.0000 
     37 CA         12.7110   48.8030    7.5670 C.3      12 GLL5        0.0000 
     38 CA         14.9980   47.1650   10.7840 C.3       8 GLP5        0.0000 
     39 CA         12.5835   46.1220    2.7525 C.3       4 GLC5        0.0000 
     40 CA         13.8890   45.9950    4.4190 C.3      12 GLL5        0.0000 
     41 CA         11.2780   46.2490    1.0860 C.3       8 GLP5        0.0000 
     42 CA         12.1365   46.9160    4.4310 C.3       4 GLC5        0.0000 
     43 CA         10.3840   47.8370    4.4430 C.3       8 GLP5        0.0000 
     44 CA         15.5935   42.5695    5.2495 C.3       4 GLC5        0.0000 
     45 CA         15.3100   44.3680    4.9800 C.3      12 GLL5        0.0000 
     46 CA         15.8770   40.7710    5.5190 C.3       8 GLP5        0.0000 
     47 CA         12.8895   46.9070   11.2705 C.3       4 GLC5        0.0000 
     48 CA         10.7810   46.6490   11.7570 C.3      12 GLL5        0.0000 
     49 CA         11.3140   45.9390   13.4990 C.3       4 GLC5        0.0000 
     50 CA          9.1450   46.3375   10.5630 C.3       4 GLC5        0.0000 
     51 CA          7.5090   46.0260    9.3690 C.3       8 GLP5        0.0000 
     52 CA          9.6960   48.5390    6.3740 C.3       4 GLC5        0.0000 
     53 CA          9.0080   49.2410    8.3050 C.3      12 GLL5        0.0000 
     54 CA          6.0205   50.4925    9.1195 C.3       4 GLC5        0.0000 
     55 CA          8.1160   50.0890    9.2430 C.3      12 GLL5        0.0000 
     56 CA          3.9250   50.8960    8.9960 C.3       8 GLP5        0.0000 
     57 OD1         8.4700   51.6005    7.5855 O.co2     3 ASC3        0.0000 
     58 OD1         8.6480   51.4830    9.4130 O.co2    11 ASL3        0.0000 
     59 OD1         8.2920   51.7180    5.7580 O.co2     7 ASP3        0.0000 
     60 OD1         8.8250   52.2895    8.3545 O.co2     3 ASC3        0.0000 
     61 OD1         9.0020   53.0960    7.2960 O.co2     7 ASP3        0.0000 
     62 O           8.8250   52.2895    8.3545 O.2       1 ALC1        0.0000 
     63 O           8.6480   51.4830    9.4130 O.2       9 ALL1        0.0000 
     64 O           9.0020   53.0960    7.2960 O.2       5 ALP1        0.0000 
     65 CA          6.6410   53.6100    9.5645 C.3       4 GLC5        0.0000 
     66 CA          7.7460   52.2580   10.2880 C.3      12 GLL5        0.0000 
     67 CA          5.5360   54.9620    8.8410 C.3       8 GLP5        0.0000 
     68 CA          5.8355   51.5770    9.6420 C.3       4 GLC5        0.0000 
     69 CA          8.3825   40.4933    9.7598 C.3       4 GLC5        0.0000 
     70 CA          6.8870   38.8860    9.7500 C.3       8 GLP5        0.0000 
     71 CA         11.5384   41.5966   10.3144 C.3       4 GLC5        0.0000 
     72 CA         10.2312   45.3918   14.3812 C.3       4 GLC5        0.0000 
     73 CA          8.2040   45.0390   13.6120 C.3      12 GLL5        0.0000 
     74 CA         11.5145   47.0263    5.9130 C.3       4 GLC5        0.0000 
     75 CA         15.0163   46.8588    8.0715 C.3       4 GLC5        0.0000 
     76 CA         13.2420   46.4100    7.1480 C.3      12 GLL5        0.0000 
     77 CA         16.6170   46.5710    9.0070 C.3       8 GLP5        0.0000 
     78 CA         13.1680   49.4065    5.7438 C.3       4 GLC5        0.0000 
     79 CA         13.5890   47.8830    7.1240 C.3      12 GLL5        0.0000 
     80 CA         13.1860   50.4700    4.1420 C.3       8 GLP5        0.0000 
     81 CA         10.8035   47.7795    6.2730 C.3       4 GLC5        0.0000 
     82 CA         11.3810   48.3940    8.0920 C.3      12 GLL5        0.0000 
     83 CA         15.9495   46.2917    7.2317 C.3       4 GLC5        0.0000 
     84 CA         14.7760   45.5580    5.3940 C.3      12 GLL5        0.0000 
     85 CA         14.0276   44.1531    3.6346 C.3       4 GLC5        0.0000 
     86 CA         13.2340   43.2340    2.3260 C.3       8 GLP5        0.0000 
     87 CA          7.3810   49.3190    7.4845 C.3       4 GLC5        0.0000 
     88 CA          6.2000   48.9730    6.1950 C.3       8 GLP5        0.0000 
     89 CA          8.0355   47.8455    9.0715 C.3       4 GLC5        0.0000 
@<TRIPOS>BOND
@<TRIPOS>SUBSTRUCTURE
     1 ALC1       19 GROUP        1 X    ALC  0     ROOT ALC X 1
     2 SEC2        1 GROUP        1 X    SEC  0     **** SEC X 2
     3 ASC3       57 GROUP        1 X    ASC  0     **** ASC X 3
     4 GLC5        4 GROUP        1 X    GLC  0     **** GLC X 6
     5 ALP1       21 GROUP        1 Y    ALP  0     ROOT ALP Y 8
     6 SEP2        3 GROUP        1 Y    SEP  0     **** SEP Y 9
     7 ASP3       59 GROUP        1 Y    ASP  0     **** ASP Y 10
     8 GLP5        6 GROUP        1 Y    GLP  0     **** GLP Y 13
     9 ALL1       20 GROUP        1 Z    ALL  0     ROOT ALL Z 15
    10 SEL2        2 GROUP        1 Z    SEL  0     **** SEL Z 16
    11 ASL3       58 GROUP        1 Z    ASL  0     **** ASL Z 17
    12 GLL5        5 GROUP        1 Z    GLL  0     **** GLL Z 20
@<TRIPOS>SET

