#    Name: 4a4l_939_1_ligand
#    Modification time : Tue Mar 25 04:54:39 2014

@<TRIPOS>MOLECULE
4a4l_939_1_ligand
   59    62     1     0     0
SMALL
NO_CHARGES


@<TRIPOS>ATOM
      1 N1         10.8510   42.6060    8.2990 N.ar      1 9391331     0.0000 
      2 C2         11.0680   43.8630    8.5380 C.ar      1 9391331     0.0000 
      3 N3         10.5730   44.4700    9.7170 N.ar      1 9391331     0.0000 
      4 C4          9.8970   43.8090   10.5830 C.ar      1 9391331     0.0000 
      5 C5          9.6380   42.3820   10.3300 C.ar      1 9391331     0.0000 
      6 C6         10.1180   41.8190    9.2090 C.ar      1 9391331     0.0000 
      7 N7         11.7960   44.6080    7.5960 N.pl3     1 9391331     0.0000 
      8 C8          9.3730   44.4990   11.7950 C.2       1 9391331     0.0000 
      9 N9          9.7750   45.7710   12.3000 N.pl3     1 9391331     0.0000 
     10 C10         9.0270   46.0700   13.4310 C.2       1 9391331     0.0000 
     11 C11         8.2040   45.0390   13.6120 C.2       1 9391331     0.0000 
     12 C12         8.4110   44.0230   12.5790 C.2       1 9391331     0.0000 
     13 C13         7.2160   44.9430   14.6920 C.2       1 9391331     0.0000 
     14 N14         6.6430   46.0910   15.1990 N.am      1 9391331     0.0000 
     15 O15         6.8630   43.8470   15.1310 O.2       1 9391331     0.0000 
     16 C16        12.0480   46.0210    7.6180 C.ar      1 9391331     0.0000 
     17 C17        13.2420   46.4100    7.1480 C.ar      1 9391331     0.0000 
     18 C18        13.5890   47.8830    7.1240 C.ar      1 9391331     0.0000 
     19 C19        12.7110   48.8030    7.5670 C.ar      1 9391331     0.0000 
     20 C20        11.3810   48.3940    8.0920 C.ar      1 9391331     0.0000 
     21 C21        11.0650   47.0500    8.1140 C.ar      1 9391331     0.0000 
     22 O22        14.1150   45.3560    6.6810 O.3       1 9391331     0.0000 
     23 C23        14.7760   45.5580    5.3940 C.3       1 9391331     0.0000 
     24 F24        15.7880   46.4670    5.5190 F         1 9391331     0.0000 
     25 F25        13.8890   45.9950    4.4190 F         1 9391331     0.0000 
     26 F26        15.3100   44.3680    4.9800 F         1 9391331     0.0000 
     27 C27        10.7810   46.6490   11.7570 C.3       1 9391331     0.0000 
     28 N28        10.4600   49.4150    8.5480 N.3       1 9391331     0.0000 
     29 C29         9.0080   49.2410    8.3050 C.3       1 9391331     0.0000 
     30 C30         8.1160   50.0890    9.2430 C.3       1 9391331     0.0000 
     31 N31         8.6480   51.4830    9.4130 N.4       1 9391331     0.0000 
     32 C32         9.9730   51.4140   10.0520 C.3       1 9391331     0.0000 
     33 C33        11.0010   50.6370    9.1780 C.3       1 9391331     0.0000 
     34 C34         7.7460   52.2580   10.2880 C.3       1 9391331     0.0000 
     35 H           9.0966   41.8795   11.0307 H         1 9391331     0.0000 
     36 H           9.9678   40.8245    8.9897 H         1 9391331     0.0000 
     37 H          12.2130   44.0748    6.7672 H         1 9391331     0.0000 
     38 H           9.1115   46.8596   13.9470 H         1 9391331     0.0000 
     39 H           7.9246   43.2289   12.5477 H         1 9391331     0.0000 
     40 H           6.9491   46.9520   14.7928 H         1 9391331     0.0000 
     41 H           5.9714   45.9623   15.9286 H         1 9391331     0.0000 
     42 H          14.5158   48.1076    6.7547 H         1 9391331     0.0000 
     43 H          12.9036   49.8115    7.5679 H         1 9391331     0.0000 
     44 H          10.1756   46.6961    8.4573 H         1 9391331     0.0000 
     45 H           8.7216   48.1826    8.4339 H         1 9391331     0.0000 
     46 H           8.7577   49.5137    7.2649 H         1 9391331     0.0000 
     47 H           8.0633   49.5860   10.2133 H         1 9391331     0.0000 
     48 H           7.1071   50.1208    8.8206 H         1 9391331     0.0000 
     49 H           8.7265   51.9526    8.4570 H         1 9391331     0.0000 
     50 H           9.9137   50.9067   11.0228 H         1 9391331     0.0000 
     51 H          10.3777   52.4190   10.2241 H         1 9391331     0.0000 
     52 H          11.3760   51.3370    8.4078 H         1 9391331     0.0000 
     53 H          11.8647   50.3906    9.8239 H         1 9391331     0.0000 
     54 H          11.6812   46.2141   11.7356 H         1 9391331     0.0000 
     55 H          10.5665   46.9250   10.8201 H         1 9391331     0.0000 
     56 H          10.8729   47.4866   12.2956 H         1 9391331     0.0000 
     57 H           7.6651   51.8465   11.1958 H         1 9391331     0.0000 
     58 H           8.0700   53.1950   10.4187 H         1 9391331     0.0000 
     59 H           6.8222   52.3174    9.9098 H         1 9391331     0.0000 
@<TRIPOS>BOND
     1    2    1 ar   
     2    6    1 ar   
     3    3    2 ar   
     4    7    2 1    
     5    4    3 ar   
     6    5    4 ar   
     7    8    4 1    
     8    6    5 ar   
     9   35    5 1    
    10   36    6 1    
    11   16    7 1    
    12   37    7 1    
    13    9    8 1    
    14   12    8 2    
    15   10    9 1    
    16   27    9 1    
    17   11   10 2    
    18   38   10 1    
    19   12   11 1    
    20   13   11 1    
    21   39   12 1    
    22   14   13 am   
    23   15   13 2    
    24   40   14 1    
    25   41   14 1    
    26   17   16 ar   
    27   21   16 ar   
    28   18   17 ar   
    29   22   17 1    
    30   19   18 ar   
    31   42   18 1    
    32   20   19 ar   
    33   43   19 1    
    34   21   20 ar   
    35   28   20 1    
    36   44   21 1    
    37   23   22 1    
    38   24   23 1    
    39   25   23 1    
    40   26   23 1    
    41   54   27 1    
    42   55   27 1    
    43   56   27 1    
    44   29   28 1    
    45   33   28 1    
    46   30   29 1    
    47   45   29 1    
    48   46   29 1    
    49   31   30 1    
    50   47   30 1    
    51   48   30 1    
    52   32   31 1    
    53   34   31 1    
    54   49   31 1    
    55   33   32 1    
    56   50   32 1    
    57   51   32 1    
    58   52   33 1    
    59   53   33 1    
    60   57   34 1    
    61   58   34 1    
    62   59   34 1    
@<TRIPOS>SUBSTRUCTURE
     1 9391331     1 GROUP   
@<TRIPOS>SET

