#    Name: 3nwe_662_1_INTS_M
#    Modification time : Tue Mar 25 02:48:19 2014

@<TRIPOS>MOLECULE
3nwe_662_1_INTS_M
  125     0    12     0     0
SMALL
NO_CHARGES


@<TRIPOS>ATOM
      1 CA         -3.4385    4.8870   27.0350 C.3       4 GLC5        0.0000 
      2 CA         -4.9690    5.4290   25.8140 C.3      12 GLL5        0.0000 
      3 CA         -1.9080    4.3450   28.2560 C.3       8 GLP5        0.0000 
      4 CA         -4.5620    6.2840   27.7425 C.3       4 GLC5        0.0000 
      5 CA         -4.1550    7.1390   29.6710 C.3       8 GLP5        0.0000 
      6 CA         -6.4570    7.6475   24.0920 C.3       4 GLC5        0.0000 
      7 CA         -5.2290    5.9230   24.4400 C.3      12 GLL5        0.0000 
      8 CA         -7.6850    9.3720   23.7440 C.3       8 GLP5        0.0000 
      9 CA         -0.2760   15.3465   26.0955 C.3       4 GLC5        0.0000 
     10 CA         -0.5370   13.4550   25.0020 C.3      12 GLL5        0.0000 
     11 CA         -0.0150   17.2380   27.1890 C.3       8 GLP5        0.0000 
     12 CA         -1.9585    5.2270   23.2990 C.3       4 GLC5        0.0000 
     13 CA         -3.8510    6.1760   23.9190 C.3      12 GLL5        0.0000 
     14 CA         -0.0660    4.2780   22.6790 C.3       8 GLP5        0.0000 
     15 O          -5.4320    3.8325   23.7520 O.2       1 ALC1        0.0000 
     16 O          -5.9680    5.0000   23.7460 O.2       9 ALL1        0.0000 
     17 O          -4.8960    2.6650   23.7580 O.2       5 ALP1        0.0000 
     18 CA         -2.8645    8.4410   22.1805 C.3       4 GLC5        0.0000 
     19 CA         -3.8160    7.0050   22.6590 C.3      12 GLL5        0.0000 
     20 CA         -1.9130    9.8770   21.7020 C.3       8 GLP5        0.0000 
     21 CA         -2.1745    6.7215   21.6355 C.3       4 GLC5        0.0000 
     22 CA         -0.5330    6.4380   20.6120 C.3       8 GLP5        0.0000 
     23 CA         -5.2975    8.6195   22.9280 C.3       4 GLC5        0.0000 
     24 CA         -6.7790   10.2340   23.1970 C.3       8 GLP5        0.0000 
     25 CA         -2.5825    5.6095   26.6885 C.3       4 GLC5        0.0000 
     26 CA         -3.2570    6.8740   25.1210 C.3      12 GLL5        0.0000 
     27 CA         -0.9440   16.1105   25.3995 C.3       4 GLC5        0.0000 
     28 CA         -0.5540   14.6510   24.3020 C.3      12 GLL5        0.0000 
     29 CA         -1.3340   17.5700   26.4970 C.3       8 GLP5        0.0000 
     30 CA         -8.4185    3.3315   27.8915 C.3       4 GLC5        0.0000 
     31 CA         -7.8920    4.4630   29.6010 C.3      12 GLL5        0.0000 
     32 CA         -8.9450    2.2000   26.1820 C.3       8 GLP5        0.0000 
     33 CA         -9.0745    2.6090   29.7380 C.3       4 GLC5        0.0000 
     34 CA        -10.2570    0.7550   29.8750 C.3       8 GLP5        0.0000 
     35 CA         -7.6250    3.5360   31.4335 C.3       4 GLC5        0.0000 
     36 CA         -7.3580    2.6090   33.2660 C.3       8 GLP5        0.0000 
     37 CA         -6.7570    5.5525   30.6790 C.3       4 GLC5        0.0000 
     38 CA         -5.6220    6.6420   31.7570 C.3       8 GLP5        0.0000 
     39 N          -6.3710    2.2595   26.9305 N.am      2 SEC2        0.0000 
     40 N          -5.9840    3.3830   27.9130 N.am     10 SEL2        0.0000 
     41 N          -6.7580    1.1360   25.9480 N.am      6 SEP2        0.0000 
     42 Zn          2.8490   12.4115   26.5325 Zn        3 ZIC7        0.0000 
     43 Zn          3.0230   13.1330   25.8020 Zn       11 ZIL7        0.0000 
     44 Zn          2.6750   11.6900   27.2630 Zn        7 ZIP7        0.0000 
     45 N           3.0815   14.0690   26.8455 N.am      2 SEC2        0.0000 
     46 N           3.0230   13.1330   25.8020 N.am     10 SEL2        0.0000 
     47 N           3.1400   15.0050   27.8890 N.am      6 SEP2        0.0000 
     48 O           3.7740   13.2150   24.8290 O.2       1 ALC1        0.0000 
     49 O           3.0230   13.1330   25.8020 O.2       9 ALL1        0.0000 
     50 O           4.5250   13.2970   23.8560 O.2       5 ALP1        0.0000 
     51 N          -8.1375    2.2935   30.7270 N.am      2 SEC2        0.0000 
     52 N          -7.4680    3.1740   29.7570 N.am     10 SEL2        0.0000 
     53 N          -8.8070    1.4130   31.6970 N.am      6 SEP2        0.0000 
     54 CA          3.3570   16.1220   24.6020 C.3       4 GLC5        0.0000 
     55 CA          1.8030   14.8250   24.5860 C.3      12 GLL5        0.0000 
     56 CA          4.9110   17.4190   24.6180 C.3       8 GLP5        0.0000 
     57 CA         -5.4185    1.0670   29.9655 C.3       4 GLC5        0.0000 
     58 CA         -6.5230    2.6530   28.9280 C.3      12 GLL5        0.0000 
     59 CA         -4.3140   -0.5190   31.0030 C.3       8 GLP5        0.0000 
     60 CA         -5.5265    1.5250   27.6800 C.3       4 GLC5        0.0000 
     61 CA         -4.5300    0.3970   26.4320 C.3       8 GLP5        0.0000 
     62 CA         -7.7340    2.4265   27.5550 C.3       4 GLC5        0.0000 
     63 CA         -8.3900    1.7040   29.4015 C.3       4 GLC5        0.0000 
     64 CA         -6.9405    2.6310   31.0970 C.3       4 GLC5        0.0000 
     65 CA         -4.8505    9.7660   24.5860 C.3       4 GLC5        0.0000 
     66 CA         -3.5990    8.3580   25.1970 C.3      12 GLL5        0.0000 
     67 CA         -6.1020   11.1740   23.9750 C.3       8 GLP5        0.0000 
     68 CA          0.6875   17.4325   25.4335 C.3       4 GLC5        0.0000 
     69 CA          1.3900   17.6270   23.6780 C.3      12 GLL5        0.0000 
     70 CA          3.1505   17.5230   24.1480 C.3       4 GLC5        0.0000 
     71 O          -8.5140    4.3615   31.7605 O.2       1 ALC1        0.0000 
     72 O          -8.9040    4.9490   30.4650 O.2       9 ALL1        0.0000 
     73 O          -8.1240    3.7740   33.0560 O.2       5 ALP1        0.0000 
     74 O         -10.1820    4.4615   31.3850 O.2       1 ALC1        0.0000 
     75 O         -11.4600    3.9740   32.3050 O.2       5 ALP1        0.0000 
     76 Zn          1.7240   11.7480   26.7600 Zn        3 ZIC7        0.0000 
     77 Zn          0.7730   11.8060   26.2570 Zn       11 ZIL7        0.0000 
     78 N          -0.0090   11.9185   27.5025 N.am      2 SEC2        0.0000 
     79 N           0.7730   11.8060   26.2570 N.am     10 SEL2        0.0000 
     80 N          -0.7910   12.0310   28.7480 N.am      6 SEP2        0.0000 
     81 CA          3.3155   19.1255   23.0070 C.3       4 GLC5        0.0000 
     82 CA          1.4000   18.8210   22.9370 C.3      12 GLL5        0.0000 
     83 CA          5.2310   19.4300   23.0770 C.3       8 GLP5        0.0000 
     84 CA         -1.9940   11.0075   23.9575 C.3       4 GLC5        0.0000 
     85 CA         -3.0220   10.7130   25.8020 C.3      12 GLL5        0.0000 
     86 CA         -0.9660   11.3020   22.1130 C.3       8 GLP5        0.0000 
     87 CA         -2.2315   12.0350   27.1930 C.3       4 GLC5        0.0000 
     88 CA         -1.4410   13.3570   28.5840 C.3       8 GLP5        0.0000 
     89 CA         -7.5780    6.4465   31.0275 C.3       4 GLC5        0.0000 
     90 CA         -9.5340    6.2510   30.2980 C.3      12 GLL5        0.0000 
     91 CA        -10.9850    4.6100   28.0695 C.3       4 GLC5        0.0000 
     92 CA        -10.7300    6.1150   29.3660 C.3      12 GLL5        0.0000 
     93 CA        -11.2400    3.1050   26.7730 C.3       8 GLP5        0.0000 
     94 CA        -11.1580    8.5265   30.9665 C.3       4 GLC5        0.0000 
     95 CA        -11.6490    7.3220   29.5470 C.3      12 GLL5        0.0000 
     96 CA        -10.6670    9.7310   32.3860 C.3       8 GLP5        0.0000 
     97 CA         -6.8450    4.6060   25.3070 C.3       4 GLC5        0.0000 
     98 CA         -8.5910    3.5360   25.4870 C.3       8 GLP5        0.0000 
     99 CA         -7.7248    4.2465   26.8220 C.3       4 GLC5        0.0000 
    100 CA         -6.3840    4.6690   27.7500 C.3      12 GLL5        0.0000 
    101 CA         -5.5068    6.0480   28.9140 C.3       4 GLC5        0.0000 
    102 CA         -0.7558   12.6775   23.3825 C.3       4 GLC5        0.0000 
    103 CA         -0.6908   13.2812   26.9240 C.3       4 GLC5        0.0000 
    104 CA          1.4647   12.6107   23.6510 C.3       4 GLC5        0.0000 
    105 CA          0.6560   12.9560   25.5260 C.3      12 GLL5        0.0000 
    106 CA          1.6820   11.9300   21.8910 C.3       8 GLP5        0.0000 
    107 CA         -3.3505    7.9510   27.1720 C.3       4 GLC5        0.0000 
    108 CA         -3.2730    8.2860   29.1850 C.3       8 GLP5        0.0000 
    109 CA          1.4385   13.5057   23.1075 C.3       4 GLC5        0.0000 
    110 CA          0.5870   15.3380   24.0620 C.3      12 GLL5        0.0000 
    111 CA          0.5945   16.0100   25.8453 C.3       4 GLC5        0.0000 
    112 CA          1.8390   13.6270   25.2960 C.3      12 GLL5        0.0000 
    113 CA         -0.5983   17.1073   24.6320 C.3       4 GLC5        0.0000 
    114 CA          0.5650   16.5640   23.3150 C.3      12 GLL5        0.0000 
    115 CA         -2.5228    9.3432   23.5628 C.3       4 GLC5        0.0000 
    116 CA         -2.6660    9.2610   25.6500 C.3      12 GLL5        0.0000 
    117 CA         -3.0585    9.1365   27.4555 C.3       4 GLC5        0.0000 
    118 CA         -4.5990   10.6375   25.5375 C.3       4 GLC5        0.0000 
    119 CA         -6.3540   11.2880   25.3490 C.3       8 GLP5        0.0000 
    120 CA          1.7195   19.5860   24.7342 C.3       4 GLC5        0.0000 
    121 CA          2.0440   20.9480   26.1610 C.3       8 GLP5        0.0000 
    122 CA         -9.6975    7.8765   30.8325 C.3       4 GLC5        0.0000 
    123 CA         -9.2630    9.5700   31.8330 C.3       8 GLP5        0.0000 
    124 CA         -9.7967    7.9878   28.4322 C.3       4 GLC5        0.0000 
    125 CA         -8.7030    9.2230   27.1750 C.3       8 GLP5        0.0000 
@<TRIPOS>BOND
@<TRIPOS>SUBSTRUCTURE
     1 ALC1       15 GROUP        1 X    ALC  0     ROOT ALC X 1
     2 SEC2       39 GROUP        1 X    SEC  0     **** SEC X 2
     3 ZIC7       42 GROUP        1 X    ZIC  0     **** ZIC X 5
     4 GLC5        1 GROUP        1 X    GLC  0     **** GLC X 6
     5 ALP1       17 GROUP        1 Y    ALP  0     ROOT ALP Y 8
     6 SEP2       41 GROUP        1 Y    SEP  0     **** SEP Y 9
     7 ZIP7       44 GROUP        1 Y    ZIP  0     **** ZIP Y 12
     8 GLP5        3 GROUP        1 Y    GLP  0     **** GLP Y 13
     9 ALL1       16 GROUP        1 Z    ALL  0     ROOT ALL Z 15
    10 SEL2       40 GROUP        1 Z    SEL  0     **** SEL Z 16
    11 ZIL7       43 GROUP        1 Z    ZIL  0     **** ZIL Z 19
    12 GLL5        2 GROUP        1 Z    GLL  0     **** GLL Z 20
@<TRIPOS>SET

