#    Name: 3nwe_662_1_ligand
#    Modification time : Tue Mar 25 02:48:19 2014

@<TRIPOS>MOLECULE
3nwe_662_1_ligand
   71    75     1     0     0
SMALL
NO_CHARGES


@<TRIPOS>ATOM
      1 N1         -6.0030    5.6090   26.8120 N.pl3     1 662227      0.0000 
      2 C2         -4.9690    5.4290   25.8140 C.3       1 662227      0.0000 
      3 C3         -5.2290    5.9230   24.4400 C.3       1 662227      0.0000 
      4 C4         -6.3840    4.6690   27.7500 C.ar      1 662227      0.0000 
      5 C5         -7.3330    5.2450   28.5640 C.ar      1 662227      0.0000 
      6 N6         -7.5000    6.5570   28.1260 N.2       1 662227      0.0000 
      7 C7         -0.5370   13.4550   25.0020 C.ar      1 662227      0.0000 
      8 C8         -3.8510    6.1760   23.9190 C.3       1 662227      0.0000 
      9 C9         -6.6630    6.7590   27.0720 C.2       1 662227      0.0000 
     10 O10        -3.7950    6.2210   26.2680 O.3       1 662227      0.0000 
     11 O11        -5.9680    5.0000   23.7460 O.3       1 662227      0.0000 
     12 C12         1.8390   13.6270   25.2960 C.ar      1 662227      0.0000 
     13 C13         0.6560   12.9560   25.5260 C.ar      1 662227      0.0000 
     14 C14        -3.8160    7.0050   22.6590 C.3       1 662227      0.0000 
     15 C15        -3.2570    6.8740   25.1210 C.3       1 662227      0.0000 
     16 C16        -0.5540   14.6510   24.3020 C.ar      1 662227      0.0000 
     17 C17        -1.8440   12.7910   25.1910 C.2       1 662227      0.0000 
     18 C18        -7.8920    4.4630   29.6010 C.ar      1 662227      0.0000 
     19 N19        -5.9840    3.3830   27.9130 N.ar      1 662227      0.0000 
     20 O20         3.0230   13.1330   25.8020 O.3       1 662227      0.0000 
     21 C21         0.5870   15.3380   24.0620 C.ar      1 662227      0.0000 
     22 N22        -7.4680    3.1740   29.7570 N.ar      1 662227      0.0000 
     23 C23         1.8030   14.8250   24.5860 C.ar      1 662227      0.0000 
     24 C24        -6.5230    2.6530   28.9280 C.ar      1 662227      0.0000 
     25 C25         0.5650   16.5640   23.3150 C.ar      1 662227      0.0000 
     26 C26        -3.5990    8.3580   25.1970 C.2       1 662227      0.0000 
     27 O27        -2.9190   13.3130   24.9230 O.2       1 662227      0.0000 
     28 N28        -1.8000   11.4610   25.6590 N.am      1 662227      0.0000 
     29 C29        -2.6660    9.2610   25.6500 C.2       1 662227      0.0000 
     30 C30         1.3900   17.6270   23.6780 C.ar      1 662227      0.0000 
     31 C31        -0.2900   16.7250   22.2190 C.ar      1 662227      0.0000 
     32 N32        -8.9040    4.9490   30.4650 N.pl3     1 662227      0.0000 
     33 O33         0.7730   11.8060   26.2570 O.3       1 662227      0.0000 
     34 C34         0.5430   18.9600   21.8470 C.ar      1 662227      0.0000 
     35 C35        -0.2820   17.9150   21.4810 C.ar      1 662227      0.0000 
     36 C36         1.4000   18.8210   22.9370 C.ar      1 662227      0.0000 
     37 F37         0.5460   20.0640   21.1080 F         1 662227      0.0000 
     38 C38        -3.0220   10.7130   25.8020 C.3       1 662227      0.0000 
     39 C39        -9.5340    6.2510   30.2980 C.3       1 662227      0.0000 
     40 C40       -10.7300    6.1150   29.3660 C.3       1 662227      0.0000 
     41 C41       -11.6490    7.3220   29.5470 C.3       1 662227      0.0000 
     42 H          -4.6413    4.3955   25.7687 H         1 662227      0.0000 
     43 H          -5.7205    6.8868   24.5467 H         1 662227      0.0000 
     44 H          -3.3548    5.2412   23.8020 H         1 662227      0.0000 
     45 H          -6.5615    7.5909   26.5919 H         1 662227      0.0000 
     46 H          -2.1869    6.7604   25.0953 H         1 662227      0.0000 
     47 H          -1.4696   15.0162   23.9600 H         1 662227      0.0000 
     48 H           2.6729   15.3600   24.4312 H         1 662227      0.0000 
     49 H          -6.2019    1.6651   29.0743 H         1 662227      0.0000 
     50 H          -4.5319    8.6133   24.8985 H         1 662227      0.0000 
     51 H          -0.9168   11.0212   25.8975 H         1 662227      0.0000 
     52 H          -1.7148    9.0000   25.8982 H         1 662227      0.0000 
     53 H           2.0048   17.5410   24.5028 H         1 662227      0.0000 
     54 H          -0.9290   15.9641   21.9533 H         1 662227      0.0000 
     55 H          -9.2218    4.3628   31.2575 H         1 662227      0.0000 
     56 H          -0.8998   18.0031   20.6597 H         1 662227      0.0000 
     57 H           2.0332   19.5789   23.1999 H         1 662227      0.0000 
     58 H          -3.7417   10.9796   25.0341 H         1 662227      0.0000 
     59 H          -3.4666   10.8642   26.7808 H         1 662227      0.0000 
     60 H          -8.8384    6.9704   29.8627 H         1 662227      0.0000 
     61 H          -9.8854    6.6423   31.2542 H         1 662227      0.0000 
     62 H         -11.2749    5.2107   29.6055 H         1 662227      0.0000 
     63 H         -10.3870    6.0765   28.3398 H         1 662227      0.0000 
     64 H          -2.8808    7.1514   22.3366 H         1 662227      0.0000 
     65 H          -4.3182    6.5680   21.9128 H         1 662227      0.0000 
     66 H          -4.2231    7.9079   22.7970 H         1 662227      0.0000 
     67 H         -11.1807    8.1802   29.3369 H         1 662227      0.0000 
     68 H         -12.4501    7.2716   28.9506 H         1 662227      0.0000 
     69 H         -11.9865    7.3944   30.4855 H         1 662227      0.0000 
     70 H          -5.7771    4.1264   24.1936 H         1 662227      0.0000 
     71 H           3.4723   12.6918   25.0251 H         1 662227      0.0000 
@<TRIPOS>BOND
     1    2    1 1    
     2    4    1 1    
     3    9    1 1    
     4    3    2 1    
     5   10    2 1    
     6   42    2 1    
     7    8    3 1    
     8   11    3 1    
     9   43    3 1    
    10    5    4 ar   
    11   19    4 ar   
    12    6    5 1    
    13   18    5 ar   
    14    9    6 2    
    15   13    7 ar   
    16   16    7 ar   
    17   17    7 1    
    18   14    8 1    
    19   15    8 1    
    20   44    8 1    
    21   45    9 1    
    22   15   10 1    
    23   70   11 1    
    24   13   12 ar   
    25   20   12 1    
    26   23   12 ar   
    27   33   13 1    
    28   64   14 1    
    29   65   14 1    
    30   66   14 1    
    31   26   15 1    
    32   46   15 1    
    33   21   16 ar   
    34   47   16 1    
    35   27   17 2    
    36   28   17 am   
    37   22   18 ar   
    38   32   18 1    
    39   24   19 ar   
    40   71   20 1    
    41   23   21 ar   
    42   25   21 1    
    43   24   22 ar   
    44   48   23 1    
    45   49   24 1    
    46   30   25 ar   
    47   31   25 ar   
    48   29   26 2    
    49   50   26 1    
    50   38   28 1    
    51   51   28 1    
    52   38   29 1    
    53   52   29 1    
    54   36   30 ar   
    55   53   30 1    
    56   35   31 ar   
    57   54   31 1    
    58   39   32 1    
    59   55   32 1    
    60   35   34 ar   
    61   36   34 ar   
    62   37   34 1    
    63   56   35 1    
    64   57   36 1    
    65   58   38 1    
    66   59   38 1    
    67   40   39 1    
    68   60   39 1    
    69   61   39 1    
    70   41   40 1    
    71   62   40 1    
    72   63   40 1    
    73   67   41 1    
    74   68   41 1    
    75   69   41 1    
@<TRIPOS>SUBSTRUCTURE
     1 662227      1 GROUP   
@<TRIPOS>SET

