#    Name: 2vht_ATP_3_INTS_M
#    Modification time : Tue Mar 25 01:43:35 2014

@<TRIPOS>MOLECULE
2vht_ATP_3_INTS_M
   37     0     9     0     0
SMALL
NO_CHARGES


@<TRIPOS>ATOM
      1 NZ         37.5965   48.0970   25.1600 N.4       2 LYC4        0.0000 
      2 NZ         36.8890   48.9480   23.5560 N.4       8 LYL4        0.0000 
      3 NZ         38.3040   47.2460   26.7640 N.4       5 LYP4        0.0000 
      4 N          30.8655   49.5950   23.4650 N.am      1 SEC2        0.0000 
      5 N          32.4140   49.5680   23.4190 N.am      7 SEL2        0.0000 
      6 N          29.3170   49.6220   23.5110 N.am      4 SEP2        0.0000 
      7 N          31.7490   48.4775   23.8595 N.am      1 SEC2        0.0000 
      8 N          31.0840   47.3870   24.3000 N.am      4 SEP2        0.0000 
      9 N          31.5035   52.1715   22.8065 N.am      1 SEC2        0.0000 
     10 N          33.1340   52.0210   22.8940 N.am      7 SEL2        0.0000 
     11 N          29.8730   52.3220   22.7190 N.am      4 SEP2        0.0000 
     12 CA         31.2015   50.3580   28.4720 C.3       3 GLC5        0.0000 
     13 CA         31.6450   52.0620   27.6970 C.3       9 GLL5        0.0000 
     14 CA         30.7580   48.6540   29.2470 C.3       6 GLP5        0.0000 
     15 CA         30.0370   51.3930   26.9350 C.3       3 GLC5        0.0000 
     16 CA         28.4290   50.7240   26.1730 C.3       6 GLP5        0.0000 
     17 CA         33.1490   54.3265   31.1395 C.3       3 GLC5        0.0000 
     18 CA         32.7370   54.9940   29.2450 C.3       9 GLL5        0.0000 
     19 CA         33.5610   53.6590   33.0340 C.3       6 GLP5        0.0000 
     20 N          28.9015   53.1940   32.4350 N.am      1 SEC2        0.0000 
     21 N          29.1120   54.1620   31.4170 N.am      7 SEL2        0.0000 
     22 N          28.6910   52.2260   33.4530 N.am      4 SEP2        0.0000 
     23 CA         28.2945   53.4635   32.2095 C.3       3 GLC5        0.0000 
     24 CA         28.9210   55.4820   31.5590 C.3       9 GLL5        0.0000 
     25 CA         27.6680   51.4450   32.8600 C.3       6 GLP5        0.0000 
     26 CA         26.1620   56.2645   32.1785 C.3       3 GLC5        0.0000 
     27 CA         28.1180   56.3500   32.4500 C.3       9 GLL5        0.0000 
     28 CA         24.2060   56.1790   31.9070 C.3       6 GLP5        0.0000 
     29 CA         30.4470   56.8900   32.3145 C.3       3 GLC5        0.0000 
     30 CA         28.9940   58.2210   31.3100 C.3       9 GLL5        0.0000 
     31 CA         31.9000   55.5590   33.3190 C.3       6 GLP5        0.0000 
     32 CA         30.5880   59.4755   31.5740 C.3       3 GLC5        0.0000 
     33 CA         32.1820   60.7300   31.8380 C.3       6 GLP5        0.0000 
     34 CA         30.9997   53.5048   25.8750 C.3       3 GLC5        0.0000 
     35 CA         32.1020   53.4970   27.4390 C.3       9 GLL5        0.0000 
     36 CA         30.1260   54.2300   24.1820 C.3       6 GLP5        0.0000 
     37 CA         30.5191   55.7922   32.2954 C.3       3 GLC5        0.0000 
@<TRIPOS>BOND
@<TRIPOS>SUBSTRUCTURE
     1 SEC2        4 GROUP        1 X    SEC  0     ROOT SEC X 2
     2 LYC4        1 GROUP        1 X    LYC  0     **** LYC X 4
     3 GLC5       12 GROUP        1 X    GLC  0     **** GLC X 6
     4 SEP2        6 GROUP        1 Y    SEP  0     ROOT SEP Y 9
     5 LYP4        3 GROUP        1 Y    LYP  0     **** LYP Y 11
     6 GLP5       14 GROUP        1 Y    GLP  0     **** GLP Y 13
     7 SEL2        5 GROUP        1 Z    SEL  0     ROOT SEL Z 16
     8 LYL4        2 GROUP        1 Z    LYL  0     **** LYL Z 18
     9 GLL5       13 GROUP        1 Z    GLL  0     **** GLL Z 20
@<TRIPOS>SET

