#    Name: 2vht_ATP_3_ligand
#    Modification time : Tue Mar 25 01:43:36 2014

@<TRIPOS>MOLECULE
2vht_ATP_3_ligand
   43    45     1     0     0
SMALL
NO_CHARGES


@<TRIPOS>ATOM
      1 PG         35.4230   48.9390   23.1850 P.3       1 ATP1330     0.0000 
      2 O1G        34.6270   47.8690   23.9000 O.co2     1 ATP1330     0.0000 
      3 O2G        36.8890   48.9480   23.5560 O.co2     1 ATP1330     0.0000 
      4 O3G        35.1800   49.0290   21.6970 O.co2     1 ATP1330     0.0000 
      5 PB         33.2750   50.7690   23.7290 P.3       1 ATP1330     0.0000 
      6 O1B        32.4140   49.5680   23.4190 O.co2     1 ATP1330     0.0000 
      7 O2B        33.1340   52.0210   22.8940 O.co2     1 ATP1330     0.0000 
      8 O3B        34.8390   50.3410   23.7500 O.3       1 ATP1330     0.0000 
      9 PA         33.1810   50.2190   26.5260 P.3       1 ATP1330     0.0000 
     10 O1A        34.6410   49.8740   26.6920 O.co2     1 ATP1330     0.0000 
     11 O2A        32.1890   49.0930   26.4250 O.co2     1 ATP1330     0.0000 
     12 O3A        32.9870   51.2010   25.2550 O.3       1 ATP1330     0.0000 
     13 O5'        32.7550   51.1630   27.7640 O.3       1 ATP1330     0.0000 
     14 C5'        31.6450   52.0620   27.6970 C.3       1 ATP1330     0.0000 
     15 C4'        32.1020   53.4970   27.4390 C.3       1 ATP1330     0.0000 
     16 O4'        31.0260   54.4040   27.6950 O.3       1 ATP1330     0.0000 
     17 C3'        33.2610   53.8980   28.3350 C.3       1 ATP1330     0.0000 
     18 O3'        34.3300   54.3710   27.5160 O.3       1 ATP1330     0.0000 
     19 C2'        32.7370   54.9940   29.2450 C.3       1 ATP1330     0.0000 
     20 O2'        33.5720   56.1560   29.2110 O.3       1 ATP1330     0.0000 
     21 C1'        31.3340   55.3210   28.7500 C.3       1 ATP1330     0.0000 
     22 N9         30.3750   55.1540   29.8720 N.pl3     1 ATP1330     0.0000 
     23 C8         29.9880   53.9790   30.3990 C.2       1 ATP1330     0.0000 
     24 N7         29.1120   54.1620   31.4170 N.2       1 ATP1330     0.0000 
     25 C5         28.9210   55.4820   31.5590 C.ar      1 ATP1330     0.0000 
     26 C6         28.1180   56.3500   32.4500 C.ar      1 ATP1330     0.0000 
     27 N6         27.3200   55.8290   33.4120 N.pl3     1 ATP1330     0.0000 
     28 N1         28.2070   57.6850   32.2640 N.ar      1 ATP1330     0.0000 
     29 C2         28.9940   58.2210   31.3100 C.ar      1 ATP1330     0.0000 
     30 N3         29.7480   57.4890   30.4690 N.ar      1 ATP1330     0.0000 
     31 C4         29.7570   56.1350   30.5390 C.ar      1 ATP1330     0.0000 
     32 H          31.0654   52.0601   28.6356 H         1 ATP1330     0.0000 
     33 H          30.9471   51.7839   26.8893 H         1 ATP1330     0.0000 
     34 H          32.4258   53.5759   26.4110 H         1 ATP1330     0.0000 
     35 H          33.5341   53.0572   28.9255 H         1 ATP1330     0.0000 
     36 H          32.6457   54.5872   30.2382 H         1 ATP1330     0.0000 
     37 H          31.3278   56.3309   28.4071 H         1 ATP1330     0.0000 
     38 H          30.2971   53.0978   30.0900 H         1 ATP1330     0.0000 
     39 H          26.8062   56.4876   33.9618 H         1 ATP1330     0.0000 
     40 H          27.3152   54.8319   33.4874 H         1 ATP1330     0.0000 
     41 H          29.0202   59.2839   31.2170 H         1 ATP1330     0.0000 
     42 H          34.5158   55.2977   27.8429 H         1 ATP1330     0.0000 
     43 H          33.9097   56.2593   30.1465 H         1 ATP1330     0.0000 
@<TRIPOS>BOND
     1    2    1 ar   
     2    3    1 ar   
     3    4    1 ar   
     4    8    1 1    
     5    6    5 ar   
     6    7    5 ar   
     7    8    5 1    
     8   12    5 1    
     9   10    9 ar   
    10   11    9 ar   
    11   12    9 1    
    12   13    9 1    
    13   14   13 1    
    14   15   14 1    
    15   32   14 1    
    16   33   14 1    
    17   16   15 1    
    18   17   15 1    
    19   34   15 1    
    20   21   16 1    
    21   18   17 1    
    22   19   17 1    
    23   35   17 1    
    24   42   18 1    
    25   20   19 1    
    26   21   19 1    
    27   36   19 1    
    28   43   20 1    
    29   22   21 1    
    30   37   21 1    
    31   23   22 1    
    32   31   22 1    
    33   24   23 2    
    34   38   23 1    
    35   25   24 1    
    36   26   25 ar   
    37   31   25 ar   
    38   27   26 1    
    39   28   26 ar   
    40   39   27 1    
    41   40   27 1    
    42   29   28 ar   
    43   30   29 ar   
    44   41   29 1    
    45   31   30 ar   
@<TRIPOS>SUBSTRUCTURE
     1 ATP1330     1 GROUP   
@<TRIPOS>SET

