#    Name: 1d4l_PI9_1_INTS_M
#    Modification time : Mon Mar 24 21:30:36 2014

@<TRIPOS>MOLECULE
1d4l_PI9_1_INTS_M
   84     0     9     0     0
SMALL
NO_CHARGES


@<TRIPOS>ATOM
      1 CA          2.5715    5.8295   10.5340 C.3       3 GLC5        0.0000 
      2 CA          3.6790    4.2760    9.3940 C.3       9 GLL5        0.0000 
      3 CA          1.4640    7.3830   11.6740 C.3       6 GLP5        0.0000 
      4 N           2.5760    5.0295   12.6315 N.am      2 SEC2        0.0000 
      5 N           3.3390    4.3030   11.7430 N.am      8 SEL2        0.0000 
      6 N           1.8130    5.7560   13.5200 N.am      5 SEP2        0.0000 
      7 CA          4.2505    1.7160    6.9980 C.3       3 GLC5        0.0000 
      8 CA          5.4690    3.2480    8.0750 C.3       9 GLL5        0.0000 
      9 CA          3.0320    0.1840    5.9210 C.3       6 GLP5        0.0000 
     10 O           3.2595    1.4760    9.5110 O.2       1 ALC1        0.0000 
     11 O           3.2850    2.2900   10.7580 O.2       7 ALL1        0.0000 
     12 O           3.2340    0.6620    8.2640 O.2       4 ALP1        0.0000 
     13 CA          2.7210    2.8020   13.5585 C.3       3 GLC5        0.0000 
     14 CA          2.9890    1.5710   12.0090 C.3       9 GLL5        0.0000 
     15 CA          2.4530    4.0330   15.1080 C.3       6 GLP5        0.0000 
     16 CA          0.6570   -1.1025   14.3200 C.3       3 GLC5        0.0000 
     17 CA          1.4080   -0.0300   13.1370 C.3       9 GLL5        0.0000 
     18 CA         -0.0940   -2.1750   15.5030 C.3       6 GLP5        0.0000 
     19 CA         -1.3565    1.1270   11.7905 C.3       3 GLC5        0.0000 
     20 CA          0.4900    1.8410   11.7620 C.3       9 GLL5        0.0000 
     21 CA         -3.2030    0.4130   11.8190 C.3       6 GLP5        0.0000 
     22 CA         -0.7755    0.8205   10.2275 C.3       3 GLC5        0.0000 
     23 CA         -2.0410   -0.2000    8.6930 C.3       6 GLP5        0.0000 
     24 O           4.9835    2.4175   14.1730 O.2       1 ALC1        0.0000 
     25 O           4.7620    0.9370   13.5590 O.2       7 ALL1        0.0000 
     26 O           5.2050    3.8980   14.7870 O.2       4 ALP1        0.0000 
     27 CA          8.1760    3.7160   14.2170 C.3       3 GLC5        0.0000 
     28 CA          7.4430    2.7600   12.5010 C.3       9 GLL5        0.0000 
     29 CA          8.9090    4.6720   15.9330 C.3       6 GLP5        0.0000 
     30 CA          9.5910    0.7980    8.7745 C.3       3 GLC5        0.0000 
     31 CA          8.1580    1.0900   10.4220 C.3       9 GLL5        0.0000 
     32 CA         11.0240    0.5060    7.1270 C.3       6 GLP5        0.0000 
     33 CA          9.6805    2.2435    7.5050 C.3       3 GLC5        0.0000 
     34 CA          7.8550    2.5870    7.8380 C.3       9 GLL5        0.0000 
     35 CA         11.5060    1.9000    7.1720 C.3       6 GLP5        0.0000 
     36 N           6.0970    1.1815   17.6205 N.am      2 SEC2        0.0000 
     37 N           5.5310    0.7920   16.4260 N.am      8 SEL2        0.0000 
     38 N           6.6630    1.5710   18.8150 N.am      5 SEP2        0.0000 
     39 O           4.7540    1.1890   17.4860 O.2       1 ALC1        0.0000 
     40 O           5.5310    0.7920   16.4260 O.2       7 ALL1        0.0000 
     41 O           3.9770    1.5860   18.5460 O.2       4 ALP1        0.0000 
     42 O           4.0980    0.5395   16.9100 O.2       1 ALC1        0.0000 
     43 O           2.6650    0.2870   17.3940 O.2       4 ALP1        0.0000 
     44 CA          7.9160   -1.5515   17.6285 C.3       3 GLC5        0.0000 
     45 CA          6.4660   -1.3970   16.0790 C.3       9 GLL5        0.0000 
     46 CA          9.3660   -1.7060   19.1780 C.3       6 GLP5        0.0000 
     47 CA          2.2995   -3.8340   19.0215 C.3       3 GLC5        0.0000 
     48 CA          2.7980   -4.5160   17.3240 C.3       9 GLL5        0.0000 
     49 CA          1.8010   -3.1520   20.7190 C.3       6 GLP5        0.0000 
     50 CA          1.3945   -6.3965   14.2915 C.3       3 GLC5        0.0000 
     51 CA          1.9470   -4.8430   14.9680 C.3       9 GLL5        0.0000 
     52 CA          0.8420   -7.9500   13.6150 C.3       6 GLP5        0.0000 
     53 CA          1.4750   -4.1485   13.0280 C.3       3 GLC5        0.0000 
     54 CA          1.0030   -3.4540   11.0880 C.3       6 GLP5        0.0000 
     55 CA         10.2080   -1.7950   15.2805 C.3       3 GLC5        0.0000 
     56 CA          9.5590   -3.5470   16.0840 C.3       9 GLL5        0.0000 
     57 CA         10.8570   -0.0430   14.4770 C.3       6 GLP5        0.0000 
     58 CA         10.1940   -7.6265   15.5045 C.3       3 GLC5        0.0000 
     59 CA          9.1310   -6.2260   16.5980 C.3       9 GLL5        0.0000 
     60 CA         11.2570   -9.0270   14.4110 C.3       6 GLP5        0.0000 
     61 CA          1.1963    2.0749   13.8287 C.3       3 GLC5        0.0000 
     62 CA          1.3880    3.0280   15.5150 C.3       6 GLP5        0.0000 
     63 CA          0.5827   -0.5536   11.5777 C.3       3 GLC5        0.0000 
     64 CA          0.1610   -2.2290   11.0130 C.3       6 GLP5        0.0000 
     65 CA          9.4360    2.7095   12.1405 C.3       3 GLC5        0.0000 
     66 CA          7.5030    1.3940   12.7250 C.3       9 GLL5        0.0000 
     67 CA         11.3990    3.3420   11.6680 C.3       6 GLP5        0.0000 
     68 CA          9.6550    3.1085   11.2175 C.3       3 GLC5        0.0000 
     69 CA          7.7320    3.2910   11.2830 C.3       9 GLL5        0.0000 
     70 CA          6.5537   -0.2177    9.8607 C.3       3 GLC5        0.0000 
     71 CA          5.0950   -1.2630    8.6810 C.3       6 GLP5        0.0000 
     72 CA          9.7057    2.0848   11.3543 C.3       3 GLC5        0.0000 
     73 CA          9.2296    0.3969   13.5055 C.3       3 GLC5        0.0000 
     74 CA          7.8670    0.5650   11.6590 C.3       9 GLL5        0.0000 
     75 CA          1.1358   -5.2683   16.7859 C.3       3 GLC5        0.0000 
     76 CA         -0.1940   -5.7880   17.7880 C.3       6 GLP5        0.0000 
     77 CA          1.1858   -3.4617   15.6434 C.3       3 GLC5        0.0000 
     78 CA         11.7697   -2.9943   15.6700 C.3       3 GLC5        0.0000 
     79 CA         10.3840   -4.2140   16.9740 C.3       9 GLL5        0.0000 
     80 CA         13.5680   -2.1080   14.8110 C.3       6 GLP5        0.0000 
     81 CA         11.2735   -5.8072   15.5117 C.3       3 GLC5        0.0000 
     82 CA         12.2710   -6.7330   13.9220 C.3       6 GLP5        0.0000 
     83 CA          9.7179   -3.2104   18.0285 C.3       3 GLC5        0.0000 
     84 CA         10.1680   -5.5490   17.2290 C.3       9 GLL5        0.0000 
@<TRIPOS>BOND
@<TRIPOS>SUBSTRUCTURE
     1 ALC1       10 GROUP        1 X    ALC  0     ROOT ALC X 1
     2 SEC2        4 GROUP        1 X    SEC  0     **** SEC X 2
     3 GLC5        1 GROUP        1 X    GLC  0     **** GLC X 6
     4 ALP1       12 GROUP        1 Y    ALP  0     ROOT ALP Y 8
     5 SEP2        6 GROUP        1 Y    SEP  0     **** SEP Y 9
     6 GLP5        3 GROUP        1 Y    GLP  0     **** GLP Y 13
     7 ALL1       11 GROUP        1 Z    ALL  0     ROOT ALL Z 15
     8 SEL2        5 GROUP        1 Z    SEL  0     **** SEL Z 16
     9 GLL5        2 GROUP        1 Z    GLL  0     **** GLL Z 20
@<TRIPOS>SET

