#    Name: 1d4l_PI9_1_ligand
#    Modification time : Mon Mar 24 21:30:36 2014

@<TRIPOS>MOLECULE
1d4l_PI9_1_ligand
   91    93     1     0     0
SMALL
NO_CHARGES


@<TRIPOS>ATOM
      1 C4          5.1510    4.3240    9.0720 C.3       1 PI9201      0.0000 
      2 C5          3.6790    4.2760    9.3940 C.3       1 PI9201      0.0000 
      3 C6          3.4000    3.6170   10.7330 C.2       1 PI9201      0.0000 
      4 O1          3.3390    4.3030   11.7430 O.2       1 PI9201      0.0000 
      5 C3          5.4690    3.2480    8.0750 C.3       1 PI9201      0.0000 
      6 C2          6.7590    3.5080    7.3360 C.3       1 PI9201      0.0000 
      7 N1          3.2850    2.2900   10.7580 N.am      1 PI9201      0.0000 
      8 C7          2.9890    1.5710   12.0090 C.3       1 PI9201      0.0000 
      9 C8          1.6300    0.8350   11.9090 C.3       1 PI9201      0.0000 
     10 C10         1.4080   -0.0300   13.1370 C.3       1 PI9201      0.0000 
     11 C9          0.4900    1.8410   11.7620 C.3       1 PI9201      0.0000 
     12 C11         4.0760    0.5840   12.4740 C.2       1 PI9201      0.0000 
     13 O2          4.2760   -0.4770   11.8620 O.2       1 PI9201      0.0000 
     14 N2          4.7620    0.9370   13.5590 N.am      1 PI9201      0.0000 
     15 C12         5.8280    0.0830   14.1300 C.3       1 PI9201      0.0000 
     16 C13         7.1720    0.8230   14.0930 C.3       1 PI9201      0.0000 
     17 C14         7.5030    1.3940   12.7250 C.ar      1 PI9201      0.0000 
     18 C15         7.4430    2.7600   12.5010 C.ar      1 PI9201      0.0000 
     19 C16         7.7320    3.2910   11.2830 C.ar      1 PI9201      0.0000 
     20 C19         7.8670    0.5650   11.6590 C.ar      1 PI9201      0.0000 
     21 C18         8.1580    1.0900   10.4220 C.ar      1 PI9201      0.0000 
     22 C17         8.0900    2.4590   10.2510 C.ar      1 PI9201      0.0000 
     23 O3          8.3870    3.0540    9.0620 O.3       1 PI9201      0.0000 
     24 C1          7.8550    2.5870    7.8380 C.3       1 PI9201      0.0000 
     25 C20         5.4820   -0.3440   15.5620 C.3       1 PI9201      0.0000 
     26 O4          5.5310    0.7920   16.4260 O.3       1 PI9201      0.0000 
     27 C21         6.4660   -1.3970   16.0790 C.3       1 PI9201      0.0000 
     28 N3          6.2750   -2.7170   15.4530 N.pl3     1 PI9201      0.0000 
     29 C22         5.4210   -3.6300   16.2260 C.3       1 PI9201      0.0000 
     30 C23         4.1490   -3.7130   15.4020 C.3       1 PI9201      0.0000 
     31 C24         3.1700   -4.7920   15.8750 C.3       1 PI9201      0.0000 
     32 C26         2.7980   -4.5160   17.3240 C.3       1 PI9201      0.0000 
     33 C25         1.9470   -4.8430   14.9680 C.3       1 PI9201      0.0000 
     34 S           7.4780   -3.3320   14.5100 S.o2      1 PI9201      0.0000 
     35 O6          8.2000   -2.2340   13.8740 O.2       1 PI9201      0.0000 
     36 O5          6.8820   -4.1890   13.4940 O.2       1 PI9201      0.0000 
     37 C27         8.5160   -4.1960   15.4480 C.ar      1 PI9201      0.0000 
     38 C32         9.5590   -3.5470   16.0840 C.ar      1 PI9201      0.0000 
     39 C28         8.3080   -5.5440   15.7010 C.ar      1 PI9201      0.0000 
     40 C31        10.3840   -4.2140   16.9740 C.ar      1 PI9201      0.0000 
     41 C29         9.1310   -6.2260   16.5980 C.ar      1 PI9201      0.0000 
     42 C30        10.1680   -5.5490   17.2290 C.ar      1 PI9201      0.0000 
     43 N4         10.9710   -6.1750   18.1590 N.pl3     1 PI9201      0.0000 
     44 H           5.7262    4.1652    9.9799 H         1 PI9201      0.0000 
     45 H           5.3995    5.2960    8.6553 H         1 PI9201      0.0000 
     46 H           3.1505    3.7220    8.6057 H         1 PI9201      0.0000 
     47 H           3.2744    5.2976    9.4070 H         1 PI9201      0.0000 
     48 H           4.6468    3.1688    7.3471 H         1 PI9201      0.0000 
     49 H           5.5396    2.2788    8.5925 H         1 PI9201      0.0000 
     50 H           7.0635    4.5446    7.4862 H         1 PI9201      0.0000 
     51 H           6.6088    3.3400    6.2688 H         1 PI9201      0.0000 
     52 H           3.3950    1.6985    9.9154 H         1 PI9201      0.0000 
     53 H           2.8599    2.3128   12.8306 H         1 PI9201      0.0000 
     54 H           1.6522    0.2048   11.0338 H         1 PI9201      0.0000 
     55 H           4.5910    1.8288   14.0675 H         1 PI9201      0.0000 
     56 H           5.9307   -0.8184   13.5272 H         1 PI9201      0.0000 
     57 H           7.9661    0.1271   14.3986 H         1 PI9201      0.0000 
     58 H           7.1464    1.6375   14.8307 H         1 PI9201      0.0000 
     59 H           7.1691    3.3851   13.2908 H         1 PI9201      0.0000 
     60 H           7.6844    4.3111   11.1292 H         1 PI9201      0.0000 
     61 H           7.9151   -0.4585   11.8142 H         1 PI9201      0.0000 
     62 H           8.4198    0.4816    9.6423 H         1 PI9201      0.0000 
     63 H           8.6277    2.5264    7.0518 H         1 PI9201      0.0000 
     64 H           7.4230    1.5759    7.9380 H         1 PI9201      0.0000 
     65 H           4.4953   -0.7816   15.5553 H         1 PI9201      0.0000 
     66 H           6.3457   -1.4699   17.1736 H         1 PI9201      0.0000 
     67 H           7.4899   -1.0288   15.8944 H         1 PI9201      0.0000 
     68 H           5.1912   -3.2227   17.1857 H         1 PI9201      0.0000 
     69 H           5.8585   -4.6014   16.2945 H         1 PI9201      0.0000 
     70 H           4.4109   -3.9112   14.3489 H         1 PI9201      0.0000 
     71 H           3.6365   -2.7364   15.4260 H         1 PI9201      0.0000 
     72 H           3.6831   -5.7477   15.8278 H         1 PI9201      0.0000 
     73 H           9.7271   -2.5399   15.8907 H         1 PI9201      0.0000 
     74 H           7.5443   -6.0465   15.2269 H         1 PI9201      0.0000 
     75 H          11.1515   -3.7119   17.4391 H         1 PI9201      0.0000 
     76 H           8.9698   -7.2198   16.7887 H         1 PI9201      0.0000 
     77 H          11.6641   -5.6032   18.5979 H         1 PI9201      0.0000 
     78 H          10.7903   -7.1463   18.3136 H         1 PI9201      0.0000 
     79 H           2.1216   -0.7234   13.2368 H         1 PI9201      0.0000 
     80 H           1.4062    0.5118   13.9775 H         1 PI9201      0.0000 
     81 H           0.5333   -0.5131   13.0978 H         1 PI9201      0.0000 
     82 H           0.4420    2.4646   12.5423 H         1 PI9201      0.0000 
     83 H           0.5952    2.4044   10.9426 H         1 PI9201      0.0000 
     84 H          -0.3988    1.3878   11.6939 H         1 PI9201      0.0000 
     85 H           3.5998   -4.5255   17.9215 H         1 PI9201      0.0000 
     86 H           2.3626   -3.6223   17.4319 H         1 PI9201      0.0000 
     87 H           2.1592   -5.1981   17.6798 H         1 PI9201      0.0000 
     88 H           2.1946   -5.0528   14.0221 H         1 PI9201      0.0000 
     89 H           1.2953   -5.5420   15.2623 H         1 PI9201      0.0000 
     90 H           1.4567   -3.9715   14.9563 H         1 PI9201      0.0000 
     91 H           4.6340    0.8205   16.8670 H         1 PI9201      0.0000 
@<TRIPOS>BOND
     1    2    1 1    
     2    5    1 1    
     3   44    1 1    
     4   45    1 1    
     5    3    2 1    
     6   46    2 1    
     7   47    2 1    
     8    4    3 2    
     9    7    3 am   
    10    6    5 1    
    11   48    5 1    
    12   49    5 1    
    13   24    6 1    
    14   50    6 1    
    15   51    6 1    
    16    8    7 1    
    17   52    7 1    
    18    9    8 1    
    19   12    8 1    
    20   53    8 1    
    21   10    9 1    
    22   11    9 1    
    23   54    9 1    
    24   79   10 1    
    25   80   10 1    
    26   81   10 1    
    27   82   11 1    
    28   83   11 1    
    29   84   11 1    
    30   13   12 2    
    31   14   12 am   
    32   15   14 1    
    33   55   14 1    
    34   16   15 1    
    35   25   15 1    
    36   56   15 1    
    37   17   16 1    
    38   57   16 1    
    39   58   16 1    
    40   18   17 ar   
    41   20   17 ar   
    42   19   18 ar   
    43   59   18 1    
    44   22   19 ar   
    45   60   19 1    
    46   21   20 ar   
    47   61   20 1    
    48   22   21 ar   
    49   62   21 1    
    50   23   22 1    
    51   24   23 1    
    52   63   24 1    
    53   64   24 1    
    54   26   25 1    
    55   27   25 1    
    56   65   25 1    
    57   91   26 1    
    58   28   27 1    
    59   66   27 1    
    60   67   27 1    
    61   29   28 1    
    62   34   28 1    
    63   30   29 1    
    64   68   29 1    
    65   69   29 1    
    66   31   30 1    
    67   70   30 1    
    68   71   30 1    
    69   32   31 1    
    70   33   31 1    
    71   72   31 1    
    72   85   32 1    
    73   86   32 1    
    74   87   32 1    
    75   88   33 1    
    76   89   33 1    
    77   90   33 1    
    78   35   34 2    
    79   36   34 2    
    80   37   34 1    
    81   38   37 ar   
    82   39   37 ar   
    83   40   38 ar   
    84   73   38 1    
    85   41   39 ar   
    86   74   39 1    
    87   42   40 ar   
    88   75   40 1    
    89   42   41 ar   
    90   76   41 1    
    91   43   42 1    
    92   77   43 1    
    93   78   43 1    
@<TRIPOS>SUBSTRUCTURE
     1 PI9201      1 GROUP   
@<TRIPOS>SET

