#    Name: 2uxi_G50_3_INTS_M
#    Modification time : Tue Mar 25 00:25:28 2014

@<TRIPOS>MOLECULE
2uxi_G50_3_INTS_M
   47     0     6     0     0
SMALL
NO_CHARGES


@<TRIPOS>ATOM
      1 CA         -4.5985   38.8205   16.2490 C.3       2 GLC5        0.0000 
      2 CA         -4.0030   39.3370   14.3310 C.3       6 GLL5        0.0000 
      3 CA         -5.1940   38.3040   18.1670 C.3       4 GLP5        0.0000 
      4 CA         -4.6825   40.2020   16.6685 C.3       2 GLC5        0.0000 
      5 CA         -4.2070   40.6450   14.7350 C.3       6 GLL5        0.0000 
      6 CA         -5.1580   39.7590   18.6020 C.3       4 GLP5        0.0000 
      7 CA         -6.3840   41.0990   14.5250 C.3       2 GLC5        0.0000 
      8 CA         -8.5610   41.5530   14.3150 C.3       4 GLP5        0.0000 
      9 CA          0.3640   38.6915   15.0260 C.3       2 GLC5        0.0000 
     10 CA          0.1830   38.2840   13.1930 C.3       6 GLL5        0.0000 
     11 CA          0.5450   39.0990   16.8590 C.3       4 GLP5        0.0000 
     12 CA          2.8150   39.1385   13.2185 C.3       2 GLC5        0.0000 
     13 CA          1.3460   38.0370   12.2340 C.3       6 GLL5        0.0000 
     14 CA          4.2840   40.2400   14.2030 C.3       4 GLP5        0.0000 
     15 CA          3.5260   38.2040   13.6710 C.3       2 GLC5        0.0000 
     16 CA          2.7680   36.1680   13.1390 C.3       6 GLL5        0.0000 
     17 O          -6.4360   40.2420   15.1515 O.2       1 ALC1        0.0000 
     18 O          -5.3710   40.9890   15.3280 O.2       5 ALL1        0.0000 
     19 O          -7.5010   39.4950   14.9750 O.2       3 ALP1        0.0000 
     20 CA         -2.8710   39.6215   16.3390 C.3       2 GLC5        0.0000 
     21 CA         -1.6370   39.2520   18.1450 C.3       4 GLP5        0.0000 
     22 CA         -4.3680   42.5768   15.6370 C.3       2 GLC5        0.0000 
     23 CA         -5.0150   44.0260   16.6360 C.3       4 GLP5        0.0000 
     24 CA         -4.3750   42.8567   13.7310 C.3       2 GLC5        0.0000 
     25 CA         -3.2350   41.6100   14.5410 C.3       6 GLL5        0.0000 
     26 CA         -5.0290   44.5860   12.8240 C.3       4 GLP5        0.0000 
     27 CA         -1.2477   42.9705   14.2907 C.3       2 GLC5        0.0000 
     28 CA          0.1380   44.4970   14.3410 C.3       4 GLP5        0.0000 
     29 CA         -0.6880   39.8602   15.2980 C.3       2 GLC5        0.0000 
     30 CA         -2.0320   41.2780   13.9400 C.3       6 GLL5        0.0000 
     31 CA         -2.4503   39.7646   11.7935 C.3       2 GLC5        0.0000 
     32 CA         -1.8100   39.9650   13.5340 C.3       6 GLL5        0.0000 
     33 CA         -2.5390   39.7200    9.8530 C.3       4 GLP5        0.0000 
     34 CA         -0.3247   38.5562   10.9067 C.3       2 GLC5        0.0000 
     35 CA         -1.4140   38.9520    9.1000 C.3       4 GLP5        0.0000 
     36 CA          3.6222   37.2278   12.0770 C.3       2 GLC5        0.0000 
     37 CA          5.6960   37.1590   11.9030 C.3       4 GLP5        0.0000 
     38 CA         -0.5005   35.1295   10.9108 C.3       2 GLC5        0.0000 
     39 CA          1.1070   35.6150   11.4440 C.3       6 GLL5        0.0000 
     40 CA         -2.2960   35.3140   10.3490 C.3       4 GLP5        0.0000 
     41 CA          4.6470   33.9808   12.9047 C.3       2 GLC5        0.0000 
     42 CA          2.5090   33.9170   12.3740 C.3       6 GLL5        0.0000 
     43 CA          6.4620   33.5860   13.0300 C.3       4 GLP5        0.0000 
     44 CA          3.9817   35.4000   14.8550 C.3       2 GLC5        0.0000 
     45 CA          3.1550   34.8340   13.1850 C.3       6 GLL5        0.0000 
     46 CA          5.0020   35.2990   16.5480 C.3       4 GLP5        0.0000 
     47 CA          4.3287   36.3300   12.5325 C.3       2 GLC5        0.0000 
@<TRIPOS>BOND
@<TRIPOS>SUBSTRUCTURE
     1 ALC1       17 GROUP        1 X    ALC  0     ROOT ALC X 1
     2 GLC5        1 GROUP        1 X    GLC  0     **** GLC X 6
     3 ALP1       19 GROUP        1 Y    ALP  0     ROOT ALP Y 8
     4 GLP5        3 GROUP        1 Y    GLP  0     **** GLP Y 13
     5 ALL1       18 GROUP        1 Z    ALL  0     ROOT ALL Z 15
     6 GLL5        2 GROUP        1 Z    GLL  0     **** GLL Z 20
@<TRIPOS>SET

