#    Name: 2uxi_G50_3_ligand
#    Modification time : Tue Mar 25 00:25:28 2014

@<TRIPOS>MOLECULE
2uxi_G50_3_ligand
   34    35     1     0     0
SMALL
NO_CHARGES


@<TRIPOS>ATOM
      1 C1         -4.0030   39.3370   14.3310 C.ar      1 G501212     0.0000 
      2 C2         -4.2070   40.6450   14.7350 C.ar      1 G501212     0.0000 
      3 C3         -3.2350   41.6100   14.5410 C.ar      1 G501212     0.0000 
      4 C4         -2.0320   41.2780   13.9400 C.ar      1 G501212     0.0000 
      5 C5         -1.8100   39.9650   13.5340 C.ar      1 G501212     0.0000 
      6 C6         -2.8020   38.9970   13.7310 C.ar      1 G501212     0.0000 
      7 C7         -0.4710   39.6100   12.8690 C.2       1 G501212     0.0000 
      8 C8          0.1830   38.2840   13.1930 C.3       1 G501212     0.0000 
      9 C9          1.3460   38.0370   12.2340 C.3       1 G501212     0.0000 
     10 O1         -2.6110   37.7190   13.3390 O.3       1 G501212     0.0000 
     11 O2          0.0820   40.3940   12.0920 O.2       1 G501212     0.0000 
     12 C10         1.7510   36.5560   12.2680 C.ar      1 G501212     0.0000 
     13 C11         1.1070   35.6150   11.4440 C.ar      1 G501212     0.0000 
     14 C12         1.4830   34.2750   11.5010 C.ar      1 G501212     0.0000 
     15 C13         2.5090   33.9170   12.3740 C.ar      1 G501212     0.0000 
     16 C14         3.1550   34.8340   13.1850 C.ar      1 G501212     0.0000 
     17 C15         2.7680   36.1680   13.1390 C.ar      1 G501212     0.0000 
     18 O3          2.9120   32.6580   12.4380 O.3       1 G501212     0.0000 
     19 O4         -5.3710   40.9890   15.3280 O.3       1 G501212     0.0000 
     20 O5         -1.0830   42.2350   13.7500 O.3       1 G501212     0.0000 
     21 H          -4.7299   38.6300   14.4736 H         1 G501212     0.0000 
     22 H          -3.4061   42.5815   14.8450 H         1 G501212     0.0000 
     23 H          -0.5417   37.4829   13.0878 H         1 G501212     0.0000 
     24 H           0.5583   38.2999   14.2113 H         1 G501212     0.0000 
     25 H           2.1942   38.6446   12.5303 H         1 G501212     0.0000 
     26 H           1.0454   38.3004   11.2257 H         1 G501212     0.0000 
     27 H           0.3661   35.9199   10.8074 H         1 G501212     0.0000 
     28 H           1.0235   33.5791   10.9238 H         1 G501212     0.0000 
     29 H           3.9078   34.5362   13.8110 H         1 G501212     0.0000 
     30 H           3.2244   36.8609   13.7385 H         1 G501212     0.0000 
     31 H          -1.8922   37.3689   13.9396 H         1 G501212     0.0000 
     32 H           2.5033   32.2979   13.2766 H         1 G501212     0.0000 
     33 H          -6.0270   40.2944   15.0326 H         1 G501212     0.0000 
     34 H          -0.7529   42.0904   12.8172 H         1 G501212     0.0000 
@<TRIPOS>BOND
     1    2    1 ar   
     2    6    1 ar   
     3   21    1 1    
     4    3    2 ar   
     5   19    2 1    
     6    4    3 ar   
     7   22    3 1    
     8    5    4 ar   
     9   20    4 1    
    10    6    5 ar   
    11    7    5 1    
    12   10    6 1    
    13    8    7 1    
    14   11    7 2    
    15    9    8 1    
    16   23    8 1    
    17   24    8 1    
    18   12    9 1    
    19   25    9 1    
    20   26    9 1    
    21   31   10 1    
    22   13   12 ar   
    23   17   12 ar   
    24   14   13 ar   
    25   27   13 1    
    26   15   14 ar   
    27   28   14 1    
    28   16   15 ar   
    29   18   15 1    
    30   17   16 ar   
    31   29   16 1    
    32   30   17 1    
    33   32   18 1    
    34   33   19 1    
    35   34   20 1    
@<TRIPOS>SUBSTRUCTURE
     1 G501212     1 GROUP   
@<TRIPOS>SET

