#    Name: 4hnf_16W_2_INTS_M
#    Modification time : Tue Mar 25 01:28:32 2014

@<TRIPOS>MOLECULE
4hnf_16W_2_INTS_M
   84     0     9     0     0
SMALL
NO_CHARGES


@<TRIPOS>ATOM
      1 CA        -43.0180  -16.5130   17.5290 C.3       3 GLC5        0.0000 
      2 CA        -41.5080  -15.1220   17.7020 C.3       9 GLL5        0.0000 
      3 CA        -44.5280  -17.9040   17.3560 C.3       6 GLP5        0.0000 
      4 CA        -43.8680  -21.8355   18.2915 C.3       3 GLC5        0.0000 
      5 CA        -43.1970  -22.2960   16.5220 C.3       9 GLL5        0.0000 
      6 CA        -44.5390  -21.3750   20.0610 C.3       6 GLP5        0.0000 
      7 CA        -45.0770  -22.0380   16.6500 C.3       3 GLC5        0.0000 
      8 CA        -46.9570  -21.7800   16.7780 C.3       6 GLP5        0.0000 
      9 CA        -43.5700  -22.6730   14.6425 C.3       3 GLC5        0.0000 
     10 CA        -43.9430  -23.0500   12.7630 C.3       6 GLP5        0.0000 
     11 CA        -41.3550  -22.7670   15.6890 C.3       3 GLC5        0.0000 
     12 CA        -39.5130  -23.2380   14.8560 C.3       6 GLP5        0.0000 
     13 CA        -42.8590  -21.4890   18.8395 C.3       3 GLC5        0.0000 
     14 CA        -41.1790  -21.6030   17.6180 C.3       9 GLL5        0.0000 
     15 CA        -41.3825  -18.4305   14.8150 C.3       3 GLC5        0.0000 
     16 CA        -42.1590  -20.1620   16.0050 C.3       9 GLL5        0.0000 
     17 CA        -40.6060  -16.6990   13.6250 C.3       6 GLP5        0.0000 
     18 CA        -42.1380  -20.7770   13.9695 C.3       3 GLC5        0.0000 
     19 CA        -42.1170  -21.3920   11.9340 C.3       6 GLP5        0.0000 
     20 CA        -39.5320  -17.4930   18.7800 C.3       3 GLC5        0.0000 
     21 CA        -39.5250  -18.2490   16.9610 C.3       9 GLL5        0.0000 
     22 CA        -39.5390  -16.7370   20.5990 C.3       6 GLP5        0.0000 
     23 CA        -40.0655  -17.4740   15.2930 C.3       3 GLC5        0.0000 
     24 CA        -38.1110  -19.4780   16.3795 C.3       3 GLC5        0.0000 
     25 CA        -36.6970  -20.7070   15.7980 C.3       6 GLP5        0.0000 
     26 CA        -41.0890  -23.6890   21.3540 C.3       3 GLC5        0.0000 
     27 CA        -38.9580  -23.4450   21.5810 C.3       9 GLL5        0.0000 
     28 CA        -43.2200  -23.9330   21.1270 C.3       6 GLP5        0.0000 
     29 CA        -41.4020  -22.4575   21.3550 C.3       3 GLC5        0.0000 
     30 CA        -39.4790  -22.2710   20.7490 C.3       9 GLL5        0.0000 
     31 CA        -43.3250  -22.6440   21.9610 C.3       6 GLP5        0.0000 
     32 CA        -40.2515  -20.3855   21.2360 C.3       3 GLC5        0.0000 
     33 CA        -41.0240  -18.5000   21.7230 C.3       6 GLP5        0.0000 
     34 CA        -41.4065  -23.2660   20.1920 C.3       3 GLC5        0.0000 
     35 CA        -39.5930  -22.5990   19.2570 C.3       9 GLL5        0.0000 
     36 N         -43.8905  -21.5535   14.6655 N.am      2 SEC2        0.0000 
     37 N         -43.1650  -21.0980   15.8150 N.am      8 SEL2        0.0000 
     38 N         -44.6160  -22.0090   13.5160 N.am      5 SEP2        0.0000 
     39 O         -43.3210  -18.8020   14.2330 O.2       1 ALC1        0.0000 
     40 O         -42.1840  -19.0790   15.2430 O.2       7 ALL1        0.0000 
     41 O         -44.4580  -18.5250   13.2230 O.2       4 ALP1        0.0000 
     42 CA        -37.5305  -22.0020   17.2320 C.3       3 GLC5        0.0000 
     43 CA        -38.3640  -23.2970   18.6660 C.3       9 GLL5        0.0000 
     44 CA        -41.2190  -11.7220   16.9665 C.3       3 GLC5        0.0000 
     45 CA        -41.4110  -13.6840   17.7770 C.3       9 GLL5        0.0000 
     46 CA        -41.0270   -9.7600   16.1560 C.3       6 GLP5        0.0000 
     47 CA        -43.3065  -12.7245   17.0775 C.3       3 GLC5        0.0000 
     48 CA        -45.2020  -11.7650   16.3780 C.3       6 GLP5        0.0000 
     49 CA        -39.2565  -15.3765   18.9775 C.3       3 GLC5        0.0000 
     50 CA        -38.9740  -14.0160   17.3560 C.3       9 GLL5        0.0000 
     51 CA        -37.7025  -13.3405   18.9285 C.3       3 GLC5        0.0000 
     52 CA        -37.4780  -13.3750   17.1460 C.3       9 GLL5        0.0000 
     53 CA        -37.9270  -13.3060   20.7110 C.3       6 GLP5        0.0000 
     54 CA        -37.6070  -11.6845   18.5120 C.3       3 GLC5        0.0000 
     55 CA        -37.7360   -9.9940   19.8780 C.3       6 GLP5        0.0000 
     56 CA        -35.5930  -12.4440   16.3955 C.3       3 GLC5        0.0000 
     57 CA        -33.7080  -11.5130   15.6450 C.3       6 GLP5        0.0000 
     58 CA        -37.0235  -13.3635   15.2425 C.3       3 GLC5        0.0000 
     59 CA        -36.5690  -13.3520   13.3390 C.3       6 GLP5        0.0000 
     60 CA        -38.2705  -12.3110   16.0165 C.3       3 GLC5        0.0000 
     61 CA        -39.0630  -11.2470   14.8870 C.3       6 GLP5        0.0000 
     62 CA        -38.5035  -14.3195   15.4385 C.3       3 GLC5        0.0000 
     63 CA        -39.5290  -15.2640   13.7310 C.3       6 GLP5        0.0000 
     64 CA        -38.4710  -14.0145   19.0153 C.3       3 GLC5        0.0000 
     65 CA        -39.0560  -15.4300   17.2830 C.3       9 GLL5        0.0000 
     66 CA        -39.6180  -15.4872   15.5510 C.3       3 GLC5        0.0000 
     67 CA        -40.0733  -16.0766   19.0678 C.3       3 GLC5        0.0000 
     68 CA        -43.1827  -14.3020   18.9438 C.3       3 GLC5        0.0000 
     69 CA        -44.9060  -14.2010   20.1480 C.3       6 GLP5        0.0000 
     70 CA        -42.1078  -14.7525   16.0033 C.3       3 GLC5        0.0000 
     71 CA        -42.7560  -15.1020   14.2670 C.3       6 GLP5        0.0000 
     72 CA        -41.5693  -19.6785   18.9153 C.3       3 GLC5        0.0000 
     73 CA        -41.1060  -20.3370   16.9170 C.3       9 GLL5        0.0000 
     74 CA        -41.9960  -18.3870   20.5630 C.3       6 GLP5        0.0000 
     75 CA        -43.0802  -19.0768   16.9085 C.3       3 GLC5        0.0000 
     76 CA        -40.5819  -21.9020   15.7461 C.3       3 GLC5        0.0000 
     77 CA        -39.5173  -22.5595   22.7625 C.3       3 GLC5        0.0000 
     78 CA        -39.8160  -22.2610   24.3600 C.3       6 GLP5        0.0000 
     79 CA        -39.2458  -23.0930   16.9087 C.3       3 GLC5        0.0000 
     80 CA        -40.5891  -13.4908   19.3589 C.3       3 GLC5        0.0000 
     81 CA        -40.3970  -13.2070   21.0500 C.3       6 GLP5        0.0000 
     82 CA        -39.3008  -12.4140   16.1815 C.3       3 GLC5        0.0000 
     83 CA        -40.1030  -13.1460   17.5960 C.3       9 GLL5        0.0000 
     84 CA        -39.5337  -14.4225   15.6035 C.3       3 GLC5        0.0000 
@<TRIPOS>BOND
@<TRIPOS>SUBSTRUCTURE
     1 ALC1       39 GROUP        1 X    ALC  0     ROOT ALC X 1
     2 SEC2       36 GROUP        1 X    SEC  0     **** SEC X 2
     3 GLC5        1 GROUP        1 X    GLC  0     **** GLC X 6
     4 ALP1       41 GROUP        1 Y    ALP  0     ROOT ALP Y 8
     5 SEP2       38 GROUP        1 Y    SEP  0     **** SEP Y 9
     6 GLP5        3 GROUP        1 Y    GLP  0     **** GLP Y 13
     7 ALL1       40 GROUP        1 Z    ALL  0     ROOT ALL Z 15
     8 SEL2       37 GROUP        1 Z    SEL  0     **** SEL Z 16
     9 GLL5        2 GROUP        1 Z    GLL  0     **** GLL Z 20
@<TRIPOS>SET

