#    Name: 4hnf_16W_2_ligand
#    Modification time : Tue Mar 25 01:28:32 2014

@<TRIPOS>MOLECULE
4hnf_16W_2_ligand
   43    46     1     0     0
SMALL
NO_CHARGES


@<TRIPOS>ATOM
      1 C1        -39.0560  -15.4300   17.2830 C.ar      1 16W301      0.0000 
      2 C2        -40.3580  -15.9910   17.4590 C.ar      1 16W301      0.0000 
      3 C3        -41.5080  -15.1220   17.7020 C.ar      1 16W301      0.0000 
      4 C7        -43.1970  -22.2960   16.5220 C.ar      1 16W301      0.0000 
      5 C8        -41.1790  -21.6030   17.6180 C.ar      1 16W301      0.0000 
      6 C9        -41.1060  -20.3370   16.9170 C.ar      1 16W301      0.0000 
      7 C10       -42.1590  -20.1620   16.0050 C.ar      1 16W301      0.0000 
      8 C11       -39.9520  -19.5860   17.3560 C.2       1 16W301      0.0000 
      9 C12       -39.5250  -18.2490   16.9610 C.3       1 16W301      0.0000 
     10 C13       -37.6040  -24.1720   19.7060 C.3       1 16W301      0.0000 
     11 C14       -38.9580  -23.4450   21.5810 C.3       1 16W301      0.0000 
     12 C15       -39.4790  -22.2710   20.7490 C.3       1 16W301      0.0000 
     13 C16       -39.5930  -22.5990   19.2570 C.3       1 16W301      0.0000 
     14 N2        -42.1900  -22.5700   17.4450 N.ar      1 16W301      0.0000 
     15 N4        -43.1650  -21.0980   15.8150 N.ar      1 16W301      0.0000 
     16 N5        -40.0570  -21.4950   18.3830 N.pl3     1 16W301      0.0000 
     17 N1        -39.3680  -20.3410   18.2330 N.2       1 16W301      0.0000 
     18 N3        -42.1840  -19.0790   15.2430 N.pl3     1 16W301      0.0000 
     19 O2        -40.5900  -17.3740   17.4060 O.3       1 16W301      0.0000 
     20 O1        -37.6430  -23.6310   21.0320 O.3       1 16W301      0.0000 
     21 C17       -38.3640  -23.2970   18.6660 C.3       1 16W301      0.0000 
     22 C4        -41.4110  -13.6840   17.7770 C.ar      1 16W301      0.0000 
     23 C5        -40.1030  -13.1460   17.5960 C.ar      1 16W301      0.0000 
     24 C6        -38.9740  -14.0160   17.3560 C.ar      1 16W301      0.0000 
     25 CL1       -37.4780  -13.3750   17.1460 Cl        1 16W301      0.0000 
     26 H         -38.2629  -15.9976   17.1203 H         1 16W301      0.0000 
     27 H         -42.4311  -15.5657   17.8249 H         1 16W301      0.0000 
     28 H         -43.9514  -22.9688   16.3663 H         1 16W301      0.0000 
     29 H         -39.4097  -18.1944   15.8873 H         1 16W301      0.0000 
     30 H         -38.5935  -17.9943   17.4473 H         1 16W301      0.0000 
     31 H         -38.0536  -25.1827   19.6626 H         1 16W301      0.0000 
     32 H         -36.5656  -24.2773   19.3369 H         1 16W301      0.0000 
     33 H         -39.5887  -24.2841   21.4112 H         1 16W301      0.0000 
     34 H         -38.9310  -23.1484   22.6018 H         1 16W301      0.0000 
     35 H         -38.8040  -21.4151   20.8756 H         1 16W301      0.0000 
     36 H         -40.4664  -21.9755   21.1258 H         1 16W301      0.0000 
     37 H         -40.4232  -23.4079   19.1946 H         1 16W301      0.0000 
     38 H         -41.4368  -18.4283   15.3784 H         1 16W301      0.0000 
     39 H         -42.9478  -19.0101   14.6012 H         1 16W301      0.0000 
     40 H         -38.6743  -23.9385   17.8355 H         1 16W301      0.0000 
     41 H         -37.6716  -22.5451   18.2750 H         1 16W301      0.0000 
     42 H         -42.1982  -13.1211   17.9420 H         1 16W301      0.0000 
     43 H         -39.9539  -12.1394   17.6347 H         1 16W301      0.0000 
@<TRIPOS>BOND
     1    2    1 ar   
     2   24    1 ar   
     3   26    1 1    
     4    3    2 ar   
     5   19    2 1    
     6   22    3 ar   
     7   27    3 1    
     8   14    4 ar   
     9   15    4 ar   
    10   28    4 1    
    11    6    5 ar   
    12   14    5 ar   
    13   16    5 1    
    14    7    6 ar   
    15    8    6 1    
    16   15    7 ar   
    17   18    7 1    
    18    9    8 1    
    19   17    8 2    
    20   19    9 1    
    21   29    9 1    
    22   30    9 1    
    23   20   10 1    
    24   21   10 1    
    25   31   10 1    
    26   32   10 1    
    27   12   11 1    
    28   20   11 1    
    29   33   11 1    
    30   34   11 1    
    31   13   12 1    
    32   35   12 1    
    33   36   12 1    
    34   16   13 1    
    35   21   13 1    
    36   37   13 1    
    37   17   16 1    
    38   38   18 1    
    39   39   18 1    
    40   40   21 1    
    41   41   21 1    
    42   23   22 ar   
    43   42   22 1    
    44   24   23 ar   
    45   43   23 1    
    46   25   24 1    
@<TRIPOS>SUBSTRUCTURE
     1 16W301      1 GROUP   
@<TRIPOS>SET

