#    Name: 3w0u_HPW_1_INTS_M
#    Modification time : Tue Mar 25 01:57:38 2014

@<TRIPOS>MOLECULE
3w0u_HPW_1_INTS_M
   57     0     9     0     0
SMALL
NO_CHARGES


@<TRIPOS>ATOM
      1 CA          8.5885   -6.1815  -29.1955 C.3       3 GLC5        0.0000 
      2 CA          7.8100   -6.3920  -27.7080 C.3       9 GLL5        0.0000 
      3 CA          9.3670   -5.9710  -30.6830 C.3       6 GLP5        0.0000 
      4 CA          9.2690   -5.2385  -27.2600 C.3       3 GLC5        0.0000 
      5 CA         10.7280   -4.0850  -26.8120 C.3       6 GLP5        0.0000 
      6 CA          5.4400  -15.6235  -28.2240 C.3       3 GLC5        0.0000 
      7 CA          6.4930  -14.4450  -29.1930 C.3       9 GLL5        0.0000 
      8 CA          4.3870  -16.8020  -27.2550 C.3       6 GLP5        0.0000 
      9 CA          6.1715  -15.0385  -30.6345 C.3       3 GLC5        0.0000 
     10 CA          5.8500  -15.6320  -32.0760 C.3       6 GLP5        0.0000 
     11 CA          7.3650  -15.3650  -27.9060 C.3       3 GLC5        0.0000 
     12 CA          8.2370  -16.2850  -26.6190 C.3       6 GLP5        0.0000 
     13 Zn          9.8710  -12.0560  -26.1575 Zn        2 ZIC7        0.0000 
     14 Zn          6.1800  -12.4390  -27.3700 Zn        8 ZIL7        0.0000 
     15 Zn         13.5620  -11.6730  -24.9450 Zn        5 ZIP7        0.0000 
     16 Zn         11.0800  -10.1275  -25.5330 Zn        2 ZIC7        0.0000 
     17 Zn          8.5980   -8.5820  -26.1210 Zn        8 ZIL7        0.0000 
     18 Zn         12.6820  -11.6495  -25.6050 Zn        2 ZIC7        0.0000 
     19 Zn         11.8020  -11.6260  -26.2650 Zn        8 ZIL7        0.0000 
     20 Zn         13.8535  -12.0760  -25.9980 Zn        2 ZIC7        0.0000 
     21 Zn         14.1450  -12.4790  -27.0510 Zn        8 ZIL7        0.0000 
     22 N          15.3340  -12.8705  -26.2650 N.am      1 SEC2        0.0000 
     23 N          14.1450  -12.4790  -27.0510 N.am      7 SEL2        0.0000 
     24 N          16.5230  -13.2620  -25.4790 N.am      4 SEP2        0.0000 
     25 CA         15.6615  -13.5660  -29.1860 C.3       3 GLC5        0.0000 
     26 CA         13.5210  -12.8900  -29.2330 C.3       9 GLL5        0.0000 
     27 CA         17.8020  -14.2420  -29.1390 C.3       6 GLP5        0.0000 
     28 CA         14.2685  -16.1105  -33.4675 C.3       3 GLC5        0.0000 
     29 CA         13.3180  -14.2560  -34.0610 C.3       9 GLL5        0.0000 
     30 CA         15.2190  -17.9650  -32.8740 C.3       6 GLP5        0.0000 
     31 CA         15.9925  -14.6585  -34.0905 C.3       3 GLC5        0.0000 
     32 CA         14.2770  -13.5020  -33.3860 C.3       9 GLL5        0.0000 
     33 CA         17.7080  -15.8150  -34.7950 C.3       6 GLP5        0.0000 
     34 CA          9.6375  -13.8468  -28.0470 C.3       3 GLC5        0.0000 
     35 CA          9.7000  -11.5170  -27.9760 C.3       9 GLL5        0.0000 
     36 CA         10.1680  -15.8030  -28.1160 C.3       6 GLP5        0.0000 
     37 CA         11.3472  -10.0598  -28.7387 C.3       3 GLC5        0.0000 
     38 CA         13.0050   -9.2200  -29.8330 C.3       6 GLP5        0.0000 
     39 CA         12.0338  -10.7078  -29.4960 C.3       3 GLC5        0.0000 
     40 CA         10.9320  -11.9810  -28.5040 C.3       9 GLL5        0.0000 
     41 CA         13.4020  -14.5720  -29.9618 C.3       3 GLC5        0.0000 
     42 CA         12.4890  -12.8480  -30.1800 C.3       9 GLL5        0.0000 
     43 CA         13.7990  -16.2750  -30.2170 C.3       6 GLP5        0.0000 
     44 CA         10.9719  -14.1624  -28.8927 C.3       3 GLC5        0.0000 
     45 CA         12.9453  -11.1505  -30.2136 C.3       3 GLC5        0.0000 
     46 CA         12.7660  -13.2930  -31.4820 C.3       9 GLL5        0.0000 
     47 CA         10.2845  -14.7835  -33.0928 C.3       3 GLC5        0.0000 
     48 CA         11.8190  -14.0620  -32.1630 C.3       9 GLL5        0.0000 
     49 CA          8.6110  -15.2700  -33.3800 C.3       6 GLP5        0.0000 
     50 CA         11.3030  -16.3355  -32.6878 C.3       3 GLC5        0.0000 
     51 CA         12.0970  -14.5320  -33.4480 C.3       9 GLL5        0.0000 
     52 CA         10.6480  -18.3740  -32.5700 C.3       6 GLP5        0.0000 
     53 CA         12.9969  -15.1899  -31.4261 C.3       3 GLC5        0.0000 
     54 CA         13.9678  -14.7720  -31.4793 C.3       3 GLC5        0.0000 
     55 CA         13.9960  -13.0360  -32.0970 C.3       9 GLL5        0.0000 
     56 CA         15.0262  -11.7865  -33.5397 C.3       3 GLC5        0.0000 
     57 CA         15.9160  -10.3040  -34.3380 C.3       6 GLP5        0.0000 
@<TRIPOS>BOND
@<TRIPOS>SUBSTRUCTURE
     1 SEC2       22 GROUP        1 X    SEC  0     ROOT SEC X 2
     2 ZIC7       13 GROUP        1 X    ZIC  0     **** ZIC X 5
     3 GLC5        1 GROUP        1 X    GLC  0     **** GLC X 6
     4 SEP2       24 GROUP        1 Y    SEP  0     ROOT SEP Y 9
     5 ZIP7       15 GROUP        1 Y    ZIP  0     **** ZIP Y 12
     6 GLP5        3 GROUP        1 Y    GLP  0     **** GLP Y 13
     7 SEL2       23 GROUP        1 Z    SEL  0     ROOT SEL Z 16
     8 ZIL7       14 GROUP        1 Z    ZIL  0     **** ZIL Z 19
     9 GLL5        2 GROUP        1 Z    GLL  0     **** GLL Z 20
@<TRIPOS>SET

