#    Name: 3w0u_HPW_1_ligand
#    Modification time : Tue Mar 25 01:57:38 2014

@<TRIPOS>MOLECULE
3w0u_HPW_1_ligand
   48    50     1     0     0
SMALL
NO_CHARGES


@<TRIPOS>ATOM
      1 C14         7.8100   -6.3920  -27.7080 C.3       1 HPW203      0.0000 
      2 C7          7.3380  -11.7590  -27.3840 C.ar      1 HPW203      0.0000 
      3 C8          8.5140  -12.2640  -27.9800 C.ar      1 HPW203      0.0000 
      4 C9          7.3500  -10.5150  -26.7590 C.ar      1 HPW203      0.0000 
      5 C10         8.5210   -9.7670  -26.7280 C.ar      1 HPW203      0.0000 
      6 C1          6.4930  -14.4450  -29.1930 C.3       1 HPW203      0.0000 
      7 S2          5.5370  -13.0330  -28.7320 S.o2      1 HPW203      0.0000 
      8 O3          4.1110  -13.4410  -28.5630 O.2       1 HPW203      0.0000 
      9 O4          5.6170  -11.9580  -29.7770 O.2       1 HPW203      0.0000 
     10 N5          6.1800  -12.4390  -27.3700 N.pl3     1 HPW203      0.0000 
     11 N11         8.5980   -8.5820  -26.1210 N.pl3     1 HPW203      0.0000 
     12 S13         7.5850   -7.3170  -26.2190 S.o2      1 HPW203      0.0000 
     13 O15         7.9670   -6.4380  -25.0680 O.2       1 HPW203      0.0000 
     14 O16         6.1640   -7.7720  -26.1360 O.2       1 HPW203      0.0000 
     15 C17         9.6790  -10.2820  -27.3130 C.ar      1 HPW203      0.0000 
     16 C18         9.7000  -11.5170  -27.9760 C.ar      1 HPW203      0.0000 
     17 C19        10.9320  -11.9810  -28.5040 C.2       1 HPW203      0.0000 
     18 C20        11.1930  -12.4100  -29.8140 C.2       1 HPW203      0.0000 
     19 N21        11.9990  -12.0370  -27.5730 N.am      1 HPW203      0.0000 
     20 O22        11.8020  -11.6260  -26.2650 O.co2     1 HPW203      0.0000 
     21 C24        13.2710  -12.4730  -27.9250 C.2       1 HPW203      0.0000 
     22 O25        14.1450  -12.4790  -27.0510 O.2       1 HPW203      0.0000 
     23 C26        13.5210  -12.8900  -29.2330 C.2       1 HPW203      0.0000 
     24 C27        12.4890  -12.8480  -30.1800 C.2       1 HPW203      0.0000 
     25 C28        12.7660  -13.2930  -31.4820 C.ar      1 HPW203      0.0000 
     26 C29        11.8190  -14.0620  -32.1630 C.ar      1 HPW203      0.0000 
     27 C30        12.0970  -14.5320  -33.4480 C.ar      1 HPW203      0.0000 
     28 C31        13.3180  -14.2560  -34.0610 C.ar      1 HPW203      0.0000 
     29 C32        14.2770  -13.5020  -33.3860 C.ar      1 HPW203      0.0000 
     30 C33        13.9960  -13.0360  -32.0970 C.ar      1 HPW203      0.0000 
     31 H           8.4957  -13.1931  -28.4220 H         1 HPW203      0.0000 
     32 H           6.4944  -10.1515  -26.3219 H         1 HPW203      0.0000 
     33 H           5.6107  -12.6457  -26.5555 H         1 HPW203      0.0000 
     34 H           9.4025   -8.3307  -25.4554 H         1 HPW203      0.0000 
     35 H          10.5616   -9.7301  -27.2562 H         1 HPW203      0.0000 
     36 H          10.4450  -12.4086  -30.5147 H         1 HPW203      0.0000 
     37 H          14.4492  -13.2241  -29.5010 H         1 HPW203      0.0000 
     38 H          10.9206  -14.2809  -31.7191 H         1 HPW203      0.0000 
     39 H          11.3884  -15.0911  -33.9497 H         1 HPW203      0.0000 
     40 H          13.5105  -14.6063  -35.0055 H         1 HPW203      0.0000 
     41 H          15.1740  -13.2912  -33.8250 H         1 HPW203      0.0000 
     42 H          14.7130  -12.4899  -31.5880 H         1 HPW203      0.0000 
     43 H           8.7369   -6.0235  -27.7798 H         1 HPW203      0.0000 
     44 H           7.6538   -6.9530  -28.5209 H         1 HPW203      0.0000 
     45 H           7.1812   -5.6163  -27.7619 H         1 HPW203      0.0000 
     46 H           7.4591  -14.2163  -29.3131 H         1 HPW203      0.0000 
     47 H           6.4463  -15.1667  -28.5024 H         1 HPW203      0.0000 
     48 H           6.1766  -14.8426  -30.0543 H         1 HPW203      0.0000 
@<TRIPOS>BOND
     1   12    1 1    
     2   43    1 1    
     3   44    1 1    
     4   45    1 1    
     5    3    2 ar   
     6    4    2 ar   
     7   10    2 1    
     8   16    3 ar   
     9   31    3 1    
    10    5    4 ar   
    11   32    4 1    
    12   11    5 1    
    13   15    5 ar   
    14    7    6 1    
    15   46    6 1    
    16   47    6 1    
    17   48    6 1    
    18    8    7 2    
    19    9    7 2    
    20   10    7 1    
    21   33   10 1    
    22   12   11 1    
    23   34   11 1    
    24   13   12 2    
    25   14   12 2    
    26   16   15 ar   
    27   35   15 1    
    28   17   16 1    
    29   18   17 2    
    30   19   17 1    
    31   24   18 1    
    32   36   18 1    
    33   20   19 1    
    34   21   19 am   
    35   22   21 2    
    36   23   21 1    
    37   24   23 2    
    38   37   23 1    
    39   25   24 1    
    40   26   25 ar   
    41   30   25 ar   
    42   27   26 ar   
    43   38   26 1    
    44   28   27 ar   
    45   39   27 1    
    46   29   28 ar   
    47   40   28 1    
    48   30   29 ar   
    49   41   29 1    
    50   42   30 1    
@<TRIPOS>SUBSTRUCTURE
     1 HPW203      1 GROUP   
@<TRIPOS>SET

