#    Name: 3evg_SAH_1_INTS_M
#    Modification time : Tue Mar 25 02:35:00 2014

@<TRIPOS>MOLECULE
3evg_SAH_1_INTS_M
   60     0    12     0     0
SMALL
NO_CHARGES


@<TRIPOS>ATOM
      1 OD1       -91.5015   65.9245  -37.0185 O.co2     3 ASC3        0.0000 
      2 OD1       -91.2610   65.5860  -38.6640 O.co2    11 ASL3        0.0000 
      3 OD1       -91.7420   66.2630  -35.3730 O.co2     7 ASP3        0.0000 
      4 O         -91.5015   65.9245  -37.0185 O.2       1 ALC1        0.0000 
      5 O         -91.2610   65.5860  -38.6640 O.2       9 ALL1        0.0000 
      6 O         -91.7420   66.2630  -35.3730 O.2       5 ALP1        0.0000 
      7 CA        -92.3920   65.8275  -39.2585 C.3       4 GLC5        0.0000 
      8 CA        -91.1260   64.1260  -38.8060 C.3      12 GLL5        0.0000 
      9 CA        -93.6580   67.5290  -39.7110 C.3       8 GLP5        0.0000 
     10 CA        -90.3175   65.4160  -36.5645 C.3       4 GLC5        0.0000 
     11 CA        -90.9660   63.5030  -37.4240 C.3      12 GLL5        0.0000 
     12 CA        -89.6690   67.3290  -35.7050 C.3       8 GLP5        0.0000 
     13 CA        -88.5535   61.9395  -38.7735 C.3       4 GLC5        0.0000 
     14 CA        -89.5170   63.0550  -37.2300 C.3      12 GLL5        0.0000 
     15 CA        -87.5900   60.8240  -40.3170 C.3       8 GLP5        0.0000 
     16 N         -93.6505   61.9900  -40.1265 N.am      2 SEC2        0.0000 
     17 N         -92.2910   62.4510  -40.0150 N.am     10 SEL2        0.0000 
     18 N         -95.0100   61.5290  -40.2380 N.am      6 SEP2        0.0000 
     19 N         -92.4135   62.8380  -41.5485 N.am      2 SEC2        0.0000 
     20 N         -92.5360   63.2250  -43.0820 N.am      6 SEP2        0.0000 
     21 CA        -86.5765   64.7250  -34.1630 C.3       4 GLC5        0.0000 
     22 CA        -87.4760   63.0470  -35.3470 C.3      12 GLL5        0.0000 
     23 CA        -85.6770   66.4030  -32.9790 C.3       8 GLP5        0.0000 
     24 CA        -85.3755   63.7290  -37.3195 C.3       4 GLC5        0.0000 
     25 CA        -86.3620   62.3080  -36.1080 C.3      12 GLL5        0.0000 
     26 CA        -84.3890   65.1500  -38.5310 C.3       8 GLP5        0.0000 
     27 CA        -85.3785   62.2075  -38.0945 C.3       4 GLC5        0.0000 
     28 CA        -84.3950   62.1070  -40.0810 C.3       8 GLP5        0.0000 
     29 CA        -84.2640   63.5275  -37.3140 C.3       4 GLC5        0.0000 
     30 CA        -84.1390   61.9050  -36.0970 C.3      12 GLL5        0.0000 
     31 CA        -84.2670   62.0060  -38.0890 C.3       4 GLC5        0.0000 
     32 CA        -80.3090   61.4270  -35.1950 C.3       4 GLC5        0.0000 
     33 CA        -80.8300   63.0340  -35.1360 C.3      12 GLL5        0.0000 
     34 CA        -79.7880   59.8200  -35.2540 C.3       8 GLP5        0.0000 
     35 CA        -79.5335   61.8305  -36.1260 C.3       4 GLC5        0.0000 
     36 CA        -79.6210   63.5660  -35.5360 C.3      12 GLL5        0.0000 
     37 CA        -79.4460   60.0950  -36.7160 C.3       8 GLP5        0.0000 
     38 CA        -77.9405   63.4540  -36.8160 C.3       4 GLC5        0.0000 
     39 CA        -76.2600   63.3420  -38.0960 C.3       8 GLP5        0.0000 
     40 CA        -79.4910   65.3945  -36.1480 C.3       4 GLC5        0.0000 
     41 CA        -79.3610   67.2230  -36.7600 C.3       8 GLP5        0.0000 
     42 O         -77.0360   64.1870  -35.0965 O.2       1 ALC1        0.0000 
     43 O         -78.6660   63.8340  -34.6590 O.2       9 ALL1        0.0000 
     44 O         -75.4060   64.5400  -35.5340 O.2       5 ALP1        0.0000 
     45 N         -78.3785   64.6385  -37.5215 N.am      2 SEC2        0.0000 
     46 N         -79.4170   63.7770  -36.8560 N.am     10 SEL2        0.0000 
     47 N         -77.3400   65.5000  -38.1870 N.am      6 SEP2        0.0000 
     48 CA        -82.3645   64.3145  -38.1350 C.3       4 GLC5        0.0000 
     49 CA        -80.3400   63.4790  -37.7390 C.3      12 GLL5        0.0000 
     50 CA        -81.1635   62.7875  -39.1990 C.3       4 GLC5        0.0000 
     51 CA        -81.9870   62.0960  -40.6590 C.3       8 GLP5        0.0000 
     52 CA        -79.8930   61.7870  -37.2275 C.3       4 GLC5        0.0000 
     53 CA        -78.3000   63.4105  -37.9175 C.3       4 GLC5        0.0000 
     54 CA        -80.0330   65.1195  -38.4525 C.3       4 GLC5        0.0000 
     55 CA        -79.7260   66.7600  -39.1660 C.3       8 GLP5        0.0000 
     56 CA        -83.0815   63.9435  -37.3130 C.3       4 GLC5        0.0000 
     57 CA        -81.7740   62.7370  -36.0950 C.3      12 GLL5        0.0000 
     58 CA        -80.6100   61.4160  -36.4055 C.3       4 GLC5        0.0000 
     59 CA        -81.8014   64.7953  -35.5408 C.3       4 GLC5        0.0000 
     60 CA        -82.6030   66.5720  -35.3660 C.3       8 GLP5        0.0000 
@<TRIPOS>BOND
@<TRIPOS>SUBSTRUCTURE
     1 ALC1        4 GROUP        1 X    ALC  0     ROOT ALC X 1
     2 SEC2       16 GROUP        1 X    SEC  0     **** SEC X 2
     3 ASC3        1 GROUP        1 X    ASC  0     **** ASC X 3
     4 GLC5        7 GROUP        1 X    GLC  0     **** GLC X 6
     5 ALP1        6 GROUP        1 Y    ALP  0     ROOT ALP Y 8
     6 SEP2       18 GROUP        1 Y    SEP  0     **** SEP Y 9
     7 ASP3        3 GROUP        1 Y    ASP  0     **** ASP Y 10
     8 GLP5        9 GROUP        1 Y    GLP  0     **** GLP Y 13
     9 ALL1        5 GROUP        1 Z    ALL  0     ROOT ALL Z 15
    10 SEL2       17 GROUP        1 Z    SEL  0     **** SEL Z 16
    11 ASL3        2 GROUP        1 Z    ASL  0     **** ASL Z 17
    12 GLL5        8 GROUP        1 Z    GLL  0     **** GLL Z 20
@<TRIPOS>SET

