#    Name: 3evg_SAH_1_ligand
#    Modification time : Tue Mar 25 02:35:00 2014

@<TRIPOS>MOLECULE
3evg_SAH_1_ligand
   46    48     1     0     0
SMALL
NO_CHARGES


@<TRIPOS>ATOM
      1 N         -91.2610   65.5860  -38.6640 N.4       1 SAH901      0.0000 
      2 CA        -91.1260   64.1260  -38.8060 C.3       1 SAH901      0.0000 
      3 CB        -90.9660   63.5030  -37.4240 C.3       1 SAH901      0.0000 
      4 CG        -89.5170   63.0550  -37.2300 C.3       1 SAH901      0.0000 
      5 SD        -89.1640   62.3740  -35.5670 S.3       1 SAH901      0.0000 
      6 C         -92.3800   63.5780  -39.4650 C.2       1 SAH901      0.0000 
      7 O         -93.4000   64.2780  -39.4000 O.co2     1 SAH901      0.0000 
      8 OXT       -92.2910   62.4510  -40.0150 O.co2     1 SAH901      0.0000 
      9 C5'       -87.4760   63.0470  -35.3470 C.3       1 SAH901      0.0000 
     10 C4'       -86.3620   62.3080  -36.1080 C.3       1 SAH901      0.0000 
     11 O4'       -85.1040   62.9200  -35.7640 O.3       1 SAH901      0.0000 
     12 C3'       -86.2370   60.8450  -35.6630 C.3       1 SAH901      0.0000 
     13 O3'       -86.6800   59.9850  -36.7180 O.3       1 SAH901      0.0000 
     14 C2'       -84.7280   60.6430  -35.4590 C.3       1 SAH901      0.0000 
     15 O2'       -84.3150   59.5140  -36.2350 O.3       1 SAH901      0.0000 
     16 C1'       -84.1390   61.9050  -36.0970 C.3       1 SAH901      0.0000 
     17 N9        -82.8490   62.2660  -35.4560 N.pl3     1 SAH901      0.0000 
     18 C8        -82.5870   62.2590  -34.1540 C.2       1 SAH901      0.0000 
     19 N7        -81.3590   62.7280  -33.9450 N.2       1 SAH901      0.0000 
     20 C5        -80.8300   63.0340  -35.1360 C.ar      1 SAH901      0.0000 
     21 C6        -79.6210   63.5660  -35.5360 C.ar      1 SAH901      0.0000 
     22 N6        -78.6660   63.8340  -34.6590 N.pl3     1 SAH901      0.0000 
     23 N1        -79.4170   63.7770  -36.8560 N.ar      1 SAH901      0.0000 
     24 C2        -80.3400   63.4790  -37.7390 C.ar      1 SAH901      0.0000 
     25 N3        -81.5090   62.9640  -37.3890 N.ar      1 SAH901      0.0000 
     26 C4        -81.7740   62.7370  -36.0950 C.ar      1 SAH901      0.0000 
     27 H         -90.2788   63.8813  -39.4014 H         1 SAH901      0.0000 
     28 H         -91.6211   62.6444  -37.3364 H         1 SAH901      0.0000 
     29 H         -91.2192   64.2347  -36.6661 H         1 SAH901      0.0000 
     30 H         -88.8035   63.8597  -37.2961 H         1 SAH901      0.0000 
     31 H         -89.2281   62.2379  -37.8702 H         1 SAH901      0.0000 
     32 H         -87.3573   63.0081  -34.2709 H         1 SAH901      0.0000 
     33 H         -87.6012   64.0753  -35.6643 H         1 SAH901      0.0000 
     34 H         -86.5415   62.3475  -37.1441 H         1 SAH901      0.0000 
     35 H         -86.7282   60.7123  -34.7581 H         1 SAH901      0.0000 
     36 H         -84.5062   60.6098  -34.4646 H         1 SAH901      0.0000 
     37 H         -84.0534   61.7701  -37.1231 H         1 SAH901      0.0000 
     38 H         -83.2021   61.9555  -33.4535 H         1 SAH901      0.0000 
     39 H         -78.8828   63.6459  -33.7011 H         1 SAH901      0.0000 
     40 H         -77.8144   64.2002  -35.0340 H         1 SAH901      0.0000 
     41 H         -80.1484   63.6549  -38.7733 H         1 SAH901      0.0000 
     42 H         -91.2185   65.8715  -37.7066 H         1 SAH901      0.0000 
     43 H         -90.5353   66.0749  -39.1481 H         1 SAH901      0.0000 
     44 H         -92.1312   65.9159  -39.0300 H         1 SAH901      0.0000 
     45 H         -87.0774   59.1923  -36.2558 H         1 SAH901      0.0000 
     46 H         -85.1357   59.2242  -36.7273 H         1 SAH901      0.0000 
@<TRIPOS>BOND
     1    2    1 1    
     2   42    1 1    
     3   43    1 1    
     4   44    1 1    
     5    3    2 1    
     6    6    2 1    
     7   27    2 1    
     8    4    3 1    
     9   28    3 1    
    10   29    3 1    
    11    5    4 1    
    12   30    4 1    
    13   31    4 1    
    14    9    5 1    
    15    7    6 ar   
    16    8    6 ar   
    17   10    9 1    
    18   32    9 1    
    19   33    9 1    
    20   11   10 1    
    21   12   10 1    
    22   34   10 1    
    23   16   11 1    
    24   13   12 1    
    25   14   12 1    
    26   35   12 1    
    27   45   13 1    
    28   15   14 1    
    29   16   14 1    
    30   36   14 1    
    31   46   15 1    
    32   17   16 1    
    33   37   16 1    
    34   18   17 1    
    35   26   17 1    
    36   19   18 2    
    37   38   18 1    
    38   20   19 1    
    39   21   20 ar   
    40   26   20 ar   
    41   22   21 1    
    42   23   21 ar   
    43   39   22 1    
    44   40   22 1    
    45   24   23 ar   
    46   25   24 ar   
    47   41   24 1    
    48   26   25 ar   
@<TRIPOS>SUBSTRUCTURE
     1 SAH901      1 GROUP   
@<TRIPOS>SET

