#    Name: 1kqn_NAD_1_INTS_M
#    Modification time : Tue Mar 25 10:27:04 2014

@<TRIPOS>MOLECULE
1kqn_NAD_1_INTS_M
   85     0    12     0     0
SMALL
NO_CHARGES


@<TRIPOS>ATOM
      1 N           7.2135   41.0155   10.7590 N.am      2 SEC2        0.0000 
      2 N           8.1580   40.5350   11.7000 N.am     10 SEL2        0.0000 
      3 N           6.2690   41.4960    9.8180 N.am      6 SEP2        0.0000 
      4 NZ         11.1890   42.5240   11.5070 N.4       3 LYC4        0.0000 
      5 NZ         10.5850   40.7180   12.0930 N.4      11 LYL4        0.0000 
      6 NZ         11.7930   44.3300   10.9210 N.4       7 LYP4        0.0000 
      7 CA          6.7820   41.0165   14.3695 C.3       4 GLC5        0.0000 
      8 CA          7.9510   39.2880   14.5580 C.3      12 GLL5        0.0000 
      9 CA          5.6130   42.7450   14.1810 C.3       8 GLP5        0.0000 
     10 CA          6.1000   38.7695   13.5115 C.3       4 GLC5        0.0000 
     11 CA          4.2490   38.2510   12.4650 C.3       8 GLP5        0.0000 
     12 CA          8.9270   40.9125   18.1875 C.3       4 GLC5        0.0000 
     13 CA          9.3330   39.2830   16.7470 C.3      12 GLL5        0.0000 
     14 CA          8.5210   42.5420   19.6280 C.3       8 GLP5        0.0000 
     15 N           9.3705   38.2135   19.0710 N.am      2 SEC2        0.0000 
     16 N           8.7660   39.3370   18.0680 N.am     10 SEL2        0.0000 
     17 N           9.9750   37.0900   20.0740 N.am      6 SEP2        0.0000 
     18 N          10.7350   37.8530   18.9405 N.am      2 SEC2        0.0000 
     19 N          11.4950   38.6160   17.8070 N.am     10 SEL2        0.0000 
     20 CA          8.5310   35.7470   16.8605 C.3       4 GLC5        0.0000 
     21 CA         10.1080   37.0540   16.3800 C.3      12 GLL5        0.0000 
     22 CA          6.9540   34.4400   17.3410 C.3       8 GLP5        0.0000 
     23 O          14.3270   31.1865   14.5250 O.2       1 ALC1        0.0000 
     24 O          13.9300   32.5990   15.0120 O.2       9 ALL1        0.0000 
     25 O          14.7240   29.7740   14.0380 O.2       5 ALP1        0.0000 
     26 N          12.5805   31.1565   17.3235 N.am      2 SEC2        0.0000 
     27 N          12.4560   32.5250   16.7810 N.am     10 SEL2        0.0000 
     28 N          12.7050   29.7880   17.8660 N.am      6 SEP2        0.0000 
     29 CA         10.8595   33.1335   15.4615 C.3       4 GLC5        0.0000 
     30 CA         11.4670   33.1110   17.5250 C.3      12 GLL5        0.0000 
     31 CA         10.2520   33.1560   13.3980 C.3       8 GLP5        0.0000 
     32 CA          9.9120   32.7520   17.5450 C.3       4 GLC5        0.0000 
     33 CA          8.3570   32.3930   17.5650 C.3       8 GLP5        0.0000 
     34 CA         11.3410   34.7305   18.8045 C.3       4 GLC5        0.0000 
     35 CA         11.2150   36.3500   20.0840 C.3       8 GLP5        0.0000 
     36 CA         10.6095   31.7290   18.9770 C.3       4 GLC5        0.0000 
     37 CA          9.7520   30.3470   20.4290 C.3       8 GLP5        0.0000 
     38 CA          9.9030   33.6720   16.9210 C.3       4 GLC5        0.0000 
     39 CA         11.4490   34.9510   16.2770 C.3      12 GLL5        0.0000 
     40 CA         11.3320   35.6505   18.1805 C.3       4 GLC5        0.0000 
     41 N           7.7095   42.7540   12.7105 N.am      2 SEC2        0.0000 
     42 N           8.8900   42.2150   13.3870 N.am     10 SEL2        0.0000 
     43 N           6.5290   43.2930   12.0340 N.am      6 SEP2        0.0000 
     44 NZ         11.0300   44.3735   11.9620 N.4       3 LYC4        0.0000 
     45 NZ         10.2670   44.4170   13.0030 N.4      11 LYL4        0.0000 
     46 N           9.2270   44.9035   11.8780 N.am      2 SEC2        0.0000 
     47 N          10.2670   44.4170   13.0030 N.am     10 SEL2        0.0000 
     48 N           8.1870   45.3900   10.7530 N.am      6 SEP2        0.0000 
     49 N          11.0300   44.3735   11.9620 N.am      2 SEC2        0.0000 
     50 N          11.7930   44.3300   10.9210 N.am      6 SEP2        0.0000 
     51 CA          9.2455   47.1365   14.9940 C.3       4 GLC5        0.0000 
     52 CA          8.8980   45.1430   15.6510 C.3      12 GLL5        0.0000 
     53 CA          9.5930   49.1300   14.3370 C.3       8 GLP5        0.0000 
     54 CA          8.0970   43.8725   18.0470 C.3       4 GLC5        0.0000 
     55 CA          7.6730   45.2030   16.4660 C.3      12 GLL5        0.0000 
     56 CA          5.4550   47.4390   14.5285 C.3       4 GLC5        0.0000 
     57 CA          6.5680   46.1330   15.9520 C.3      12 GLL5        0.0000 
     58 CA          4.3420   48.7450   13.1050 C.3       8 GLP5        0.0000 
     59 CA          7.8960   48.7935   15.7305 C.3       4 GLC5        0.0000 
     60 CA          6.9380   47.4050   16.6000 C.3      12 GLL5        0.0000 
     61 CA          8.8540   50.1820   14.8610 C.3       8 GLP5        0.0000 
     62 N           5.6350   49.8370   16.1675 N.am      2 SEC2        0.0000 
     63 N           5.8700   48.3860   16.5920 N.am     10 SEL2        0.0000 
     64 N           5.4000   51.2880   15.7430 N.am      6 SEP2        0.0000 
     65 O           4.8105   48.3230   17.2600 O.2       1 ALC1        0.0000 
     66 O           5.8700   48.3860   16.5920 O.2       9 ALL1        0.0000 
     67 O           3.7510   48.2600   17.9280 O.2       5 ALP1        0.0000 
     68 CA          7.8685   46.8110   20.1100 C.3       4 GLC5        0.0000 
     69 CA          7.3660   46.8900   18.0050 C.3      12 GLL5        0.0000 
     70 CA          8.3710   46.7320   22.2150 C.3       8 GLP5        0.0000 
     71 CA          5.9720   47.9485   20.6045 C.3       4 GLC5        0.0000 
     72 CA          7.6210   48.7160   19.6270 C.3      12 GLL5        0.0000 
     73 CA          4.3230   47.1810   21.5820 C.3       8 GLP5        0.0000 
     74 CA          7.7390   37.6185   13.7138 C.3       4 GLC5        0.0000 
     75 CA          7.3010   36.3450   12.2560 C.3       8 GLP5        0.0000 
     76 CA         10.7950   37.0613   18.2937 C.3       4 GLC5        0.0000 
     77 CA         11.1671   33.7779   14.6614 C.3       4 GLC5        0.0000 
     78 CA         12.4540   34.4970   15.4340 C.3      12 GLL5        0.0000 
     79 CA          6.5199   44.1990   15.0931 C.3       4 GLC5        0.0000 
     80 CA         11.8298   49.8890   19.6875 C.3       4 GLC5        0.0000 
     81 CA          9.8200   49.9230   19.9340 C.3      12 GLL5        0.0000 
     82 CA         13.5660   50.3220   19.9690 C.3       8 GLP5        0.0000 
     83 CA          9.6840   51.0710   18.4145 C.3       4 GLC5        0.0000 
     84 CA         10.3670   48.9890   18.8780 C.3      12 GLL5        0.0000 
     85 CA          9.6320   52.7320   17.3340 C.3       8 GLP5        0.0000 
@<TRIPOS>BOND
@<TRIPOS>SUBSTRUCTURE
     1 ALC1       23 GROUP        1 X    ALC  0     ROOT ALC X 1
     2 SEC2        1 GROUP        1 X    SEC  0     **** SEC X 2
     3 LYC4        4 GROUP        1 X    LYC  0     **** LYC X 4
     4 GLC5        7 GROUP        1 X    GLC  0     **** GLC X 6
     5 ALP1       25 GROUP        1 Y    ALP  0     ROOT ALP Y 8
     6 SEP2        3 GROUP        1 Y    SEP  0     **** SEP Y 9
     7 LYP4        6 GROUP        1 Y    LYP  0     **** LYP Y 11
     8 GLP5        9 GROUP        1 Y    GLP  0     **** GLP Y 13
     9 ALL1       24 GROUP        1 Z    ALL  0     ROOT ALL Z 15
    10 SEL2        2 GROUP        1 Z    SEL  0     **** SEL Z 16
    11 LYL4        5 GROUP        1 Z    LYL  0     **** LYL Z 18
    12 GLL5        8 GROUP        1 Z    GLL  0     **** GLL Z 20
@<TRIPOS>SET

