#    Name: 1kqn_NAD_1_ligand
#    Modification time : Tue Mar 25 10:27:04 2014

@<TRIPOS>MOLECULE
1kqn_NAD_1_ligand
   70    74     1     0     0
SMALL
NO_CHARGES


@<TRIPOS>ATOM
      1 PA          9.2300   40.8070   12.6970 P.3       1 NAD777      0.0000 
      2 O1A         8.1580   40.5350   11.7000 O.co2     1 NAD777      0.0000 
      3 O2A        10.5850   40.7180   12.0930 O.co2     1 NAD777      0.0000 
      4 O5B         9.1950   39.6940   13.8860 O.3       1 NAD777      0.0000 
      5 C5B         7.9510   39.2880   14.5580 C.3       1 NAD777      0.0000 
      6 C4B         8.4030   38.4960   15.7850 C.3       1 NAD777      0.0000 
      7 O4B         9.1670   37.2910   15.4160 O.3       1 NAD777      0.0000 
      8 C3B         9.3330   39.2830   16.7470 C.3       1 NAD777      0.0000 
      9 O3B         8.7660   39.3370   18.0680 O.3       1 NAD777      0.0000 
     10 C2B        10.6420   38.4910   16.6270 C.3       1 NAD777      0.0000 
     11 O2B        11.4950   38.6160   17.8070 O.3       1 NAD777      0.0000 
     12 C1B        10.1080   37.0540   16.3800 C.3       1 NAD777      0.0000 
     13 N9A        11.1140   36.1870   15.8140 N.pl3     1 NAD777      0.0000 
     14 C8A        11.9120   36.4250   14.7390 C.2       1 NAD777      0.0000 
     15 N7A        12.7560   35.4140   14.4610 N.2       1 NAD777      0.0000 
     16 C5A        12.4540   34.4970   15.4340 C.ar      1 NAD777      0.0000 
     17 C6A        12.9770   33.2000   15.7110 C.ar      1 NAD777      0.0000 
     18 N6A        13.9300   32.5990   15.0120 N.pl3     1 NAD777      0.0000 
     19 N1A        12.4560   32.5250   16.7810 N.ar      1 NAD777      0.0000 
     20 C2A        11.4670   33.1110   17.5250 C.ar      1 NAD777      0.0000 
     21 N3A        10.9180   34.3010   17.3380 N.ar      1 NAD777      0.0000 
     22 C4A        11.4490   34.9510   16.2770 C.ar      1 NAD777      0.0000 
     23 O3          8.8900   42.2150   13.3870 O.3       1 NAD777      0.0000 
     24 PN          9.8710   43.3790   13.9640 P.3       1 NAD777      0.0000 
     25 O1N        10.2670   44.4170   13.0030 O.co2     1 NAD777      0.0000 
     26 O2N        11.0780   42.7660   14.6050 O.co2     1 NAD777      0.0000 
     27 O5D         8.7740   43.8970   14.9330 O.3       1 NAD777      0.0000 
     28 C5D         8.8980   45.1430   15.6510 C.3       1 NAD777      0.0000 
     29 C4D         7.6730   45.2030   16.4660 C.3       1 NAD777      0.0000 
     30 O4D         8.1130   45.7150   17.7260 O.3       1 NAD777      0.0000 
     31 C3D         6.5680   46.1330   15.9520 C.3       1 NAD777      0.0000 
     32 O3D         5.2850   45.6870   16.4430 O.3       1 NAD777      0.0000 
     33 C2D         6.9380   47.4050   16.6000 C.3       1 NAD777      0.0000 
     34 O2D         5.8700   48.3860   16.5920 O.3       1 NAD777      0.0000 
     35 C1D         7.3660   46.8900   18.0050 C.3       1 NAD777      0.0000 
     36 N1N         8.1940   47.8870   18.6580 N.pl3     1 NAD777      0.0000 
     37 C2N         7.6210   48.7160   19.6270 C.ar      1 NAD777      0.0000 
     38 C3N         8.3900   49.7390   20.2900 C.ar      1 NAD777      0.0000 
     39 C7N         7.6350   50.5280   21.2900 C.2       1 NAD777      0.0000 
     40 O7N         8.3240   51.4120   21.8450 O.2       1 NAD777      0.0000 
     41 N7N         6.3160   50.3090   21.5840 N.am      1 NAD777      0.0000 
     42 C4N         9.8200   49.9230   19.9340 C.ar      1 NAD777      0.0000 
     43 C5N        10.3670   48.9890   18.8780 C.ar      1 NAD777      0.0000 
     44 C6N         9.5690   48.0660   18.3160 C.ar      1 NAD777      0.0000 
     45 H           7.3630   38.6481   13.9307 H         1 NAD777      0.0000 
     46 H           7.3908   40.1414   14.8844 H         1 NAD777      0.0000 
     47 H           7.5337   38.1929   16.3632 H         1 NAD777      0.0000 
     48 H           9.4849   40.2415   16.2994 H         1 NAD777      0.0000 
     49 H          11.1204   38.8059   15.7210 H         1 NAD777      0.0000 
     50 H           9.7011   36.7015   17.2738 H         1 NAD777      0.0000 
     51 H          11.8704   37.2707   14.2113 H         1 NAD777      0.0000 
     52 H          13.8774   31.6016   14.9633 H         1 NAD777      0.0000 
     53 H          14.6151   33.1975   14.5968 H         1 NAD777      0.0000 
     54 H          11.1003   32.5143   18.3657 H         1 NAD777      0.0000 
     55 H           8.9290   45.9793   14.9738 H         1 NAD777      0.0000 
     56 H           9.7639   45.1374   16.2907 H         1 NAD777      0.0000 
     57 H           7.2686   44.2175   16.6041 H         1 NAD777      0.0000 
     58 H           6.6383   46.2057   14.9224 H         1 NAD777      0.0000 
     59 H           7.8443   47.7638   16.1275 H         1 NAD777      0.0000 
     60 H           6.4820   46.6791   18.5437 H         1 NAD777      0.0000 
     61 H           6.6310   48.6083   19.8853 H         1 NAD777      0.0000 
     62 H           5.9260   50.8786   22.3075 H         1 NAD777      0.0000 
     63 H           5.8581   49.5986   21.0495 H         1 NAD777      0.0000 
     64 H          10.3766   50.5933   20.3438 H         1 NAD777      0.0000 
     65 H          11.3506   49.1193   18.6440 H         1 NAD777      0.0000 
     66 H           9.9492   47.4164   17.5724 H         1 NAD777      0.0000 
     67 H           8.4420   40.2773   18.1721 H         1 NAD777      0.0000 
     68 H          10.8625   38.7428   18.5712 H         1 NAD777      0.0000 
     69 H           4.6633   45.7818   15.6655 H         1 NAD777      0.0000 
     70 H           5.4495   48.3181   17.4967 H         1 NAD777      0.0000 
@<TRIPOS>BOND
     1    2    1 ar   
     2    3    1 ar   
     3    4    1 1    
     4   23    1 1    
     5    5    4 1    
     6    6    5 1    
     7   45    5 1    
     8   46    5 1    
     9    7    6 1    
    10    8    6 1    
    11   47    6 1    
    12   12    7 1    
    13    9    8 1    
    14   10    8 1    
    15   48    8 1    
    16   67    9 1    
    17   11   10 1    
    18   12   10 1    
    19   49   10 1    
    20   68   11 1    
    21   13   12 1    
    22   50   12 1    
    23   14   13 1    
    24   22   13 1    
    25   15   14 2    
    26   51   14 1    
    27   16   15 1    
    28   17   16 ar   
    29   22   16 ar   
    30   18   17 1    
    31   19   17 ar   
    32   52   18 1    
    33   53   18 1    
    34   20   19 ar   
    35   21   20 ar   
    36   54   20 1    
    37   22   21 ar   
    38   24   23 1    
    39   25   24 ar   
    40   26   24 ar   
    41   27   24 1    
    42   28   27 1    
    43   29   28 1    
    44   55   28 1    
    45   56   28 1    
    46   30   29 1    
    47   31   29 1    
    48   57   29 1    
    49   35   30 1    
    50   32   31 1    
    51   33   31 1    
    52   58   31 1    
    53   69   32 1    
    54   34   33 1    
    55   35   33 1    
    56   59   33 1    
    57   70   34 1    
    58   36   35 1    
    59   60   35 1    
    60   37   36 ar   
    61   44   36 ar   
    62   38   37 ar   
    63   61   37 1    
    64   39   38 1    
    65   42   38 ar   
    66   40   39 2    
    67   41   39 am   
    68   62   41 1    
    69   63   41 1    
    70   43   42 ar   
    71   64   42 1    
    72   44   43 ar   
    73   65   43 1    
    74   66   44 1    
@<TRIPOS>SUBSTRUCTURE
     1 NAD777      1 GROUP   
@<TRIPOS>SET

