#    Name: 2ph6_712_1_INTS_M
#    Modification time : Mon Mar 24 18:59:02 2014

@<TRIPOS>MOLECULE
2ph6_712_1_INTS_M
  104     0    12     0     0
SMALL
NO_CHARGES


@<TRIPOS>ATOM
      1 OD1        31.9535   38.1840    4.5470 O.co2     3 ASC3        0.0000 
      2 OD1        30.9790   38.3830    3.7150 O.co2    11 ASL3        0.0000 
      3 OD1        32.9280   37.9850    5.3790 O.co2     7 ASP3        0.0000 
      4 OD1        31.9210   37.0930    4.5855 O.co2     3 ASC3        0.0000 
      5 OD1        32.8630   35.8030    5.4560 O.co2     7 ASP3        0.0000 
      6 OD1        30.3640   38.0770    5.2000 O.co2     3 ASC3        0.0000 
      7 OD1        29.7490   37.7710    6.6850 O.co2     7 ASP3        0.0000 
      8 OD1        29.7145   38.2065    4.3335 O.co2     3 ASC3        0.0000 
      9 OD1        28.4500   38.0300    4.9520 O.co2     7 ASP3        0.0000 
     10 O          31.9535   38.1840    4.5470 O.2       1 ALC1        0.0000 
     11 O          30.9790   38.3830    3.7150 O.2       9 ALL1        0.0000 
     12 O          32.9280   37.9850    5.3790 O.2       5 ALP1        0.0000 
     13 O          30.3640   38.0770    5.2000 O.2       1 ALC1        0.0000 
     14 O          29.7490   37.7710    6.6850 O.2       5 ALP1        0.0000 
     15 O          29.7145   38.2065    4.3335 O.2       1 ALC1        0.0000 
     16 O          28.4500   38.0300    4.9520 O.2       5 ALP1        0.0000 
     17 O          30.9810   40.0165    4.0315 O.2       1 ALC1        0.0000 
     18 O          30.9830   41.6500    4.3480 O.2       5 ALP1        0.0000 
     19 N          29.2690   36.8360   -1.0550 N.am      2 SEC2        0.0000 
     20 N          29.6890   37.4030    0.4750 N.am     10 SEL2        0.0000 
     21 N          28.8490   36.2690   -2.5850 N.am      6 SEP2        0.0000 
     22 CA         30.0995   35.3440    4.6425 C.3       4 GLC5        0.0000 
     23 CA         30.6300   36.1510    2.9050 C.3      12 GLL5        0.0000 
     24 CA         29.5690   34.5370    6.3800 C.3       8 GLP5        0.0000 
     25 CA         31.8225   34.5735    3.3870 C.3       4 GLC5        0.0000 
     26 CA         33.0150   32.9960    3.8690 C.3       8 GLP5        0.0000 
     27 CA         32.6845   36.6720    0.3025 C.3       4 GLC5        0.0000 
     28 CA         32.4580   37.6230    1.8490 C.3      12 GLL5        0.0000 
     29 CA         32.9110   35.7210   -1.2440 C.3       8 GLP5        0.0000 
     30 CA         32.0130   41.5710   -1.7785 C.3       4 GLC5        0.0000 
     31 CA         33.2620   40.6680   -0.3130 C.3      12 GLL5        0.0000 
     32 CA         30.7640   42.4740   -3.2440 C.3       8 GLP5        0.0000 
     33 CA         32.2230   37.8195   -0.9295 C.3       4 GLC5        0.0000 
     34 CA         32.7730   39.4250    0.0980 C.3      12 GLL5        0.0000 
     35 CA         31.6730   36.2140   -1.9570 C.3       8 GLP5        0.0000 
     36 CA         28.1495   45.5145    2.6730 C.3       4 GLC5        0.0000 
     37 CA         28.4770   44.2060    0.9870 C.3      12 GLL5        0.0000 
     38 CA         27.8220   46.8230    4.3590 C.3       8 GLP5        0.0000 
     39 CA         26.8095   40.3530   -0.7115 C.3       4 GLC5        0.0000 
     40 CA         27.6390   42.0270    0.4340 C.3      12 GLL5        0.0000 
     41 CA         25.9800   38.6790   -1.8570 C.3       8 GLP5        0.0000 
     42 O          31.2300   42.8515    3.6480 O.2       1 ALC1        0.0000 
     43 O          31.4770   44.0530    2.9480 O.2       9 ALL1        0.0000 
     44 N          31.2125   44.9120   -0.1685 N.am      2 SEC2        0.0000 
     45 N          30.9440   45.6330    1.3780 N.am     10 SEL2        0.0000 
     46 N          31.4810   44.1910   -1.7150 N.am      6 SEP2        0.0000 
     47 N          25.6085   45.2080    3.8695 N.am      2 SEC2        0.0000 
     48 N          25.9870   44.8720    2.5750 N.am     10 SEL2        0.0000 
     49 N          25.2300   45.5440    5.1640 N.am      6 SEP2        0.0000 
     50 N          22.3515   45.1770    0.9775 N.am      2 SEC2        0.0000 
     51 N          23.7320   44.6620    0.7530 N.am     10 SEL2        0.0000 
     52 N          20.9710   45.6920    1.2020 N.am      6 SEP2        0.0000 
     53 CA         24.3425   42.5525    0.3250 C.3       4 GLC5        0.0000 
     54 CA         25.6280   43.3780   -1.1780 C.3      12 GLL5        0.0000 
     55 CA         23.0570   41.7270    1.8280 C.3       8 GLP5        0.0000 
     56 CA         30.0055   43.2690    5.4845 C.3       4 GLC5        0.0000 
     57 CA         31.7390   44.4960    5.9720 C.3      12 GLL5        0.0000 
     58 CA         28.2720   42.0420    4.9970 C.3       8 GLP5        0.0000 
     59 CA         34.5635   44.9355    5.3675 C.3       4 GLC5        0.0000 
     60 CA         33.8360   43.9330    3.7060 C.3      12 GLL5        0.0000 
     61 CA         35.2910   45.9380    7.0290 C.3       8 GLP5        0.0000 
     62 CA         34.8485   42.3410    4.3235 C.3       4 GLC5        0.0000 
     63 CA         35.8610   40.7490    4.9410 C.3       8 GLP5        0.0000 
     64 CA         35.6340   43.7280    3.0070 C.3       4 GLC5        0.0000 
     65 CA         37.4320   43.5230    2.3080 C.3       8 GLP5        0.0000 
     66 CA         31.6910   46.8770   10.0780 C.3       4 GLC5        0.0000 
     67 CA         30.9570   46.9100    8.5590 C.3      12 GLL5        0.0000 
     68 CA         32.4250   46.8440   11.5970 C.3       8 GLP5        0.0000 
     69 CA         27.9270   38.7395   -0.4820 C.3       4 GLC5        0.0000 
     70 CA         28.8840   39.9350    0.6670 C.3      12 GLL5        0.0000 
     71 CA         26.9700   37.5440   -1.6310 C.3       8 GLP5        0.0000 
     72 CA         29.3950   40.6090   -1.0935 C.3       4 GLC5        0.0000 
     73 CA         29.9060   41.2830   -2.8540 C.3       8 GLP5        0.0000 
     74 CA         31.8413   35.7588    1.1797 C.3       4 GLC5        0.0000 
     75 CA         31.0490   37.5600    2.4680 C.3      12 GLL5        0.0000 
     76 CA         32.8430   34.6620   -0.3270 C.3       8 GLP5        0.0000 
     77 CA         34.9165   40.5718    3.5082 C.3       4 GLC5        0.0000 
     78 CA         33.7240   39.7720    2.2770 C.3      12 GLL5        0.0000 
     79 CA         34.6656   37.9312    2.7266 C.3       4 GLC5        0.0000 
     80 CA         36.1050   36.8290    3.5030 C.3       8 GLP5        0.0000 
     81 CA         28.7858   42.1106    3.0499 C.3       4 GLC5        0.0000 
     82 CA         28.8240   41.4310    0.8380 C.3      12 GLL5        0.0000 
     83 CA         29.1986   41.6060   -1.0479 C.3       4 GLC5        0.0000 
     84 CA         29.8630   42.2310    1.3270 C.3      12 GLL5        0.0000 
     85 CA         26.7040   42.3730    2.3550 C.3       4 GLC5        0.0000 
     86 CA         25.8680   42.0340    4.2460 C.3       8 GLP5        0.0000 
     87 CA         34.0857   45.2808    2.1185 C.3       4 GLC5        0.0000 
     88 CA         32.5530   44.7780    3.5960 C.3      12 GLL5        0.0000 
     89 CA         34.9770   46.2060    0.5860 C.3       8 GLP5        0.0000 
     90 CA         31.5297   42.6848    6.5232 C.3       4 GLC5        0.0000 
     91 CA         31.5170   40.6190    6.4550 C.3       8 GLP5        0.0000 
     92 CA         29.5324   45.6646    6.2114 C.3       4 GLC5        0.0000 
     93 CA         31.3290   46.3860    7.3800 C.3      12 GLL5        0.0000 
     94 CA         27.6290   45.7610    5.4370 C.3       8 GLP5        0.0000 
     95 CA         33.4000   48.0242    5.2945 C.3       4 GLC5        0.0000 
     96 CA         31.6810   47.2490    6.3470 C.3      12 GLL5        0.0000 
     97 CA         34.9200   49.0580    4.8550 C.3       8 GLP5        0.0000 
     98 CA         29.9470   47.5893    5.3600 C.3       4 GLC5        0.0000 
     99 CA         32.0790   46.7320    5.1210 C.3      12 GLL5        0.0000 
    100 CA         28.0140   48.1880    4.9860 C.3       8 GLP5        0.0000 
    101 CA         29.7726   46.0759    8.8486 C.3       4 GLC5        0.0000 
    102 CA         31.3460   45.0050    7.2110 C.3      12 GLL5        0.0000 
    103 CA         28.3980   45.8490    9.7700 C.3       8 GLP5        0.0000 
    104 CA         33.5024   45.9038    6.5948 C.3       4 GLC5        0.0000 
@<TRIPOS>BOND
@<TRIPOS>SUBSTRUCTURE
     1 ALC1       10 GROUP        1 X    ALC  0     ROOT ALC X 1
     2 SEC2       19 GROUP        1 X    SEC  0     **** SEC X 2
     3 ASC3        1 GROUP        1 X    ASC  0     **** ASC X 3
     4 GLC5       22 GROUP        1 X    GLC  0     **** GLC X 6
     5 ALP1       12 GROUP        1 Y    ALP  0     ROOT ALP Y 8
     6 SEP2       21 GROUP        1 Y    SEP  0     **** SEP Y 9
     7 ASP3        3 GROUP        1 Y    ASP  0     **** ASP Y 10
     8 GLP5       24 GROUP        1 Y    GLP  0     **** GLP Y 13
     9 ALL1       11 GROUP        1 Z    ALL  0     ROOT ALL Z 15
    10 SEL2       20 GROUP        1 Z    SEL  0     **** SEL Z 16
    11 ASL3        2 GROUP        1 Z    ASL  0     **** ASL Z 17
    12 GLL5       23 GROUP        1 Z    GLL  0     **** GLL Z 20
@<TRIPOS>SET

