#    Name: 2ph6_712_1_ligand
#    Modification time : Mon Mar 24 18:59:02 2014

@<TRIPOS>MOLECULE
2ph6_712_1_ligand
   71    73     1     0     0
SMALL
NO_CHARGES


@<TRIPOS>ATOM
      1 C          31.0490   37.5600    2.4680 C.3       1 712401      0.0000 
      2 N          30.9790   38.3830    3.7150 N.4       1 712401      0.0000 
      3 C1         30.0370   38.0530    1.4510 C.2       1 712401      0.0000 
      4 O          29.7700   39.3470    1.6340 O.3       1 712401      0.0000 
      5 O2         29.6890   37.4030    0.4750 O.2       1 712401      0.0000 
      6 C3         30.6300   36.1510    2.9050 C.3       1 712401      0.0000 
      7 C4         32.4580   37.6230    1.8490 C.3       1 712401      0.0000 
      8 C5         32.9990   38.9670    1.3980 C.ar      1 712401      0.0000 
      9 C6         33.7240   39.7720    2.2770 C.ar      1 712401      0.0000 
     10 C7         33.9920   41.4690    0.5720 C.ar      1 712401      0.0000 
     11 C8         33.2620   40.6680   -0.3130 C.ar      1 712401      0.0000 
     12 C9         34.2200   41.0170    1.8740 C.ar      1 712401      0.0000 
     13 C10        32.7730   39.4250    0.0980 C.ar      1 712401      0.0000 
     14 C11        28.4770   44.2060    0.9870 C.ar      1 712401      0.0000 
     15 C12        29.6870   43.6240    1.4080 C.ar      1 712401      0.0000 
     16 C13        29.8630   42.2310    1.3270 C.ar      1 712401      0.0000 
     17 C14        28.8240   41.4310    0.8380 C.ar      1 712401      0.0000 
     18 C15        27.6390   42.0270    0.4340 C.ar      1 712401      0.0000 
     19 C16        27.4410   43.3970    0.4940 C.ar      1 712401      0.0000 
     20 N17        26.2370   43.8610    0.0710 N.pl3     1 712401      0.0000 
     21 C18        30.7580   44.5390    1.9230 C.2       1 712401      0.0000 
     22 N19        31.4770   44.0530    2.9480 N.am      1 712401      0.0000 
     23 O20        30.9440   45.6330    1.3780 O.2       1 712401      0.0000 
     24 S          25.3650   44.9530    1.0160 S.o2      1 712401      0.0000 
     25 C21        25.7200   46.4950    0.3630 C.3       1 712401      0.0000 
     26 O22        25.9870   44.8720    2.5750 O.2       1 712401      0.0000 
     27 O23        23.7320   44.6620    0.7530 O.2       1 712401      0.0000 
     28 C24        25.6280   43.3780   -1.1780 C.3       1 712401      0.0000 
     29 C25        32.5530   44.7780    3.5960 C.3       1 712401      0.0000 
     30 C26        32.1110   45.3510    4.9220 C.ar      1 712401      0.0000 
     31 C27        31.7390   44.4960    5.9720 C.ar      1 712401      0.0000 
     32 C28        31.3290   46.3860    7.3800 C.ar      1 712401      0.0000 
     33 C29        31.6810   47.2490    6.3470 C.ar      1 712401      0.0000 
     34 C30        31.3460   45.0050    7.2110 C.ar      1 712401      0.0000 
     35 C31        32.0790   46.7320    5.1210 C.ar      1 712401      0.0000 
     36 C32        33.8360   43.9330    3.7060 C.3       1 712401      0.0000 
     37 F          30.9570   46.9100    8.5590 F         1 712401      0.0000 
     38 C33        28.8840   39.9350    0.6670 C.3       1 712401      0.0000 
     39 H          32.4829   36.9134    0.9772 H         1 712401      0.0000 
     40 H          33.1781   37.1735    2.5862 H         1 712401      0.0000 
     41 H          33.8987   39.4453    3.2419 H         1 712401      0.0000 
     42 H          34.3538   42.3741    0.2685 H         1 712401      0.0000 
     43 H          33.0847   40.9965   -1.2712 H         1 712401      0.0000 
     44 H          34.7496   41.5955    2.5339 H         1 712401      0.0000 
     45 H          32.2412   38.8417   -0.5640 H         1 712401      0.0000 
     46 H          28.3534   45.2210    1.0409 H         1 712401      0.0000 
     47 H          30.7442   41.8091    1.6238 H         1 712401      0.0000 
     48 H          26.8677   41.4206    0.0713 H         1 712401      0.0000 
     49 H          31.2813   43.0919    3.3360 H         1 712401      0.0000 
     50 H          32.8204   45.6543    2.9452 H         1 712401      0.0000 
     51 H          31.7577   43.4744    5.8215 H         1 712401      0.0000 
     52 H          31.6462   48.2652    6.4918 H         1 712401      0.0000 
     53 H          31.0801   44.3825    7.9672 H         1 712401      0.0000 
     54 H          32.3509   47.3646    4.3575 H         1 712401      0.0000 
     55 H          27.8635   39.5341    0.7689 H         1 712401      0.0000 
     56 H          29.2171   39.7174   -0.3598 H         1 712401      0.0000 
     57 H          30.3289   38.0045    4.3738 H         1 712401      0.0000 
     58 H          31.8652   38.4361    4.1751 H         1 712401      0.0000 
     59 H          30.6907   39.3215    3.5249 H         1 712401      0.0000 
     60 H          30.6443   35.5056    2.1413 H         1 712401      0.0000 
     61 H          31.2376   35.7847    3.6097 H         1 712401      0.0000 
     62 H          29.7037   36.1390    3.2815 H         1 712401      0.0000 
     63 H          26.6976   46.7010    0.4073 H         1 712401      0.0000 
     64 H          25.4493   46.5629   -0.5973 H         1 712401      0.0000 
     65 H          25.2442   47.2247    0.8540 H         1 712401      0.0000 
     66 H          26.2074   43.5667   -1.9709 H         1 712401      0.0000 
     67 H          25.4719   42.3905   -1.1574 H         1 712401      0.0000 
     68 H          24.7435   43.8110   -1.3516 H         1 712401      0.0000 
     69 H          34.1762   43.6556    2.8075 H         1 712401      0.0000 
     70 H          34.5740   44.4353    4.1565 H         1 712401      0.0000 
     71 H          33.6859   43.0968    4.2335 H         1 712401      0.0000 
@<TRIPOS>BOND
     1    2    1 1    
     2    3    1 1    
     3    6    1 1    
     4    7    1 1    
     5   57    2 1    
     6   58    2 1    
     7   59    2 1    
     8    4    3 1    
     9    5    3 2    
    10   38    4 1    
    11   60    6 1    
    12   61    6 1    
    13   62    6 1    
    14    8    7 1    
    15   39    7 1    
    16   40    7 1    
    17    9    8 ar   
    18   13    8 ar   
    19   12    9 ar   
    20   41    9 1    
    21   11   10 ar   
    22   12   10 ar   
    23   42   10 1    
    24   13   11 ar   
    25   43   11 1    
    26   44   12 1    
    27   45   13 1    
    28   15   14 ar   
    29   19   14 ar   
    30   46   14 1    
    31   16   15 ar   
    32   21   15 1    
    33   17   16 ar   
    34   47   16 1    
    35   18   17 ar   
    36   38   17 1    
    37   19   18 ar   
    38   48   18 1    
    39   20   19 1    
    40   24   20 1    
    41   28   20 1    
    42   22   21 am   
    43   23   21 2    
    44   29   22 1    
    45   49   22 1    
    46   25   24 1    
    47   26   24 2    
    48   27   24 2    
    49   63   25 1    
    50   64   25 1    
    51   65   25 1    
    52   66   28 1    
    53   67   28 1    
    54   68   28 1    
    55   30   29 1    
    56   36   29 1    
    57   50   29 1    
    58   31   30 ar   
    59   35   30 ar   
    60   34   31 ar   
    61   51   31 1    
    62   33   32 ar   
    63   34   32 ar   
    64   37   32 1    
    65   35   33 ar   
    66   52   33 1    
    67   53   34 1    
    68   54   35 1    
    69   69   36 1    
    70   70   36 1    
    71   71   36 1    
    72   55   38 1    
    73   56   38 1    
@<TRIPOS>SUBSTRUCTURE
     1 712401      1 GROUP   
@<TRIPOS>SET

