#    Name: 2y1l_ILE_GLU_THR_ASP_1_INTS_M
#    Modification time : Tue Mar 25 07:23:20 2014

@<TRIPOS>MOLECULE
2y1l_ILE_GLU_THR_ASP_1_INTS_M
   73     0    12     0     0
SMALL
NO_CHARGES


@<TRIPOS>ATOM
      1 CA         16.7395    0.9740  -36.5995 C.3       4 GLC5        0.0000 
      2 CA         18.7110    1.3290  -35.7080 C.3      12 GLL5        0.0000 
      3 CA         14.7680    0.6190  -37.4910 C.3       8 GLP5        0.0000 
      4 O          16.3765    3.6040  -35.8700 O.2       1 ALC1        0.0000 
      5 O          17.3290    3.9740  -34.8920 O.2       9 ALL1        0.0000 
      6 O          15.4240    3.2340  -36.8480 O.2       5 ALP1        0.0000 
      7 N          14.2220    5.2790  -35.5755 N.am      2 SEC2        0.0000 
      8 N          15.2700    5.8210  -35.1080 N.am     10 SEL2        0.0000 
      9 N          13.1740    4.7370  -36.0430 N.am      6 SEP2        0.0000 
     10 CA         17.7270    3.2705  -37.6320 C.3       4 GLC5        0.0000 
     11 CA         18.0110    5.3320  -36.8180 C.3      12 GLL5        0.0000 
     12 CA         17.4430    1.2090  -38.4460 C.3       8 GLP5        0.0000 
     13 CA         18.8680    3.0575  -38.2535 C.3       4 GLC5        0.0000 
     14 CA         19.2220    4.4790  -37.0900 C.3      12 GLL5        0.0000 
     15 CA         18.5140    1.6360  -39.4170 C.3       8 GLP5        0.0000 
     16 NZ         20.8575    6.1670  -38.6745 N.4       3 LYC4        0.0000 
     17 NZ         19.1410    5.4320  -39.2570 N.4      11 LYL4        0.0000 
     18 NZ         22.5740    6.9020  -38.0920 N.4       7 LYP4        0.0000 
     19 NZ         17.8570    5.5550  -39.7130 N.4       3 LYC4        0.0000 
     20 NZ         15.7670    6.7010  -39.9190 N.4       7 LYP4        0.0000 
     21 N          17.8570    5.5550  -39.7130 N.am      2 SEC2        0.0000 
     22 N          19.1410    5.4320  -39.2570 N.am     10 SEL2        0.0000 
     23 N          16.5730    5.6780  -40.1690 N.am      6 SEP2        0.0000 
     24 NZ         21.7065    5.5095  -38.4305 N.4       3 LYC4        0.0000 
     25 NZ         20.8390    4.1170  -38.7690 N.4      11 LYL4        0.0000 
     26 CA         13.9160    7.1425  -34.4990 C.3       4 GLC5        0.0000 
     27 CA         15.6370    8.5400  -34.8690 C.3      12 GLL5        0.0000 
     28 CA         12.1950    5.7450  -34.1290 C.3       8 GLP5        0.0000 
     29 CA         16.6255    9.0385  -30.5125 C.3       4 GLC5        0.0000 
     30 CA         16.1560    8.7560  -32.4250 C.3      12 GLL5        0.0000 
     31 CA         17.0950    9.3210  -28.6000 C.3       8 GLP5        0.0000 
     32 CA         15.3905    7.4430  -31.4210 C.3       4 GLC5        0.0000 
     33 CA         14.6250    6.1300  -30.4170 C.3       8 GLP5        0.0000 
     34 O          13.3345    9.1640  -35.3445 O.2       1 ALC1        0.0000 
     35 O          14.2160    9.8690  -36.3020 O.2       9 ALL1        0.0000 
     36 O          12.4530    8.4590  -34.3870 O.2       5 ALP1        0.0000 
     37 CA         14.6330   12.0260  -39.0055 C.3       4 GLC5        0.0000 
     38 CA         13.8840   10.6430  -37.4910 C.3      12 GLL5        0.0000 
     39 CA         15.3820   13.4090  -40.5200 C.3       8 GLP5        0.0000 
     40 N          12.5555   14.2450  -38.3060 N.am      2 SEC2        0.0000 
     41 N          13.1740   12.9350  -37.6230 N.am     10 SEL2        0.0000 
     42 N          11.9370   15.5550  -38.9890 N.am      6 SEP2        0.0000 
     43 N          11.9020   12.9050  -37.1350 N.am      2 SEC2        0.0000 
     44 N          10.6300   12.8750  -36.6470 N.am      6 SEP2        0.0000 
     45 CA         12.7080   12.1410  -39.2280 C.3       4 GLC5        0.0000 
     46 CA         12.4760   10.3000  -37.9680 C.3      12 GLL5        0.0000 
     47 CA         12.9400   13.9820  -40.4880 C.3       8 GLP5        0.0000 
     48 CA         10.8330   11.2360  -38.2075 C.3       4 GLC5        0.0000 
     49 CA          9.1900   12.1720  -38.4470 C.3       8 GLP5        0.0000 
     50 NZ         12.3970    8.3790  -40.4880 N.4       3 LYC4        0.0000 
     51 NZ         13.5120    8.7730  -39.4230 N.4      11 LYL4        0.0000 
     52 NZ         12.0110    8.7340  -42.3660 N.4       7 LYP4        0.0000 
     53 NZ         14.8790    8.2880  -39.3915 N.4       3 LYC4        0.0000 
     54 N          13.2080    9.1735  -40.6420 N.am      2 SEC2        0.0000 
     55 N          13.5120    8.7730  -39.4230 N.am     10 SEL2        0.0000 
     56 N          12.9040    9.5740  -41.8610 N.am      6 SEP2        0.0000 
     57 N          12.3970    8.3790  -40.4880 N.am      2 SEC2        0.0000 
     58 N          11.2820    7.9850  -41.5530 N.am      6 SEP2        0.0000 
     59 N          13.9945    7.6945  -39.8230 N.am      2 SEC2        0.0000 
     60 N          14.4770    6.6160  -40.2230 N.am      6 SEP2        0.0000 
     61 N          14.8790    8.2880  -39.3915 N.am      2 SEC2        0.0000 
     62 N          16.2460    7.8030  -39.3600 N.am      6 SEP2        0.0000 
     63 NZ         11.3500    8.1810  -40.2370 N.4       3 LYC4        0.0000 
     64 NZ         11.4180    8.3770  -38.9210 N.4      11 LYL4        0.0000 
     65 N          11.3500    8.1810  -40.2370 N.am      2 SEC2        0.0000 
     66 N          11.4180    8.3770  -38.9210 N.am     10 SEL2        0.0000 
     67 CA         18.0418    1.1795  -36.7140 C.3       4 GLC5        0.0000 
     68 CA         14.4680   10.5437  -34.6028 C.3       4 GLC5        0.0000 
     69 CA         13.1380   12.0610  -34.9070 C.3       8 GLP5        0.0000 
     70 CA         14.7108   10.1067  -32.2918 C.3       4 GLC5        0.0000 
     71 CA         15.9590    9.5130  -33.7280 C.3      12 GLL5        0.0000 
     72 CA         13.3640   11.0790  -31.5070 C.3       8 GLP5        0.0000 
     73 CA         13.1590   11.2662  -36.3182 C.3       4 GLC5        0.0000 
@<TRIPOS>BOND
@<TRIPOS>SUBSTRUCTURE
     1 ALC1        4 GROUP        1 X    ALC  0     ROOT ALC X 1
     2 SEC2        7 GROUP        1 X    SEC  0     **** SEC X 2
     3 LYC4       16 GROUP        1 X    LYC  0     **** LYC X 4
     4 GLC5        1 GROUP        1 X    GLC  0     **** GLC X 6
     5 ALP1        6 GROUP        1 Y    ALP  0     ROOT ALP Y 8
     6 SEP2        9 GROUP        1 Y    SEP  0     **** SEP Y 9
     7 LYP4       18 GROUP        1 Y    LYP  0     **** LYP Y 11
     8 GLP5        3 GROUP        1 Y    GLP  0     **** GLP Y 13
     9 ALL1        5 GROUP        1 Z    ALL  0     ROOT ALL Z 15
    10 SEL2        8 GROUP        1 Z    SEL  0     **** SEL Z 16
    11 LYL4       17 GROUP        1 Z    LYL  0     **** LYL Z 18
    12 GLL5        2 GROUP        1 Z    GLL  0     **** GLL Z 20
@<TRIPOS>SET

