#    Name: 2y1l_ILE_GLU_THR_ASP_1_ligand
#    Modification time : Tue Mar 25 07:23:20 2014

@<TRIPOS>MOLECULE
2y1l_ILE_GLU_THR_ASP_1_ligand
   63    62     4     0     0
SMALL
NO_CHARGES


@<TRIPOS>ATOM
      1 N          16.2640    1.7550  -33.7730 N.4       1 ILE1        0.0000
      2 CA         17.6770    1.9940  -33.5200 C.3       1 ILE1        0.0000
      3 C          18.0620    3.4120  -33.9350 C.2       1 ILE1        0.0000
      4 O          18.9980    3.9900  -33.3910 O.2       1 ILE1        0.0000
      5 CB         18.5700    0.9710  -34.2560 C.3       1 ILE1        0.0000
      6 CG1        19.9610    0.9000  -33.6250 C.3       1 ILE1        0.0000
      7 CG2        18.7110    1.3290  -35.7080 C.3       1 ILE1        0.0000
      8 CD1        20.9150   -0.0050  -34.3820 C.3       1 ILE1        0.0000
      9 HA         17.8890    1.8975  -32.4521 H         1 ILE1        0.0000
     10 HB         18.1097   -0.0042  -34.1749 H         1 ILE1        0.0000
     11 HG12       19.8631    0.5400  -32.5902 H         1 ILE1        0.0000
     12 HG13       20.3822    1.9151  -33.5799 H         1 ILE1        0.0000
     13 HNCA       16.0360    1.8657  -34.7404 H         1 ILE1        0.0000
     14 H          15.9913    0.8291  -33.5117 H         1 ILE1        0.0000
     15 H          15.6828    2.3873  -33.2607 H         1 ILE1        0.0000
     16 HG21       19.1228    2.2321  -35.8295 H         1 ILE1        0.0000
     17 HG22       19.2884    0.6754  -36.1973 H         1 ILE1        0.0000
     18 HG23       17.8264    1.3450  -36.1742 H         1 ILE1        0.0000
     19 HD11       21.8165   -0.0383  -33.9505 H         1 ILE1        0.0000
     20 HD12       20.5773   -0.9451  -34.4281 H         1 ILE1        0.0000
     21 HD13       21.0518    0.3038  -35.3232 H         1 ILE1        0.0000
     22 N          17.3290    3.9740  -34.8920 N.am      2 GLU2        0.0000
     23 CA         17.6000    5.3340  -35.3510 C.3       2 GLU2        0.0000
     24 C          16.4120    6.2620  -35.1570 C.2       2 GLU2        0.0000
     25 O          15.2700    5.8210  -35.1080 O.2       2 GLU2        0.0000
     26 CB         18.0110    5.3320  -36.8180 C.3       2 GLU2        0.0000
     27 CG         19.2220    4.4790  -37.0900 C.3       2 GLU2        0.0000
     28 CD         19.7720    4.6910  -38.4720 C.2       2 GLU2        0.0000
     29 OE1        19.1410    5.4320  -39.2570 O.co2     2 GLU2        0.0000
     30 OE2        20.8390    4.1170  -38.7690 O.co2     2 GLU2        0.0000
     31 HNCA       16.5405    3.4863  -35.3552 H         2 GLU2        0.0000
     32 HA         18.4426    5.7533  -34.7842 H         2 GLU2        0.0000
     33 HB2        18.2143    6.3682  -37.1305 H         2 GLU2        0.0000
     34 HB3        17.1645    4.9709  -37.4227 H         2 GLU2        0.0000
     35 HG2        18.9543    3.4191  -36.9628 H         2 GLU2        0.0000
     36 HG3        20.0014    4.7097  -36.3481 H         2 GLU2        0.0000
     37 N          16.6910    7.5550  -35.0490 N.am      3 THR3        0.0000
     38 CA         15.6370    8.5400  -34.8690 C.3       3 THR3        0.0000
     39 C          15.4150    9.3270  -36.1500 C.2       3 THR3        0.0000
     40 O          16.3100    9.4450  -36.9830 O.2       3 THR3        0.0000
     41 CB         15.9590    9.5130  -33.7280 C.3       3 THR3        0.0000
     42 OG1        17.1470   10.2460  -34.0460 O.3       3 THR3        0.0000
     43 CG2        16.1560    8.7560  -32.4250 C.3       3 THR3        0.0000
     44 HNCA       17.6604    7.9246  -35.0868 H         3 THR3        0.0000
     45 HA         14.6965    8.0458  -34.6200 H         3 THR3        0.0000
     46 HB         15.1147   10.1779  -33.6112 H         3 THR3        0.0000
     47 HG21       16.9078    8.0995  -32.4869 H         3 THR3        0.0000
     48 HG22       16.3664    9.3719  -31.6658 H         3 THR3        0.0000
     49 HG23       15.3382    8.2416  -32.1670 H         3 THR3        0.0000
     50 HG1        17.2239   10.1947  -35.0417 H         3 THR3        0.0000
     51 N          14.2160    9.8690  -36.3020 N.am      4 ASP4        0.0000
     52 CA         13.8840   10.6430  -37.4910 C.3       4 ASP4        0.0000
     53 C          14.0550   12.1480  -37.2920 C.2       4 ASP4        0.0000
     54 O          13.1740   12.9350  -37.6230 O.2       4 ASP4        0.0000
     55 CB         12.4760   10.3000  -37.9680 C.3       4 ASP4        0.0000
     56 CG         12.4600    9.0600  -38.8290 C.2       4 ASP4        0.0000
     57 OD1        13.5120    8.7730  -39.4230 O.co2     4 ASP4        0.0000
     58 OD2        11.4180    8.3770  -38.9210 O.co2     4 ASP4        0.0000
     59 HNCA       13.4612    9.7740  -35.5958 H         4 ASP4        0.0000
     60 HA         14.5716   10.3457  -38.3128 H         4 ASP4        0.0000
     61 H          14.9816   12.3786  -36.8578 H         4 ASP4        0.0000
     62 HB2        12.0779   11.1469  -38.5376 H         4 ASP4        0.0000
     63 HB3        11.8323   10.1481  -37.0946 H         4 ASP4        0.0000
@<TRIPOS>BOND
     1    2    1 1
     2   13    1 1
     3   14    1 1
     4   15    1 1
     5    3    2 1
     6    5    2 1
     7    9    2 1
     8    4    3 2
     9    6    5 1
    10    7    5 1
    11   10    5 1
    12    8    6 1
    13   11    6 1
    14   12    6 1
    15   16    7 1
    16   17    7 1
    17   18    7 1
    18   19    8 1
    19   20    8 1
    20   21    8 1
    21   23   22 1
    22   31   22 1
    23   24   23 1
    24   26   23 1
    25   32   23 1
    26   25   24 2
    27   27   26 1
    28   33   26 1
    29   34   26 1
    30   28   27 1
    31   35   27 1
    32   36   27 1
    33   29   28 ar
    34   30   28 ar
    35   38   37 1
    36   44   37 1
    37   39   38 1
    38   41   38 1
    39   45   38 1
    40   40   39 2
    41   42   41 1
    42   43   41 1
    43   46   41 1
    44   50   42 1
    45   47   43 1
    46   48   43 1
    47   49   43 1
    48   52   51 1
    49   59   51 1
    50   53   52 1
    51   55   52 1
    52   60   52 1
    53   54   53 2
    54   61   53 1
    55   56   55 1
    56   62   55 1
    57   63   55 1
    58   57   56 ar
    59   58   56 ar
    60   22    3 am
    61   37   24 am
    62   51   39 am
@<TRIPOS>SUBSTRUCTURE
     1 ILE1        1 RESIDUE
     2 GLU2       22 RESIDUE
     3 THR3       37 RESIDUE
     4 ASP4       51 RESIDUE
@<TRIPOS>SET

