#    Name: 1g49_111_1_INTS_M
#    Modification time : Tue Mar 25 02:32:12 2014

@<TRIPOS>MOLECULE
1g49_111_1_INTS_M
   60     0    12     0     0
SMALL
NO_CHARGES


@<TRIPOS>ATOM
      1 Zn          1.4055   51.2145   52.8775 Zn        3 ZIC7        0.0000 
      2 Zn          3.6540   52.5500   51.1160 Zn       11 ZIL7        0.0000 
      3 Zn         -0.8430   49.8790   54.6390 Zn        7 ZIP7        0.0000 
      4 CA          2.8125   47.9125   49.9150 C.3       4 GLC5        0.0000 
      5 CA          2.2670   49.1970   51.6050 C.3      12 GLL5        0.0000 
      6 CA          3.3580   46.6280   48.2250 C.3       8 GLP5        0.0000 
      7 Zn         -0.0730   50.1435   53.8610 Zn        3 ZIC7        0.0000 
      8 Zn          0.6970   50.4080   53.0830 Zn       11 ZIL7        0.0000 
      9 O           0.6670   47.0260   51.8575 O.2       1 ALC1        0.0000 
     10 O           0.5450   48.0910   52.9570 O.2       9 ALL1        0.0000 
     11 O           0.7890   45.9610   50.7580 O.2       5 ALP1        0.0000 
     12 Zn         -0.7695   49.0985   54.0700 Zn        3 ZIC7        0.0000 
     13 Zn         -0.6960   48.3180   53.5010 Zn       11 ZIL7        0.0000 
     14 O          -1.6660   46.9090   53.2725 O.2       1 ALC1        0.0000 
     15 O          -0.6960   48.3180   53.5010 O.2       9 ALL1        0.0000 
     16 O          -2.6360   45.5000   53.0440 O.2       5 ALP1        0.0000 
     17 O          -0.7300   46.9640   53.8290 O.2       1 ALC1        0.0000 
     18 O          -0.7640   45.6100   54.1570 O.2       5 ALP1        0.0000 
     19 Zn          1.3830   49.5490   53.4155 Zn        3 ZIC7        0.0000 
     20 Zn          3.6090   49.2190   52.1920 Zn       11 ZIL7        0.0000 
     21 N           4.3865   45.8305   51.4660 N.am      2 SEC2        0.0000 
     22 N           3.7300   46.5320   52.2670 N.am     10 SEL2        0.0000 
     23 N           5.0430   45.1290   50.6650 N.am      6 SEP2        0.0000 
     24 N           3.1565   45.2935   51.5720 N.am      2 SEC2        0.0000 
     25 N           2.5830   44.0550   50.8770 N.am      6 SEP2        0.0000 
     26 CA          1.4305   48.2615   56.8895 C.3       4 GLC5        0.0000 
     27 CA          3.6100   48.6780   56.8910 C.3      12 GLL5        0.0000 
     28 CA         -0.7490   47.8450   56.8880 C.3       8 GLP5        0.0000 
     29 CA          5.0725   50.1410   57.4870 C.3       4 GLC5        0.0000 
     30 CA          6.5350   51.6040   58.0830 C.3       8 GLP5        0.0000 
     31 CA          5.4750   48.3460   57.7885 C.3       4 GLC5        0.0000 
     32 CA          7.3400   48.0140   58.6860 C.3       8 GLP5        0.0000 
     33 CA          1.1625   47.5685   57.7750 C.3       4 GLC5        0.0000 
     34 CA          2.8600   47.6070   57.3610 C.3      12 GLL5        0.0000 
     35 CA         -0.5350   47.5300   58.1890 C.3       8 GLP5        0.0000 
     36 CA          5.3315   48.1455   59.0955 C.3       4 GLC5        0.0000 
     37 CA          3.3230   48.2770   59.5050 C.3      12 GLL5        0.0000 
     38 CA          2.3035   44.0610   59.1445 C.3       4 GLC5        0.0000 
     39 CA          3.1450   45.5400   60.1490 C.3      12 GLL5        0.0000 
     40 CA          1.4620   42.5820   58.1400 C.3       8 GLP5        0.0000 
     41 CA          1.2300   45.8865   59.5420 C.3       4 GLC5        0.0000 
     42 CA         -0.6850   46.2330   58.9350 C.3       8 GLP5        0.0000 
     43 CA          4.9185   45.8702   54.7410 C.3       4 GLC5        0.0000 
     44 CA          2.8890   46.6280   55.1580 C.3      12 GLL5        0.0000 
     45 CA          6.5810   44.5690   54.5670 C.3       8 GLP5        0.0000 
     46 CA          3.4555   50.7113   56.5610 C.3       4 GLC5        0.0000 
     47 CA          3.9820   48.7310   55.5530 C.3      12 GLL5        0.0000 
     48 CA          3.1150   52.7180   56.9000 C.3       8 GLP5        0.0000 
     49 CA          2.2222   44.6268   55.7285 C.3       4 GLC5        0.0000 
     50 CA          2.5140   46.5770   56.5020 C.3      12 GLL5        0.0000 
     51 CA          1.7430   42.6510   55.6270 C.3       8 GLP5        0.0000 
     52 CA          0.9762   47.2237   56.3590 C.3       4 GLC5        0.0000 
     53 CA          1.3000   47.8218   59.2025 C.3       4 GLC5        0.0000 
     54 CA          3.2570   44.1640   61.4145 C.3       4 GLC5        0.0000 
     55 CA          3.2370   46.4960   61.3150 C.3      12 GLL5        0.0000 
     56 CA          3.3230   42.3100   62.0970 C.3       8 GLP5        0.0000 
     57 CA          4.8770   45.4710   59.7580 C.3       4 GLC5        0.0000 
     58 CA          6.5630   44.9240   58.7840 C.3       8 GLP5        0.0000 
     59 CA          1.4963   46.2443   61.7705 C.3       4 GLC5        0.0000 
     60 CA         -0.1260   46.1070   62.9060 C.3       8 GLP5        0.0000 
@<TRIPOS>BOND
@<TRIPOS>SUBSTRUCTURE
     1 ALC1        9 GROUP        1 X    ALC  0     ROOT ALC X 1
     2 SEC2       21 GROUP        1 X    SEC  0     **** SEC X 2
     3 ZIC7        1 GROUP        1 X    ZIC  0     **** ZIC X 5
     4 GLC5        4 GROUP        1 X    GLC  0     **** GLC X 6
     5 ALP1       11 GROUP        1 Y    ALP  0     ROOT ALP Y 8
     6 SEP2       23 GROUP        1 Y    SEP  0     **** SEP Y 9
     7 ZIP7        3 GROUP        1 Y    ZIP  0     **** ZIP Y 12
     8 GLP5        6 GROUP        1 Y    GLP  0     **** GLP Y 13
     9 ALL1       10 GROUP        1 Z    ALL  0     ROOT ALL Z 15
    10 SEL2       22 GROUP        1 Z    SEL  0     **** SEL Z 16
    11 ZIL7        2 GROUP        1 Z    ZIL  0     **** ZIL Z 19
    12 GLL5        5 GROUP        1 Z    GLL  0     **** GLL Z 20
@<TRIPOS>SET

