#    Name: 1g49_111_1_ligand
#    Modification time : Tue Mar 25 02:32:12 2014

@<TRIPOS>MOLECULE
1g49_111_1_ligand
   53    54     1     0     0
SMALL
NO_CHARGES


@<TRIPOS>ATOM
      1 O5          4.3950   55.0840   51.5310 O.2       1 111901      0.0000 
      2 S2          3.1250   54.1810   51.3220 S.o2      1 111901      0.0000 
      3 O4          2.1900   54.2180   52.5890 O.2       1 111901      0.0000 
      4 C13         2.1730   54.7180   49.9180 C.3       1 111901      0.0000 
      5 N2          3.6540   52.5500   51.1160 N.pl3     1 111901      0.0000 
      6 C17         2.9630   51.4970   51.8730 C.3       1 111901      0.0000 
      7 C11         3.9190   50.5830   52.6640 C.3       1 111901      0.0000 
      8 C9          2.1910   50.5610   50.9400 C.3       1 111901      0.0000 
      9 C8          2.2670   49.1970   51.6050 C.3       1 111901      0.0000 
     10 C20         1.1340   49.2230   52.6100 C.2       1 111901      0.0000 
     11 OB          0.6970   50.4080   53.0830 O.2       1 111901      0.0000 
     12 NA          0.5450   48.0910   52.9570 N.am      1 111901      0.0000 
     13 OA         -0.6960   48.3180   53.5010 O.3       1 111901      0.0000 
     14 N1          3.6090   49.2190   52.1920 N.pl3     1 111901      0.0000 
     15 S1          4.1840   47.8170   53.0310 S.o2      1 111901      0.0000 
     16 O1          3.7300   46.5320   52.2670 O.2       1 111901      0.0000 
     17 O2          5.7440   47.8370   52.9970 O.2       1 111901      0.0000 
     18 C1          3.6230   47.7150   54.6720 C.ar      1 111901      0.0000 
     19 C2          3.9820   48.7310   55.5530 C.ar      1 111901      0.0000 
     20 C3          3.6100   48.6780   56.8910 C.ar      1 111901      0.0000 
     21 C4          2.8600   47.6070   57.3610 C.ar      1 111901      0.0000 
     22 C5          2.5140   46.5770   56.5020 C.ar      1 111901      0.0000 
     23 C6          2.8890   46.6280   55.1580 C.ar      1 111901      0.0000 
     24 O3          2.5210   47.5680   58.5570 O.3       1 111901      0.0000 
     25 C7          3.3230   48.2770   59.5050 C.3       1 111901      0.0000 
     26 C10         2.9470   47.9500   60.9270 C.3       1 111901      0.0000 
     27 C12         3.2370   46.4960   61.3150 C.3       1 111901      0.0000 
     28 C14         3.1450   45.5400   60.1490 C.3       1 111901      0.0000 
     29 H           4.3776   52.4547   50.5069 H         1 111901      0.0000 
     30 H           2.2534   51.9105   52.5727 H         1 111901      0.0000 
     31 H           3.7087   50.6897   53.7061 H         1 111901      0.0000 
     32 H           4.9248   50.8556   52.4280 H         1 111901      0.0000 
     33 H           2.6706   50.5301   49.9894 H         1 111901      0.0000 
     34 H           1.1764   50.8790   50.8758 H         1 111901      0.0000 
     35 H           2.1395   48.4715   50.8864 H         1 111901      0.0000 
     36 H           0.9236   47.1872   52.8508 H         1 111901      0.0000 
     37 H           4.5324   49.5350   55.2067 H         1 111901      0.0000 
     38 H           3.8898   49.4312   57.5328 H         1 111901      0.0000 
     39 H           1.9789   45.7695   56.8506 H         1 111901      0.0000 
     40 H           2.6253   45.8645   54.5226 H         1 111901      0.0000 
     41 H           3.2270   49.3727   59.3683 H         1 111901      0.0000 
     42 H           4.3981   48.0428   59.3722 H         1 111901      0.0000 
     43 H           1.8733   48.1454   61.0787 H         1 111901      0.0000 
     44 H           3.4963   48.6123   61.6152 H         1 111901      0.0000 
     45 H           2.5243   46.1920   62.0961 H         1 111901      0.0000 
     46 H           4.2446   46.4438   61.7539 H         1 111901      0.0000 
     47 H           2.7058   54.6826   49.0725 H         1 111901      0.0000 
     48 H           1.3634   54.1479   49.7783 H         1 111901      0.0000 
     49 H           1.8537   55.6597   50.0240 H         1 111901      0.0000 
     50 H           3.7936   45.7741   59.4248 H         1 111901      0.0000 
     51 H           3.3401   44.5986   60.4243 H         1 111901      0.0000 
     52 H           2.2334   45.5422   59.7380 H         1 111901      0.0000 
     53 H          -1.0052   47.4230   53.8225 H         1 111901      0.0000 
@<TRIPOS>BOND
     1    2    1 2    
     2    3    2 2    
     3    4    2 1    
     4    5    2 1    
     5   47    4 1    
     6   48    4 1    
     7   49    4 1    
     8    6    5 1    
     9   29    5 1    
    10    7    6 1    
    11    8    6 1    
    12   30    6 1    
    13   14    7 1    
    14   31    7 1    
    15   32    7 1    
    16    9    8 1    
    17   33    8 1    
    18   34    8 1    
    19   10    9 1    
    20   14    9 1    
    21   35    9 1    
    22   11   10 2    
    23   12   10 am   
    24   13   12 1    
    25   36   12 1    
    26   53   13 1    
    27   15   14 1    
    28   16   15 2    
    29   17   15 2    
    30   18   15 1    
    31   19   18 ar   
    32   23   18 ar   
    33   20   19 ar   
    34   37   19 1    
    35   21   20 ar   
    36   38   20 1    
    37   22   21 ar   
    38   24   21 1    
    39   23   22 ar   
    40   39   22 1    
    41   40   23 1    
    42   25   24 1    
    43   26   25 1    
    44   41   25 1    
    45   42   25 1    
    46   27   26 1    
    47   43   26 1    
    48   44   26 1    
    49   28   27 1    
    50   45   27 1    
    51   46   27 1    
    52   50   28 1    
    53   51   28 1    
    54   52   28 1    
@<TRIPOS>SUBSTRUCTURE
     1 111901      1 GROUP   
@<TRIPOS>SET

