#    Name: 4a8g_DMX_1_INTS_M
#    Modification time : Tue Mar 25 05:15:52 2014

@<TRIPOS>MOLECULE
4a8g_DMX_1_INTS_M
   32     0     3     0     0
SMALL
NO_CHARGES


@<TRIPOS>ATOM
      1 CA         13.0245   -4.6255   13.0780 C.3       1 GLC5        0.0000 
      2 CA         13.7120   -3.7220   11.2790 C.3       3 GLL5        0.0000 
      3 CA         12.3370   -5.5290   14.8770 C.3       2 GLP5        0.0000 
      4 CA         16.6345   -0.5190    9.4080 C.3       1 GLC5        0.0000 
      5 CA         15.0600   -1.3590   10.6330 C.3       3 GLL5        0.0000 
      6 CA         18.2090    0.3210    8.1830 C.3       2 GLP5        0.0000 
      7 CA         14.1115    0.8385    9.8205 C.3       1 GLC5        0.0000 
      8 CA         13.0210   -0.2830    9.5400 C.3       3 GLL5        0.0000 
      9 CA         15.2020    1.9600   10.1010 C.3       2 GLP5        0.0000 
     10 CA         13.0675    2.0770    9.1495 C.3       1 GLC5        0.0000 
     11 CA         11.1270    1.3840    9.3210 C.3       3 GLL5        0.0000 
     12 CA         15.0080    2.7700    8.9780 C.3       2 GLP5        0.0000 
     13 CA          8.8960    4.6115   10.1425 C.3       1 GLC5        0.0000 
     14 CA          9.1220    3.0370    9.1700 C.3       3 GLL5        0.0000 
     15 CA          8.6700    6.1860   11.1150 C.3       2 GLP5        0.0000 
     16 CA         11.4025   -0.6510    6.8500 C.3       1 GLC5        0.0000 
     17 CA         10.9590   -0.8870    8.6540 C.3       3 GLL5        0.0000 
     18 CA         11.8460   -0.4150    5.0460 C.3       2 GLP5        0.0000 
     19 CA         11.3345   -2.6715    8.2115 C.3       1 GLC5        0.0000 
     20 CA         11.7100   -4.4560    7.7690 C.3       2 GLP5        0.0000 
     21 CA          9.6910   -1.8370    9.3630 C.3       1 GLC5        0.0000 
     22 CA          8.4230   -2.7870   10.0720 C.3       2 GLP5        0.0000 
     23 CA          9.6820   -0.7775    7.7905 C.3       1 GLC5        0.0000 
     24 CA          8.4050   -0.6680    6.9270 C.3       2 GLP5        0.0000 
     25 CA          9.8085   -1.3270   11.2175 C.3       1 GLC5        0.0000 
     26 CA         11.1170   -0.2770   11.0500 C.3       3 GLL5        0.0000 
     27 CA          8.5000   -2.3770   11.3850 C.3       2 GLP5        0.0000 
     28 CA         16.1750   -4.6246   11.6506 C.3       1 GLC5        0.0000 
     29 CA         17.2830   -6.2370   11.9360 C.3       2 GLP5        0.0000 
     30 CA         10.6154    3.2119    8.0936 C.3       1 GLC5        0.0000 
     31 CA         11.4890    4.1650    6.9550 C.3       2 GLP5        0.0000 
     32 CA          9.0734    0.7954    8.0796 C.3       1 GLC5        0.0000 
@<TRIPOS>BOND
@<TRIPOS>SUBSTRUCTURE
     1 GLC5        1 GROUP        1 X    GLC  0     ROOT GLC X 6
     2 GLP5        3 GROUP        1 Y    GLP  0     ROOT GLP Y 13
     3 GLL5        2 GROUP        1 Z    GLL  0     ROOT GLL Z 20
@<TRIPOS>SET

