#    Name: 4a8g_DMX_1_ligand
#    Modification time : Tue Mar 25 05:15:53 2014

@<TRIPOS>MOLECULE
4a8g_DMX_1_ligand
   36    36     1     0     0
SMALL
NO_CHARGES


@<TRIPOS>ATOM
      1 C1         15.0620   -3.5630   11.6100 C.ar      1 DMX1160     0.0000 
      2 C2         13.7120   -3.7220   11.2790 C.ar      1 DMX1160     0.0000 
      3 C3         13.0540   -2.6900   10.6040 C.ar      1 DMX1160     0.0000 
      4 C4         13.7050   -1.4780   10.2790 C.ar      1 DMX1160     0.0000 
      5 C5         15.0600   -1.3590   10.6330 C.ar      1 DMX1160     0.0000 
      6 C6         15.7470   -2.3820   11.2860 C.ar      1 DMX1160     0.0000 
      7 C7         13.0210   -0.2830    9.5400 C.3       1 DMX1160     0.0000 
      8 N8         11.5520   -0.0040    9.6600 N.4       1 DMX1160     0.0000 
      9 C9         11.1270    1.3840    9.3210 C.3       1 DMX1160     0.0000 
     10 C10         9.1220    3.0370    9.1700 C.3       1 DMX1160     0.0000 
     11 S11         7.5620    3.2750    8.5580 S.o2      1 DMX1160     0.0000 
     12 C12        10.9590   -0.8870    8.6540 C.3       1 DMX1160     0.0000 
     13 C13        11.1170   -0.2770   11.0500 C.3       1 DMX1160     0.0000 
     14 O14         7.4360    2.4380    7.1570 O.co2     1 DMX1160     0.0000 
     15 O15         7.2620    4.8620    8.1740 O.co2     1 DMX1160     0.0000 
     16 O16         6.4470    2.7310    9.6440 O.co2     1 DMX1160     0.0000 
     17 C17         9.5960    1.5770    9.2680 C.3       1 DMX1160     0.0000 
     18 H          15.5610   -4.3213   12.0977 H         1 DMX1160     0.0000 
     19 H          13.2167   -4.5770   11.5264 H         1 DMX1160     0.0000 
     20 H          12.0615   -2.8100   10.3313 H         1 DMX1160     0.0000 
     21 H          15.5617   -0.4790   10.3987 H         1 DMX1160     0.0000 
     22 H          16.7314   -2.2772   11.5259 H         1 DMX1160     0.0000 
     23 H          13.2877   -0.3888    8.4362 H         1 DMX1160     0.0000 
     24 H          13.6000    0.6545    9.8341 H         1 DMX1160     0.0000 
     25 H          11.5411    1.6777    8.3395 H         1 DMX1160     0.0000 
     26 H          11.5343    2.0962   10.0613 H         1 DMX1160     0.0000 
     27 H           9.1175    3.5163   10.1551 H         1 DMX1160     0.0000 
     28 H           9.7773    3.6203    8.5138 H         1 DMX1160     0.0000 
     29 H           9.1522    1.1185   10.1704 H         1 DMX1160     0.0000 
     30 H           9.2005    1.0155    8.4021 H         1 DMX1160     0.0000 
     31 H          11.3872   -0.7695    7.7580 H         1 DMX1160     0.0000 
     32 H          11.0572   -1.8509    8.9017 H         1 DMX1160     0.0000 
     33 H           9.9813   -0.7126    8.5367 H         1 DMX1160     0.0000 
     34 H          11.2787   -1.2291   11.3096 H         1 DMX1160     0.0000 
     35 H          11.6046    0.2938   11.7106 H         1 DMX1160     0.0000 
     36 H          10.1406   -0.1010   11.1749 H         1 DMX1160     0.0000 
@<TRIPOS>BOND
     1    2    1 ar   
     2    6    1 ar   
     3   18    1 1    
     4    3    2 ar   
     5   19    2 1    
     6    4    3 ar   
     7   20    3 1    
     8    5    4 ar   
     9    7    4 1    
    10    6    5 ar   
    11   21    5 1    
    12   22    6 1    
    13    8    7 1    
    14   23    7 1    
    15   24    7 1    
    16    9    8 1    
    17   12    8 1    
    18   13    8 1    
    19   17    9 1    
    20   25    9 1    
    21   26    9 1    
    22   11   10 1    
    23   17   10 1    
    24   27   10 1    
    25   28   10 1    
    26   14   11 ar   
    27   15   11 ar   
    28   16   11 ar   
    29   31   12 1    
    30   32   12 1    
    31   33   12 1    
    32   34   13 1    
    33   35   13 1    
    34   36   13 1    
    35   29   17 1    
    36   30   17 1    
@<TRIPOS>SUBSTRUCTURE
     1 DMX1160     1 GROUP   
@<TRIPOS>SET

