#    Name: 1qpe_PP2_1_INTS_M
#    Modification time : Mon Mar 24 23:48:11 2014

@<TRIPOS>MOLECULE
1qpe_PP2_1_INTS_M
   53     0     9     0     0
SMALL
NO_CHARGES


@<TRIPOS>ATOM
      1 CA         25.3895   35.5910   79.9125 C.3       3 GLC5        0.0000 
      2 CA         25.9990   35.6530   81.7810 C.3       9 GLL5        0.0000 
      3 CA         24.7800   35.5290   78.0440 C.3       6 GLP5        0.0000 
      4 CA         27.2670   37.0360   80.6080 C.3       3 GLC5        0.0000 
      5 CA         28.5350   38.4190   79.4350 C.3       6 GLP5        0.0000 
      6 CA         24.3725   36.8600   81.1200 C.3       3 GLC5        0.0000 
      7 CA         22.7460   38.0670   80.4590 C.3       6 GLP5        0.0000 
      8 N          24.8580   34.2595   80.5110 N.am      2 SEC2        0.0000 
      9 N          24.7390   35.1270   81.7880 N.am      8 SEL2        0.0000 
     10 N          24.9770   33.3920   79.2340 N.am      5 SEP2        0.0000 
     11 CA         23.0180   37.7295   82.3885 C.3       3 GLC5        0.0000 
     12 CA         23.2900   37.3920   84.3180 C.3       9 GLL5        0.0000 
     13 CA         22.5095   34.3965   84.9710 C.3       3 GLC5        0.0000 
     14 CA         21.5890   35.9510   85.4520 C.3       9 GLL5        0.0000 
     15 CA         23.4300   32.8420   84.4900 C.3       6 GLP5        0.0000 
     16 CA         20.4370   35.7970   88.0170 C.3       3 GLC5        0.0000 
     17 CA         20.3660   35.7620   86.1120 C.3       9 GLL5        0.0000 
     18 CA         20.5080   35.8320   89.9220 C.3       6 GLP5        0.0000 
     19 CA         27.7460   39.1585   81.3640 C.3       3 GLC5        0.0000 
     20 CA         26.9570   39.8980   83.2930 C.3       9 GLL5        0.0000 
     21 CA         27.2945   41.4260   81.9625 C.3       3 GLC5        0.0000 
     22 CA         27.6320   42.9540   80.6320 C.3       6 GLP5        0.0000 
     23 CA         25.7115   39.9540   81.7635 C.3       3 GLC5        0.0000 
     24 CA         24.4660   40.0100   80.2340 C.3       6 GLP5        0.0000 
     25 CA         28.7545   37.2670   86.1925 C.3       3 GLC5        0.0000 
     26 CA         27.6460   38.5070   85.4450 C.3       9 GLL5        0.0000 
     27 CA         29.8630   36.0270   86.9400 C.3       6 GLP5        0.0000 
     28 O          22.0620   33.8635   81.6785 O.2       1 ALC1        0.0000 
     29 O          22.4580   35.0320   82.3980 O.2       7 ALL1        0.0000 
     30 O          21.6660   32.6950   80.9590 O.2       4 ALP1        0.0000 
     31 CA         18.9210   37.4485   88.2500 C.3       3 GLC5        0.0000 
     32 CA         17.8600   36.6550   86.8930 C.3       9 GLL5        0.0000 
     33 CA         19.9820   38.2420   89.6070 C.3       6 GLP5        0.0000 
     34 CA         16.1420   38.0420   87.0990 C.3       3 GLC5        0.0000 
     35 CA         14.4240   39.4290   87.3050 C.3       6 GLP5        0.0000 
     36 CA         16.1505   36.6025   85.5305 C.3       3 GLC5        0.0000 
     37 CA         14.4410   36.5500   84.1680 C.3       6 GLP5        0.0000 
     38 CA         16.8895   35.3320   87.4340 C.3       3 GLC5        0.0000 
     39 CA         15.9190   34.0090   87.9750 C.3       6 GLP5        0.0000 
     40 CA         24.9415   36.5463   85.4800 C.3       3 GLC5        0.0000 
     41 CA         24.0410   36.6380   83.4210 C.3       9 GLL5        0.0000 
     42 CA         25.1840   36.2030   87.5700 C.3       6 GLP5        0.0000 
     43 CA         23.6605   34.4640   83.7362 C.3       3 GLC5        0.0000 
     44 CA         23.4830   37.1394   81.7130 C.3       3 GLC5        0.0000 
     45 CA         23.7410   35.5340   82.5440 C.3       9 GLL5        0.0000 
     46 CA         23.6431   36.4111   86.2946 C.3       3 GLC5        0.0000 
     47 CA         19.4563   34.7903   85.0870 C.3       3 GLC5        0.0000 
     48 CA         17.9350   33.7240   84.3920 C.3       6 GLP5        0.0000 
     49 CA         19.8015   37.8533   87.7415 C.3       3 GLC5        0.0000 
     50 CA         19.4670   36.8480   86.1570 C.3       9 GLL5        0.0000 
     51 CA         18.2993   35.2377   85.4585 C.3       3 GLC5        0.0000 
     52 CA         26.1303   37.5130   86.2970 C.3       3 GLC5        0.0000 
     53 CA         26.5070   39.1390   84.6030 C.3       9 GLL5        0.0000 
@<TRIPOS>BOND
@<TRIPOS>SUBSTRUCTURE
     1 ALC1       28 GROUP        1 X    ALC  0     ROOT ALC X 1
     2 SEC2        8 GROUP        1 X    SEC  0     **** SEC X 2
     3 GLC5        1 GROUP        1 X    GLC  0     **** GLC X 6
     4 ALP1       30 GROUP        1 Y    ALP  0     ROOT ALP Y 8
     5 SEP2       10 GROUP        1 Y    SEP  0     **** SEP Y 9
     6 GLP5        3 GROUP        1 Y    GLP  0     **** GLP Y 13
     7 ALL1       29 GROUP        1 Z    ALL  0     ROOT ALL Z 15
     8 SEL2        9 GROUP        1 Z    SEL  0     **** SEL Z 16
     9 GLL5        2 GROUP        1 Z    GLL  0     **** GLL Z 20
@<TRIPOS>SET

