#    Name: 1qpe_PP2_1_ligand
#    Modification time : Mon Mar 24 23:48:11 2014

@<TRIPOS>MOLECULE
1qpe_PP2_1_ligand
   38    40     1     0     0
SMALL
NO_CHARGES


@<TRIPOS>ATOM
      1 C1         25.3570   37.1410   83.3590 C.ar      1 PP21904     0.0000 
      2 N2         26.3410   36.6570   82.5560 N.ar      1 PP21904     0.0000 
      3 C3         25.9990   35.6530   81.7810 C.ar      1 PP21904     0.0000 
      4 N4         24.7390   35.1270   81.7880 N.ar      1 PP21904     0.0000 
      5 C5         23.7410   35.5340   82.5440 C.ar      1 PP21904     0.0000 
      6 C6         24.0410   36.6380   83.4210 C.ar      1 PP21904     0.0000 
      7 C8         23.2900   37.3920   84.3180 C.2       1 PP21904     0.0000 
      8 N9         24.0960   38.3650   84.7990 N.pl3     1 PP21904     0.0000 
      9 N10        25.3550   38.2130   84.2400 N.pl3     1 PP21904     0.0000 
     10 C11        21.9410   37.1830   84.8550 C.ar      1 PP21904     0.0000 
     11 C12        21.5890   35.9510   85.4520 C.ar      1 PP21904     0.0000 
     12 C13        20.3660   35.7620   86.1120 C.ar      1 PP21904     0.0000 
     13 C14        19.4670   36.8480   86.1570 C.ar      1 PP21904     0.0000 
     14 C15        19.7750   38.0810   85.5950 C.ar      1 PP21904     0.0000 
     15 C16        21.0480   38.2860   84.9010 C.ar      1 PP21904     0.0000 
     16 C22        26.5070   39.1390   84.6030 C.3       1 PP21904     0.0000 
     17 C23        26.9570   39.8980   83.2930 C.3       1 PP21904     0.0000 
     18 C24        27.6460   38.5070   85.4450 C.3       1 PP21904     0.0000 
     19 C25        26.0500   40.2190   85.7040 C.3       1 PP21904     0.0000 
     20 N25        22.4580   35.0320   82.3980 N.pl3     1 PP21904     0.0000 
     21 CL         17.8600   36.6550   86.8930 Cl        1 PP21904     0.0000 
     22 H          26.7077   35.2219   81.1213 H         1 PP21904     0.0000 
     23 H          23.8557   39.0535   85.4226 H         1 PP21904     0.0000 
     24 H          22.2619   35.1620   85.3975 H         1 PP21904     0.0000 
     25 H          20.1335   34.8804   86.5413 H         1 PP21904     0.0000 
     26 H          19.1304   38.8707   85.6489 H         1 PP21904     0.0000 
     27 H          21.2568   39.1612   84.4896 H         1 PP21904     0.0000 
     28 H          22.3357   34.3361   81.6903 H         1 PP21904     0.0000 
     29 H          21.7654   35.4090   83.0129 H         1 PP21904     0.0000 
     30 H          27.7135   40.5276   83.4699 H         1 PP21904     0.0000 
     31 H          27.2633   39.2639   82.5830 H         1 PP21904     0.0000 
     32 H          26.2116   40.4380   82.9020 H         1 PP21904     0.0000 
     33 H          28.0747   37.7374   84.9717 H         1 PP21904     0.0000 
     34 H          28.3696   39.1673   85.6459 H         1 PP21904     0.0000 
     35 H          27.3119   38.1622   86.3222 H         1 PP21904     0.0000 
     36 H          26.7977   40.8344   85.9533 H         1 PP21904     0.0000 
     37 H          25.2980   40.7899   85.3745 H         1 PP21904     0.0000 
     38 H          25.7377   39.7808   86.5469 H         1 PP21904     0.0000 
@<TRIPOS>BOND
     1    2    1 ar   
     2    6    1 ar   
     3    9    1 1    
     4    3    2 ar   
     5    4    3 ar   
     6   22    3 1    
     7    5    4 ar   
     8    6    5 ar   
     9   20    5 1    
    10    7    6 1    
    11    8    7 2    
    12   10    7 1    
    13    9    8 1    
    14   23    8 1    
    15   16    9 1    
    16   11   10 ar   
    17   15   10 ar   
    18   12   11 ar   
    19   24   11 1    
    20   13   12 ar   
    21   25   12 1    
    22   14   13 ar   
    23   21   13 1    
    24   15   14 ar   
    25   26   14 1    
    26   27   15 1    
    27   17   16 1    
    28   18   16 1    
    29   19   16 1    
    30   30   17 1    
    31   31   17 1    
    32   32   17 1    
    33   33   18 1    
    34   34   18 1    
    35   35   18 1    
    36   36   19 1    
    37   37   19 1    
    38   38   19 1    
    39   28   20 1    
    40   29   20 1    
@<TRIPOS>SUBSTRUCTURE
     1 PP21904     1 GROUP   
@<TRIPOS>SET

