#    Name: 3kck_3KC_1_INTS_M
#    Modification time : Mon Mar 24 19:16:19 2014

@<TRIPOS>MOLECULE
3kck_3KC_1_INTS_M
   70     0     9     0     0
SMALL
NO_CHARGES


@<TRIPOS>ATOM
      1 CA         12.8770   13.6535   -0.2410 C.3       3 GLC5        0.0000 
      2 CA         11.3710   15.0250    0.2900 C.3       9 GLL5        0.0000 
      3 CA         14.3830   12.2820   -0.7720 C.3       6 GLP5        0.0000 
      4 CA          8.8045   17.4110    3.6815 C.3       3 GLC5        0.0000 
      5 CA          9.7220   16.6320    1.8570 C.3       9 GLL5        0.0000 
      6 CA          7.8870   18.1900    5.5060 C.3       6 GLP5        0.0000 
      7 CA          7.5260   16.6390    1.9795 C.3       3 GLC5        0.0000 
      8 CA          5.3300   16.6460    2.1020 C.3       6 GLP5        0.0000 
      9 CA         11.1195    7.9705    1.6320 C.3       3 GLC5        0.0000 
     10 CA         12.0640    9.8950    1.9240 C.3       9 GLL5        0.0000 
     11 CA         10.1750    6.0460    1.3400 C.3       6 GLP5        0.0000 
     12 CA         10.7400   11.5570   -0.6710 C.3       3 GLC5        0.0000 
     13 CA         10.8830   11.6810    1.1960 C.3       9 GLL5        0.0000 
     14 CA         10.5970   11.4330   -2.5380 C.3       6 GLP5        0.0000 
     15 CA          9.2330   12.7260    1.2145 C.3       3 GLC5        0.0000 
     16 CA          7.5830   13.7710    1.2330 C.3       6 GLP5        0.0000 
     17 N          10.2670   19.0960   -0.4060 N.am      2 SEC2        0.0000 
     18 N           9.1560   18.0160    0.0610 N.am      8 SEL2        0.0000 
     19 N          11.3780   20.1760   -0.8730 N.am      5 SEP2        0.0000 
     20 CA          8.1560   16.3335   -0.7265 C.3       3 GLC5        0.0000 
     21 CA          9.8430   16.9170    0.5090 C.3       9 GLL5        0.0000 
     22 CA          6.4690   15.7500   -1.9620 C.3       6 GLP5        0.0000 
     23 CA         10.8415   15.0930    5.4330 C.3       3 GLC5        0.0000 
     24 CA         10.2360   15.2770    3.9660 C.3       9 GLL5        0.0000 
     25 CA         11.4470   14.9090    6.9000 C.3       6 GLP5        0.0000 
     26 CA          8.6545   15.5765    5.1000 C.3       3 GLC5        0.0000 
     27 CA          7.0730   15.8760    6.2340 C.3       6 GLP5        0.0000 
     28 CA          8.9530   14.2190    3.4530 C.3       3 GLC5        0.0000 
     29 CA          7.6700   13.1610    2.9400 C.3       6 GLP5        0.0000 
     30 CA         12.4920   12.4060    5.3435 C.3       3 GLC5        0.0000 
     31 CA         14.3180   12.1570    4.1690 C.3       9 GLL5        0.0000 
     32 CA         10.6660   12.6550    6.5180 C.3       6 GLP5        0.0000 
     33 N          12.5105    7.5225    1.2125 N.am      2 SEC2        0.0000 
     34 N          12.6670    8.7330    2.2090 N.am      8 SEL2        0.0000 
     35 N          12.3540    6.3120    0.2160 N.am      5 SEP2        0.0000 
     36 O          10.1520    9.3735    0.6805 O.2       1 ALC1        0.0000 
     37 O          11.0110   10.3200    1.1340 O.2       7 ALL1        0.0000 
     38 O           9.2930    8.4270    0.2270 O.2       4 ALP1        0.0000 
     39 CA          9.7365   12.6820    2.4860 C.3       3 GLC5        0.0000 
     40 CA         11.8030   12.2030    2.0320 C.3       9 GLL5        0.0000 
     41 CA         10.5802   14.6602   -1.4655 C.3       3 GLC5        0.0000 
     42 CA         10.1350   13.7530   -2.9380 C.3       6 GLP5        0.0000 
     43 CA          9.4408   14.3187    1.1002 C.3       3 GLC5        0.0000 
     44 CA         12.3768   15.8393   -1.3015 C.3       3 GLC5        0.0000 
     45 CA         13.7280   16.1110   -2.6100 C.3       6 GLP5        0.0000 
     46 CA          8.8253   14.9385    1.6660 C.3       3 GLC5        0.0000 
     47 CA         15.5987   13.7677    7.8150 C.3       3 GLC5        0.0000 
     48 CA         15.5090   14.0860    5.8360 C.3       9 GLL5        0.0000 
     49 CA         15.4790   14.1150    9.7590 C.3       6 GLP5        0.0000 
     50 CA         14.7843   11.2110    6.9017 C.3       3 GLC5        0.0000 
     51 CA         15.9280   12.7550    5.9060 C.3       9 GLL5        0.0000 
     52 CA         13.9250   10.1410    8.3240 C.3       6 GLP5        0.0000 
     53 CA         15.5207   11.6210    2.6520 C.3       3 GLC5        0.0000 
     54 CA         15.3590   11.8070    5.0530 C.3       9 GLL5        0.0000 
     55 CA         16.2030   11.2600    0.6930 C.3       6 GLP5        0.0000 
     56 CA          8.9223   15.1423    0.6747 C.3       3 GLC5        0.0000 
     57 CA         10.6800   16.1100   -0.2760 C.3       9 GLL5        0.0000 
     58 CA         11.8561   17.5751    0.1160 C.3       3 GLC5        0.0000 
     59 CA         13.2780   18.9080   -0.0260 C.3       6 GLP5        0.0000 
     60 CA         12.9399   14.3972    5.8193 C.3       3 GLC5        0.0000 
     61 CA         13.8600   13.5010    4.0940 C.3       9 GLL5        0.0000 
     62 CA         13.1017    9.1451    5.1134 C.3       3 GLC5        0.0000 
     63 CA         13.7440   11.0000    3.4190 C.3       9 GLL5        0.0000 
     64 CA         12.3150    8.8040    6.9400 C.3       6 GLP5        0.0000 
     65 CA         15.0457   10.3731    1.9899 C.3       3 GLC5        0.0000 
     66 CA         14.3160    9.7210    3.6800 C.3       9 GLL5        0.0000 
     67 CA         10.4974   10.2210    2.9761 C.3       3 GLC5        0.0000 
     68 CA         12.5970   11.0690    2.5450 C.3       9 GLL5        0.0000 
     69 CA          9.1580    9.2300    4.0280 C.3       6 GLP5        0.0000 
     70 CA         13.1099   11.7470    0.5761 C.3       3 GLC5        0.0000 
@<TRIPOS>BOND
@<TRIPOS>SUBSTRUCTURE
     1 ALC1       36 GROUP        1 X    ALC  0     ROOT ALC X 1
     2 SEC2       17 GROUP        1 X    SEC  0     **** SEC X 2
     3 GLC5        1 GROUP        1 X    GLC  0     **** GLC X 6
     4 ALP1       38 GROUP        1 Y    ALP  0     ROOT ALP Y 8
     5 SEP2       19 GROUP        1 Y    SEP  0     **** SEP Y 9
     6 GLP5        3 GROUP        1 Y    GLP  0     **** GLP Y 13
     7 ALL1       37 GROUP        1 Z    ALL  0     ROOT ALL Z 15
     8 SEL2       18 GROUP        1 Z    SEL  0     **** SEL Z 16
     9 GLL5        2 GROUP        1 Z    GLL  0     **** GLL Z 20
@<TRIPOS>SET

