#    Name: 3kck_3KC_1_ligand
#    Modification time : Mon Mar 24 19:16:19 2014

@<TRIPOS>MOLECULE
3kck_3KC_1_ligand
   37    41     1     0     0
SMALL
NO_CHARGES


@<TRIPOS>ATOM
      1 C4         11.3710   15.0250    0.2900 C.ar      1 3KC1        0.0000 
      2 C5         11.2260   14.7080    1.6450 C.ar      1 3KC1        0.0000 
      3 C6         10.4130   15.5800    2.3410 C.ar      1 3KC1        0.0000 
      4 C8          9.7220   16.6320    1.8570 C.ar      1 3KC1        0.0000 
      5 C13        15.5090   14.0860    5.8360 C.ar      1 3KC1        0.0000 
      6 C15        15.3590   11.8070    5.0530 C.ar      1 3KC1        0.0000 
      7 C17        13.7440   11.0000    3.4190 C.ar      1 3KC1        0.0000 
      8 C21        12.0640    9.8950    1.9240 C.ar      1 3KC1        0.0000 
      9 C24        10.8830   11.6810    1.1960 C.2       1 3KC1        0.0000 
     10 C26        12.5970   11.0690    2.5450 C.ar      1 3KC1        0.0000 
     11 O1          9.1560   18.0160    0.0610 O.3       1 3KC1        0.0000 
     12 C2          9.8430   16.9170    0.5090 C.ar      1 3KC1        0.0000 
     13 C3         10.6800   16.1100   -0.2760 C.ar      1 3KC1        0.0000 
     14 CL7        10.2360   15.2770    3.9660 Cl        1 3KC1        0.0000 
     15 C9         12.0170   13.6250    2.3270 C.2       1 3KC1        0.0000 
     16 N10        12.9060   14.0610    3.2420 N.2       1 3KC1        0.0000 
     17 C11        13.8600   13.5010    4.0940 C.ar      1 3KC1        0.0000 
     18 C12        14.5020   14.4540    4.9300 C.ar      1 3KC1        0.0000 
     19 C14        15.9280   12.7550    5.9060 C.ar      1 3KC1        0.0000 
     20 C16        14.3180   12.1570    4.1690 C.ar      1 3KC1        0.0000 
     21 C18        14.3160    9.7210    3.6800 C.ar      1 3KC1        0.0000 
     22 C19        13.7470    8.6120    3.0240 C.ar      1 3KC1        0.0000 
     23 N20        12.6670    8.7330    2.2090 N.ar      1 3KC1        0.0000 
     24 N22        11.0110   10.3200    1.1340 N.pl3     1 3KC1        0.0000 
     25 C25        11.8030   12.2030    2.0320 C.2       1 3KC1        0.0000 
     26 H          11.9929   14.4563   -0.3039 H         1 3KC1        0.0000 
     27 H           9.1252   17.2088    2.4521 H         1 3KC1        0.0000 
     28 H          15.9334   14.7931    6.4426 H         1 3KC1        0.0000 
     29 H          15.7015   10.8343    5.0655 H         1 3KC1        0.0000 
     30 H          10.2159   12.1916    0.7004 H         1 3KC1        0.0000 
     31 H          10.7901   16.3142   -1.2790 H         1 3KC1        0.0000 
     32 H          14.2138   15.4452    4.8635 H         1 3KC1        0.0000 
     33 H          16.6476   12.4768    6.5784 H         1 3KC1        0.0000 
     34 H          15.0908    9.6230    4.3056 H         1 3KC1        0.0000 
     35 H          14.1847    7.6764    3.1830 H         1 3KC1        0.0000 
     36 H          10.4470    9.7292    0.6121 H         1 3KC1        0.0000 
     37 H           8.3396   17.6473   -0.3836 H         1 3KC1        0.0000 
@<TRIPOS>BOND
     1    2    1 ar   
     2   13    1 ar   
     3   26    1 1    
     4    3    2 ar   
     5   15    2 1    
     6    4    3 ar   
     7   14    3 1    
     8   12    4 ar   
     9   27    4 1    
    10   18    5 ar   
    11   19    5 ar   
    12   28    5 1    
    13   19    6 ar   
    14   20    6 ar   
    15   29    6 1    
    16   10    7 ar   
    17   20    7 1    
    18   21    7 ar   
    19   10    8 ar   
    20   23    8 ar   
    21   24    8 1    
    22   24    9 1    
    23   25    9 2    
    24   30    9 1    
    25   25   10 1    
    26   12   11 1    
    27   37   11 1    
    28   13   12 ar   
    29   31   13 1    
    30   16   15 2    
    31   25   15 1    
    32   17   16 1    
    33   18   17 ar   
    34   20   17 ar   
    35   32   18 1    
    36   33   19 1    
    37   22   21 ar   
    38   34   21 1    
    39   23   22 ar   
    40   35   22 1    
    41   36   24 1    
@<TRIPOS>SUBSTRUCTURE
     1 3KC1        1 GROUP   
@<TRIPOS>SET

