#    Name: 4goo_0Y2_1_INTS_M
#    Modification time : Mon Mar 24 23:28:48 2014

@<TRIPOS>MOLECULE
4goo_0Y2_1_INTS_M
   71     0    12     0     0
SMALL
NO_CHARGES


@<TRIPOS>ATOM
      1 CA         62.8215    9.0735   61.8305 C.3       4 GLC5        0.0000 
      2 CA         64.3880    9.0850   62.8630 C.3      12 GLL5        0.0000 
      3 CA         61.2550    9.0620   60.7980 C.3       8 GLP5        0.0000 
      4 CA         69.3140    5.1350   60.1185 C.3       4 GLC5        0.0000 
      5 CA         69.3810    3.4270   61.0700 C.3      12 GLL5        0.0000 
      6 CA         69.2470    6.8430   59.1670 C.3       8 GLP5        0.0000 
      7 CA         71.0485    3.5615   60.0185 C.3       4 GLC5        0.0000 
      8 CA         72.7160    3.6960   58.9670 C.3       8 GLP5        0.0000 
      9 N          72.0785    1.8980   62.7420 N.am      2 SEC2        0.0000 
     10 N          71.4740    3.1380   62.3580 N.am     10 SEL2        0.0000 
     11 N          72.6830    0.6580   63.1260 N.am      6 SEP2        0.0000 
     12 OD1        68.5995    1.6730   59.8160 O.co2     3 ASC3        0.0000 
     13 OD1        69.8000    2.5160   60.0850 O.co2    11 ASL3        0.0000 
     14 OD1        67.3990    0.8300   59.5470 O.co2     7 ASP3        0.0000 
     15 O          68.5995    1.6730   59.8160 O.2       1 ALC1        0.0000 
     16 O          69.8000    2.5160   60.0850 O.2       9 ALL1        0.0000 
     17 O          67.3990    0.8300   59.5470 O.2       5 ALP1        0.0000 
     18 CA         68.1485    1.8225   65.9250 C.3       4 GLC5        0.0000 
     19 CA         66.6300    3.0970   65.1990 C.3      12 GLL5        0.0000 
     20 CA         69.6670    0.5480   66.6510 C.3       8 GLP5        0.0000 
     21 CA         64.5475    1.2260   64.9725 C.3       4 GLC5        0.0000 
     22 CA         65.3760    2.8900   65.8790 C.3      12 GLL5        0.0000 
     23 CA         63.7190   -0.4380   64.0660 C.3       8 GLP5        0.0000 
     24 O          62.8735    3.6765   66.8690 O.2       1 ALC1        0.0000 
     25 O          63.8650    4.3300   66.8270 O.2       9 ALL1        0.0000 
     26 O          61.8820    3.0230   66.9110 O.2       5 ALP1        0.0000 
     27 O          63.3430    3.5250   69.2140 O.2       1 ALC1        0.0000 
     28 O          64.7610    3.8140   69.2100 O.2       9 ALL1        0.0000 
     29 O          61.9250    3.2360   69.2180 O.2       5 ALP1        0.0000 
     30 CA         65.0865    0.2285   66.9640 C.3       4 GLC5        0.0000 
     31 CA         65.0900    1.8580   67.9280 C.3      12 GLL5        0.0000 
     32 CA         65.0830   -1.4010   66.0000 C.3       8 GLP5        0.0000 
     33 N          62.6460    0.0665   69.9080 N.am      2 SEC2        0.0000 
     34 N          63.7290   -0.7980   68.8740 N.am     10 SEL2        0.0000 
     35 N          61.5630    0.9310   70.9420 N.am      6 SEP2        0.0000 
     36 CA         61.7190   -0.6130   69.1555 C.3       4 GLC5        0.0000 
     37 CA         63.3680   -1.9840   69.4100 C.3      12 GLL5        0.0000 
     38 CA         60.0700    0.7580   68.9010 C.3       8 GLP5        0.0000 
     39 CA         63.8280   -0.6505   70.7945 C.3       4 GLC5        0.0000 
     40 CA         64.2880    0.6830   72.1790 C.3       8 GLP5        0.0000 
     41 CA         62.5620   -3.2050   70.6045 C.3       4 GLC5        0.0000 
     42 CA         61.7560   -4.4260   71.7990 C.3       8 GLP5        0.0000 
     43 N          63.4020   -4.1745   70.0280 N.am      2 SEC2        0.0000 
     44 N          64.1880   -2.6840   70.2250 N.am     10 SEL2        0.0000 
     45 N          62.6160   -5.6650   69.8310 N.am      6 SEP2        0.0000 
     46 CA         64.1315   -3.5505   71.6555 C.3       4 GLC5        0.0000 
     47 CA         65.4210   -2.2460   70.5860 C.3      12 GLL5        0.0000 
     48 CA         62.8420   -4.8550   72.7250 C.3       8 GLP5        0.0000 
     49 CA         61.2793    9.2773   67.0305 C.3       4 GLC5        0.0000 
     50 CA         63.5190    8.9730   67.2140 C.3      12 GLL5        0.0000 
     51 CA         59.3110    9.0230   67.1820 C.3       8 GLP5        0.0000 
     52 CA         64.5233   10.5152   68.0445 C.3       4 GLC5        0.0000 
     53 CA         62.9760   10.0900   66.5440 C.3      12 GLL5        0.0000 
     54 CA         65.7990   11.4990   69.2100 C.3       8 GLP5        0.0000 
     55 CA         64.5757    9.8462   63.2122 C.3       4 GLC5        0.0000 
     56 CA         63.1600   10.2340   65.1870 C.3      12 GLL5        0.0000 
     57 CA         65.4820   10.2130   61.4050 C.3       8 GLP5        0.0000 
     58 CA         63.4708    6.4920   63.7324 C.3       4 GLC5        0.0000 
     59 CA         65.2180    7.7210   63.0340 C.3      12 GLL5        0.0000 
     60 CA         61.9090    5.2590   63.5850 C.3       8 GLP5        0.0000 
     61 CA         65.2457    9.0362   62.5064 C.3       4 GLC5        0.0000 
     62 CA         65.2160    7.3160   64.2670 C.3      12 GLL5        0.0000 
     63 CA         63.9755    5.3558   63.8137 C.3       4 GLC5        0.0000 
     64 CA         65.9960    6.0000   64.5880 C.3      12 GLL5        0.0000 
     65 CA         69.4675    1.8237   63.5938 C.3       4 GLC5        0.0000 
     66 CA         68.0480    3.4880   63.3160 C.3      12 GLL5        0.0000 
     67 CA         70.7450    0.4910   64.5530 C.3       8 GLP5        0.0000 
     68 CA         65.0438    2.3617   70.1455 C.3       4 GLC5        0.0000 
     69 CA         64.8090    2.1500   72.2270 C.3       8 GLP5        0.0000 
     70 CA         64.8550   -0.3852   71.1411 C.3       4 GLC5        0.0000 
     71 CA         64.9800   -0.3040   69.1840 C.3      12 GLL5        0.0000 
@<TRIPOS>BOND
@<TRIPOS>SUBSTRUCTURE
     1 ALC1       15 GROUP        1 X    ALC  0     ROOT ALC X 1
     2 SEC2        9 GROUP        1 X    SEC  0     **** SEC X 2
     3 ASC3       12 GROUP        1 X    ASC  0     **** ASC X 3
     4 GLC5        1 GROUP        1 X    GLC  0     **** GLC X 6
     5 ALP1       17 GROUP        1 Y    ALP  0     ROOT ALP Y 8
     6 SEP2       11 GROUP        1 Y    SEP  0     **** SEP Y 9
     7 ASP3       14 GROUP        1 Y    ASP  0     **** ASP Y 10
     8 GLP5        3 GROUP        1 Y    GLP  0     **** GLP Y 13
     9 ALL1       16 GROUP        1 Z    ALL  0     ROOT ALL Z 15
    10 SEL2       10 GROUP        1 Z    SEL  0     **** SEL Z 16
    11 ASL3       13 GROUP        1 Z    ASL  0     **** ASL Z 17
    12 GLL5        2 GROUP        1 Z    GLL  0     **** GLL Z 20
@<TRIPOS>SET

