#    Name: 4goo_0Y2_1_ligand
#    Modification time : Mon Mar 24 23:28:48 2014

@<TRIPOS>MOLECULE
4goo_0Y2_1_ligand
   67    71     1     0     0
SMALL
NO_CHARGES


@<TRIPOS>ATOM
      1 CBC        64.4780    8.1420   65.1840 C.ar      1 0Y2301      0.0000 
      2 CBG        64.2760    8.0120   66.5280 C.ar      1 0Y2301      0.0000 
      3 CBH        63.5190    8.9730   67.2140 C.ar      1 0Y2301      0.0000 
      4 CBI        62.9760   10.0900   66.5440 C.ar      1 0Y2301      0.0000 
      5 CBJ        63.1600   10.2340   65.1870 C.ar      1 0Y2301      0.0000 
      6 CBD        63.8800    9.3080   64.5200 C.ar      1 0Y2301      0.0000 
      7 S1E        64.3880    9.0850   62.8630 S.3       1 0Y2301      0.0000 
      8 CBF        65.2180    7.7210   63.0340 C.2       1 0Y2301      0.0000 
      9 CBB        65.2160    7.3160   64.2670 C.2       1 0Y2301      0.0000 
     10 CBA        65.9960    6.0000   64.5880 C.3       1 0Y2301      0.0000 
     11 CAZ        66.0880    4.9050   63.4970 C.3       1 0Y2301      0.0000 
     12 NAR        66.6250    3.5050   63.7600 N.4       1 0Y2301      0.0000 
     13 CAS        68.0480    3.4880   63.3160 C.3       1 0Y2301      0.0000 
     14 CB         68.3320    2.8250   61.9530 C.3       1 0Y2301      0.0000 
     15 CA         69.3810    3.4270   61.0700 C.3       1 0Y2301      0.0000 
     16 C          70.5810    3.9370   61.9650 C.2       1 0Y2301      0.0000 
     17 OXT        70.6500    5.1360   62.3270 O.co2     1 0Y2301      0.0000 
     18 O          71.4740    3.1380   62.3580 O.co2     1 0Y2301      0.0000 
     19 N          69.8000    2.5160   60.0850 N.4       1 0Y2301      0.0000 
     20 CAF        66.6300    3.0970   65.1990 C.3       1 0Y2301      0.0000 
     21 CAA        65.3760    2.8900   65.8790 C.3       1 0Y2301      0.0000 
     22 OAE        65.4920    1.6330   66.5980 O.3       1 0Y2301      0.0000 
     23 CAB        65.1700    3.9300   66.9080 C.3       1 0Y2301      0.0000 
     24 OAH        63.8650    4.3300   66.8270 O.3       1 0Y2301      0.0000 
     25 CAC        65.4670    3.2890   68.2000 C.3       1 0Y2301      0.0000 
     26 OAI        64.7610    3.8140   69.2100 O.3       1 0Y2301      0.0000 
     27 CAD        65.0900    1.8580   67.9280 C.3       1 0Y2301      0.0000 
     28 N9         65.6390    0.8390   68.8250 N.pl3     1 0Y2301      0.0000 
     29 C8         66.8610    0.8240   69.4340 C.2       1 0Y2301      0.0000 
     30 N7         67.0100   -0.2880   70.1810 N.2       1 0Y2301      0.0000 
     31 C5         65.8660   -1.0180   70.0570 C.ar      1 0Y2301      0.0000 
     32 C4         64.9800   -0.3040   69.1840 C.ar      1 0Y2301      0.0000 
     33 N3         63.7290   -0.7980   68.8740 N.ar      1 0Y2301      0.0000 
     34 C2         63.3680   -1.9840   69.4100 C.ar      1 0Y2301      0.0000 
     35 N1         64.1880   -2.6840   70.2250 N.ar      1 0Y2301      0.0000 
     36 C6         65.4210   -2.2460   70.5860 C.ar      1 0Y2301      0.0000 
     37 N6         66.2710   -3.0050   71.4610 N.pl3     1 0Y2301      0.0000 
     38 H          64.6704    7.2184   67.0507 H         1 0Y2301      0.0000 
     39 H          63.3541    8.8648   68.2262 H         1 0Y2301      0.0000 
     40 H          62.4465   10.7864   67.0817 H         1 0Y2301      0.0000 
     41 H          62.7477   11.0435   64.6984 H         1 0Y2301      0.0000 
     42 H          65.6051    7.3779   62.2284 H         1 0Y2301      0.0000 
     43 H          65.5423    5.5478   65.5046 H         1 0Y2301      0.0000 
     44 H          67.0341    6.2827   64.8927 H         1 0Y2301      0.0000 
     45 H          66.6781    5.3516   62.6233 H         1 0Y2301      0.0000 
     46 H          65.0447    4.8027   63.0365 H         1 0Y2301      0.0000 
     47 H          66.0801    2.7939   63.1742 H         1 0Y2301      0.0000 
     48 H          68.6744    2.9714   64.0813 H         1 0Y2301      0.0000 
     49 H          68.4411    4.5314   63.2738 H         1 0Y2301      0.0000 
     50 H          67.3586    2.7762   61.3912 H         1 0Y2301      0.0000 
     51 H          68.5863    1.7466   62.1479 H         1 0Y2301      0.0000 
     52 H          68.9508    4.3340   60.6173 H         1 0Y2301      0.0000 
     53 H          67.2515    3.8632   65.7697 H         1 0Y2301      0.0000 
     54 H          67.2708    2.1585   65.2863 H         1 0Y2301      0.0000 
     55 H          64.5627    2.8603   65.2122 H         1 0Y2301      0.0000 
     56 H          65.8707    4.7190   66.7313 H         1 0Y2301      0.0000 
     57 H          66.5403    3.3041   68.3332 H         1 0Y2301      0.0000 
     58 H          63.9801    1.8148   67.9580 H         1 0Y2301      0.0000 
     59 H          67.5312    1.5298   69.3353 H         1 0Y2301      0.0000 
     60 H          62.4141   -2.3775   69.1852 H         1 0Y2301      0.0000 
     61 H          65.9095   -3.8838   71.7724 H         1 0Y2301      0.0000 
     62 H          67.1532   -2.5911   71.6856 H         1 0Y2301      0.0000 
     63 H          70.5711    1.9608   60.3966 H         1 0Y2301      0.0000 
     64 H          69.0687    1.8842   59.8283 H         1 0Y2301      0.0000 
     65 H          70.0923    2.9809   59.2493 H         1 0Y2301      0.0000 
     66 H          63.3862    3.5649   66.3965 H         1 0Y2301      0.0000 
     67 H          63.8182    3.5248   69.0443 H         1 0Y2301      0.0000 
@<TRIPOS>BOND
     1    2    1 ar   
     2    6    1 ar   
     3    9    1 1    
     4    3    2 ar   
     5   38    2 1    
     6    4    3 ar   
     7   39    3 1    
     8    5    4 ar   
     9   40    4 1    
    10    6    5 ar   
    11   41    5 1    
    12    7    6 1    
    13    8    7 1    
    14    9    8 2    
    15   42    8 1    
    16   10    9 1    
    17   11   10 1    
    18   43   10 1    
    19   44   10 1    
    20   12   11 1    
    21   45   11 1    
    22   46   11 1    
    23   13   12 1    
    24   20   12 1    
    25   47   12 1    
    26   14   13 1    
    27   48   13 1    
    28   49   13 1    
    29   15   14 1    
    30   50   14 1    
    31   51   14 1    
    32   16   15 1    
    33   19   15 1    
    34   52   15 1    
    35   17   16 ar   
    36   18   16 ar   
    37   63   19 1    
    38   64   19 1    
    39   65   19 1    
    40   21   20 1    
    41   53   20 1    
    42   54   20 1    
    43   22   21 1    
    44   23   21 1    
    45   55   21 1    
    46   27   22 1    
    47   24   23 1    
    48   25   23 1    
    49   56   23 1    
    50   66   24 1    
    51   26   25 1    
    52   27   25 1    
    53   57   25 1    
    54   67   26 1    
    55   28   27 1    
    56   58   27 1    
    57   29   28 1    
    58   32   28 1    
    59   30   29 2    
    60   59   29 1    
    61   31   30 1    
    62   32   31 ar   
    63   36   31 ar   
    64   33   32 ar   
    65   34   33 ar   
    66   35   34 ar   
    67   60   34 1    
    68   36   35 ar   
    69   37   36 1    
    70   61   37 1    
    71   62   37 1    
@<TRIPOS>SUBSTRUCTURE
     1 0Y2301      1 GROUP   
@<TRIPOS>SET

