#    Name: 1h65_GDP_2_INTS_M
#    Modification time : Tue Mar 25 04:46:13 2014

@<TRIPOS>MOLECULE
1h65_GDP_2_INTS_M
   70     0    15     0     0
SMALL
NO_CHARGES


@<TRIPOS>ATOM
      1 NZ         27.2255   52.4630   20.2455 N.4       3 LYC4        0.0000 
      2 NZ         28.2430   53.2010   19.6870 N.4      13 LYL4        0.0000 
      3 NZ         26.2080   51.7250   20.8040 N.4       8 LYP4        0.0000 
      4 N          27.8960   54.4865   18.9640 N.am      2 SEC2        0.0000 
      5 N          28.2430   53.2010   19.6870 N.am     12 SEL2        0.0000 
      6 N          27.5490   55.7720   18.2410 N.am      7 SEP2        0.0000 
      7 N          29.0035   54.6565   19.7395 N.am      2 SEC2        0.0000 
      8 N          29.7640   56.1120   19.7920 N.am      7 SEP2        0.0000 
      9 N          29.1625   53.8185   20.8325 N.am      2 SEC2        0.0000 
     10 N          30.0820   54.4360   21.9780 N.am      7 SEP2        0.0000 
     11 N          27.2255   52.4630   20.2455 N.am      2 SEC2        0.0000 
     12 N          26.2080   51.7250   20.8040 N.am      7 SEP2        0.0000 
     13 N          27.7385   52.5970   17.3115 N.am      2 SEC2        0.0000 
     14 N          28.7930   51.8160   17.6780 N.am     12 SEL2        0.0000 
     15 N          26.6840   53.3780   16.9450 N.am      7 SEP2        0.0000 
     16 N          28.0420   51.4140   16.1775 N.am      2 SEC2        0.0000 
     17 N          27.2910   51.0120   14.6770 N.am      7 SEP2        0.0000 
     18 NZ         28.1170   51.6250   20.2730 N.4       3 LYC4        0.0000 
     19 NZ         30.0260   51.5250   19.7420 N.4      13 LYL4        0.0000 
     20 Zn         29.8930   50.4340   19.8900 Zn        4 ZIC7        0.0000 
     21 Zn         30.0260   51.5250   19.7420 Zn       14 ZIL7        0.0000 
     22 Zn         29.7600   49.3430   20.0380 Zn        9 ZIP7        0.0000 
     23 N          30.8345   51.7375   21.0600 N.am      2 SEC2        0.0000 
     24 N          30.0260   51.5250   19.7420 N.am     12 SEL2        0.0000 
     25 N          31.6430   51.9500   22.3780 N.am      7 SEP2        0.0000 
     26 N          30.0740   54.8055   19.1165 N.am      2 SEC2        0.0000 
     27 N          30.3840   53.4990   18.4410 N.am     12 SEL2        0.0000 
     28 N          32.4110   51.1320   16.5735 N.am      2 SEC2        0.0000 
     29 N          32.2290   51.9220   17.7250 N.am     12 SEL2        0.0000 
     30 N          32.5930   50.3420   15.4220 N.am      7 SEP2        0.0000 
     31 N          33.4085   53.2140   20.7910 N.am      2 SEC2        0.0000 
     32 N          32.5920   53.4570   19.7160 N.am     12 SEL2        0.0000 
     33 N          34.2250   52.9710   21.8660 N.am      7 SEP2        0.0000 
     34 N          33.8845   53.9400   19.6435 N.am      2 SEC2        0.0000 
     35 N          35.1770   54.4230   19.5710 N.am      7 SEP2        0.0000 
     36 CA         29.6670   54.4010   16.2530 C.3       5 GLC5        0.0000 
     37 CA         31.7490   54.4940   16.2230 C.3      15 GLL5        0.0000 
     38 CA         27.5850   54.3080   16.2830 C.3      10 GLP5        0.0000 
     39 CA         30.8055   55.7025   14.5850 C.3       5 GLC5        0.0000 
     40 CA         29.8620   56.9110   12.9470 C.3      10 GLP5        0.0000 
     41 CA         31.6055   56.6365   14.3730 C.3       5 GLC5        0.0000 
     42 CA         32.6500   55.2580   15.3040 C.3      15 GLL5        0.0000 
     43 CA         30.5610   58.0150   13.4420 C.3      10 GLP5        0.0000 
     44 CA         34.6935   52.7795   15.9415 C.3       5 GLC5        0.0000 
     45 CA         34.0390   54.6860   15.1180 C.3      15 GLL5        0.0000 
     46 CA         35.3480   50.8730   16.7650 C.3      10 GLP5        0.0000 
     47 CA         33.4570   53.6870   13.3445 C.3       5 GLC5        0.0000 
     48 CA         32.8750   52.6880   11.5710 C.3      10 GLP5        0.0000 
     49 CA         33.0305   57.5810   14.4210 C.3       5 GLC5        0.0000 
     50 CA         34.2420   56.8530   15.9170 C.3      15 GLL5        0.0000 
     51 CA         31.8190   58.3090   12.9250 C.3      10 GLP5        0.0000 
     52 CA         35.3440   57.3200   14.3100 C.3       5 GLC5        0.0000 
     53 CA         36.4460   57.7870   12.7030 C.3      10 GLP5        0.0000 
     54 CA         35.9495   58.8380   20.2220 C.3       5 GLC5        0.0000 
     55 CA         34.6530   59.3640   18.4940 C.3      15 GLL5        0.0000 
     56 CA         37.2460   58.3120   21.9500 C.3      10 GLP5        0.0000 
     57 N          33.8710   61.9530   20.2495 N.am      2 SEC2        0.0000 
     58 N          34.9310   60.9070   20.0560 N.am     12 SEL2        0.0000 
     59 N          32.8110   62.9990   20.4430 N.am      7 SEP2        0.0000 
     60 N          36.1205   60.8165   21.1835 N.am      2 SEC2        0.0000 
     61 N          37.3100   60.7260   22.3110 N.am      7 SEP2        0.0000 
     62 O          36.3940   62.1040   18.7965 O.2       1 ALC1        0.0000 
     63 O          35.4720   61.3360   17.9170 O.2      11 ALL1        0.0000 
     64 O          37.3160   62.8720   19.6760 O.2       6 ALP1        0.0000 
     65 CA         35.9685   55.9865   14.4512 C.3       5 GLC5        0.0000 
     66 CA         34.8970   55.4900   16.0450 C.3      15 GLL5        0.0000 
     67 CA         37.4690   56.8850   13.3210 C.3      10 GLP5        0.0000 
     68 CA         33.2050   60.2365   17.9470 C.3       5 GLC5        0.0000 
     69 CA         34.9490   58.9720   17.2180 C.3      15 GLL5        0.0000 
     70 CA         31.6090   61.3050   18.0380 C.3      10 GLP5        0.0000 
@<TRIPOS>BOND
@<TRIPOS>SUBSTRUCTURE
     1 ALC1       62 GROUP        1 X    ALC  0     ROOT ALC X 1
     2 SEC2        4 GROUP        1 X    SEC  0     **** SEC X 2
     3 LYC4        1 GROUP        1 X    LYC  0     **** LYC X 4
     4 ZIC7       20 GROUP        1 X    ZIC  0     **** ZIC X 5
     5 GLC5       36 GROUP        1 X    GLC  0     **** GLC X 6
     6 ALP1       64 GROUP        1 Y    ALP  0     ROOT ALP Y 8
     7 SEP2        6 GROUP        1 Y    SEP  0     **** SEP Y 9
     8 LYP4        3 GROUP        1 Y    LYP  0     **** LYP Y 11
     9 ZIP7       22 GROUP        1 Y    ZIP  0     **** ZIP Y 12
    10 GLP5       38 GROUP        1 Y    GLP  0     **** GLP Y 13
    11 ALL1       63 GROUP        1 Z    ALL  0     ROOT ALL Z 15
    12 SEL2        5 GROUP        1 Z    SEL  0     **** SEL Z 16
    13 LYL4        2 GROUP        1 Z    LYL  0     **** LYL Z 18
    14 ZIL7       21 GROUP        1 Z    ZIL  0     **** ZIL Z 19
    15 GLL5       37 GROUP        1 Z    GLL  0     **** GLL Z 20
@<TRIPOS>SET

