#    Name: 1h65_GDP_2_ligand
#    Modification time : Tue Mar 25 04:46:13 2014

@<TRIPOS>MOLECULE
1h65_GDP_2_ligand
   40    42     1     0     0
SMALL
NO_CHARGES


@<TRIPOS>ATOM
      1 PB         29.2330   52.5390   18.8780 P.3       1 GDP281      0.0000 
      2 O1B        28.2430   53.2010   19.6870 O.co2     1 GDP281      0.0000 
      3 O2B        28.7930   51.8160   17.6780 O.co2     1 GDP281      0.0000 
      4 O3B        30.0260   51.5250   19.7420 O.co2     1 GDP281      0.0000 
      5 O3A        30.3840   53.4990   18.4410 O.3       1 GDP281      0.0000 
      6 PA         31.9860   53.2380   18.3820 P.3       1 GDP281      0.0000 
      7 O1A        32.2290   51.9220   17.7250 O.co2     1 GDP281      0.0000 
      8 O2A        32.5920   53.4570   19.7160 O.co2     1 GDP281      0.0000 
      9 O5'        32.3750   54.3040   17.4890 O.3       1 GDP281      0.0000 
     10 C5'        31.7490   54.4940   16.2230 C.3       1 GDP281      0.0000 
     11 C4'        32.6500   55.2580   15.3040 C.3       1 GDP281      0.0000 
     12 O4'        32.8560   56.5890   15.8050 O.3       1 GDP281      0.0000 
     13 C3'        34.0390   54.6860   15.1180 C.3       1 GDP281      0.0000 
     14 O3'        34.4830   54.8020   13.8050 O.3       1 GDP281      0.0000 
     15 C2'        34.8970   55.4900   16.0450 C.3       1 GDP281      0.0000 
     16 O2'        36.1890   55.5730   15.4600 O.3       1 GDP281      0.0000 
     17 C1'        34.2420   56.8530   15.9170 C.3       1 GDP281      0.0000 
     18 N9         34.4550   57.6560   17.1320 N.pl3     1 GDP281      0.0000 
     19 C8         33.8880   57.4040   18.3490 C.2       1 GDP281      0.0000 
     20 N7         34.0780   58.3360   19.2140 N.2       1 GDP281      0.0000 
     21 C5         34.6530   59.3640   18.4940 C.2       1 GDP281      0.0000 
     22 C6         34.9900   60.5090   18.9100 C.2       1 GDP281      0.0000 
     23 O6         34.9310   60.9070   20.0560 O.2       1 GDP281      0.0000 
     24 N1         35.4720   61.3360   17.9170 N.am      1 GDP281      0.0000 
     25 C2         35.7010   60.9570   16.6540 C.2       1 GDP281      0.0000 
     26 N2         36.2530   61.8850   15.8760 N.pl3     1 GDP281      0.0000 
     27 N3         35.4280   59.7420   16.2100 N.2       1 GDP281      0.0000 
     28 C4         34.9490   58.9720   17.2180 C.2       1 GDP281      0.0000 
     29 H          30.8028   55.0506   16.3242 H         1 GDP281      0.0000 
     30 H          31.5055   53.5292   15.7484 H         1 GDP281      0.0000 
     31 H          32.1869   55.3285   14.3157 H         1 GDP281      0.0000 
     32 H          34.0244   53.6725   15.4799 H         1 GDP281      0.0000 
     33 H          34.8440   55.1492   16.9917 H         1 GDP281      0.0000 
     34 H          34.6188   57.3398   15.0604 H         1 GDP281      0.0000 
     35 H          33.3741   56.5499   18.5125 H         1 GDP281      0.0000 
     36 H          35.6724   62.3519   18.1930 H         1 GDP281      0.0000 
     37 H          36.4355   62.7687   16.3069 H         1 GDP281      0.0000 
     38 H          36.4355   61.6149   14.9306 H         1 GDP281      0.0000 
     39 H          34.8104   53.8892   13.5611 H         1 GDP281      0.0000 
     40 H          36.0706   55.2430   14.5235 H         1 GDP281      0.0000 
@<TRIPOS>BOND
     1    2    1 ar   
     2    3    1 ar   
     3    4    1 ar   
     4    5    1 1    
     5    6    5 1    
     6    7    6 ar   
     7    8    6 ar   
     8    9    6 1    
     9   10    9 1    
    10   11   10 1    
    11   29   10 1    
    12   30   10 1    
    13   12   11 1    
    14   13   11 1    
    15   31   11 1    
    16   17   12 1    
    17   14   13 1    
    18   15   13 1    
    19   32   13 1    
    20   39   14 1    
    21   16   15 1    
    22   17   15 1    
    23   33   15 1    
    24   40   16 1    
    25   18   17 1    
    26   34   17 1    
    27   19   18 1    
    28   28   18 1    
    29   20   19 2    
    30   35   19 1    
    31   21   20 1    
    32   22   21 1    
    33   28   21 2    
    34   23   22 2    
    35   24   22 am   
    36   25   24 1    
    37   36   24 1    
    38   26   25 1    
    39   27   25 2    
    40   37   26 1    
    41   38   26 1    
    42   28   27 1    
@<TRIPOS>SUBSTRUCTURE
     1 GDP281      1 GROUP   
@<TRIPOS>SET

