#    Name: 4jb1_NAP_2_INTS_M
#    Modification time : Tue Mar 25 05:42:42 2014

@<TRIPOS>MOLECULE
4jb1_NAP_2_INTS_M
   75     0    12     0     0
SMALL
NO_CHARGES


@<TRIPOS>ATOM
      1 NZ         26.4825  -43.0030  -25.8085 N.4       3 LYC4        0.0000 
      2 NZ         28.2180  -43.5080  -25.5900 N.4      11 LYL4        0.0000 
      3 NZ         24.7470  -42.4980  -26.0270 N.4       7 LYP4        0.0000 
      4 CA         32.8385  -45.2550  -22.1025 C.3       4 GLC5        0.0000 
      5 CA         31.9140  -43.8020  -23.3840 C.3      12 GLL5        0.0000 
      6 CA         33.7630  -46.7080  -20.8210 C.3       8 GLP5        0.0000 
      7 N          33.7595  -44.9235  -25.5690 N.am      2 SEC2        0.0000 
      8 N          32.8710  -44.0170  -24.3780 N.am     10 SEL2        0.0000 
      9 N          34.6480  -45.8300  -26.7600 N.am      6 SEP2        0.0000 
     10 N          33.9255  -42.1205  -20.8105 N.am      2 SEC2        0.0000 
     11 N          33.0840  -42.9090  -21.6400 N.am     10 SEL2        0.0000 
     12 N          34.7670  -41.3320  -19.9810 N.am      6 SEP2        0.0000 
     13 CA         33.0595  -40.5190  -25.6425 C.3       4 GLC5        0.0000 
     14 CA         33.1030  -41.6680  -23.7640 C.3      12 GLL5        0.0000 
     15 CA         33.0160  -39.3700  -27.5210 C.3       8 GLP5        0.0000 
     16 N          34.4560  -41.0715  -21.5770 N.am      2 SEC2        0.0000 
     17 N          34.1450  -40.8110  -23.1730 N.am     10 SEL2        0.0000 
     18 CA         34.9140  -44.1565  -24.7320 C.3       4 GLC5        0.0000 
     19 CA         33.7200  -42.8550  -24.5370 C.3      12 GLL5        0.0000 
     20 CA         36.1080  -45.4580  -24.9270 C.3       8 GLP5        0.0000 
     21 CA         38.5350  -42.9685  -25.7400 C.3       4 GLC5        0.0000 
     22 CA         37.2940  -41.5400  -26.6690 C.3      12 GLL5        0.0000 
     23 CA         39.7760  -44.3970  -24.8110 C.3       8 GLP5        0.0000 
     24 CA         37.7370  -41.4625  -24.6245 C.3       4 GLC5        0.0000 
     25 CA         38.1800  -41.3850  -22.5800 C.3       8 GLP5        0.0000 
     26 N          36.7105  -41.2360  -24.5500 N.am      2 SEC2        0.0000 
     27 N          36.2620  -41.9290  -25.8880 N.am     10 SEL2        0.0000 
     28 N          37.1590  -40.5430  -23.2120 N.am      6 SEP2        0.0000 
     29 NZ         25.7650  -41.7590  -25.5540 N.4       3 LYC4        0.0000 
     30 NZ         26.7830  -41.0200  -25.0810 N.4      11 LYL4        0.0000 
     31 N          25.7650  -41.7590  -25.5540 N.am      2 SEC2        0.0000 
     32 N          26.7830  -41.0200  -25.0810 N.am     10 SEL2        0.0000 
     33 N          24.7470  -42.4980  -26.0270 N.am      6 SEP2        0.0000 
     34 CA         29.8015  -35.2935  -25.2025 C.3       4 GLC5        0.0000 
     35 CA         29.5490  -37.3190  -25.1210 C.3      12 GLL5        0.0000 
     36 CA         30.0540  -33.2680  -25.2840 C.3       8 GLP5        0.0000 
     37 CA         31.1100  -35.7855  -24.7850 C.3       4 GLC5        0.0000 
     38 CA         30.7030  -37.8420  -24.3400 C.3      12 GLL5        0.0000 
     39 CA         31.5170  -33.7290  -25.2300 C.3       8 GLP5        0.0000 
     40 CA         31.8595  -38.6060  -25.9305 C.3       4 GLC5        0.0000 
     41 N          31.9965  -36.2440  -25.9275 N.am      2 SEC2        0.0000 
     42 N          31.8430  -37.2400  -24.8680 N.am     10 SEL2        0.0000 
     43 N          32.1500  -35.2480  -26.9870 N.am      6 SEP2        0.0000 
     44 CA         29.7510  -34.8020  -24.1645 C.3       4 GLC5        0.0000 
     45 CA         29.4480  -36.3360  -23.0450 C.3      12 GLL5        0.0000 
     46 N          26.5650  -35.8450  -17.1925 N.am      2 SEC2        0.0000 
     47 N          27.2160  -34.6620  -17.9640 N.am     10 SEL2        0.0000 
     48 N          25.9140  -37.0280  -16.4210 N.am      6 SEP2        0.0000 
     49 O          30.4335  -34.9320  -17.2280 O.2       1 ALC1        0.0000 
     50 O          29.4050  -35.1040  -18.2880 O.2       9 ALL1        0.0000 
     51 O          31.4620  -34.7600  -16.1680 O.2       5 ALP1        0.0000 
     52 O          29.4590  -34.4935  -16.9740 O.2       1 ALC1        0.0000 
     53 O          29.5130  -33.8830  -15.6600 O.2       5 ALP1        0.0000 
     54 N          33.8265  -40.2280  -20.9390 N.am      2 SEC2        0.0000 
     55 N          32.8860  -39.1240  -21.8970 N.am     10 SEL2        0.0000 
     56 NZ         36.2880  -39.7705  -22.7500 N.4       3 LYC4        0.0000 
     57 NZ         35.4170  -38.9980  -22.2880 N.4      11 LYL4        0.0000 
     58 NZ         37.1590  -40.5430  -23.2120 N.4       7 LYP4        0.0000 
     59 N          35.0920  -40.1650  -21.1345 N.am      2 SEC2        0.0000 
     60 N          35.4170  -38.9980  -22.2880 N.am     10 SEL2        0.0000 
     61 N          36.2880  -39.7705  -22.7500 N.am      2 SEC2        0.0000 
     62 N          34.3220  -38.6035  -25.2910 N.am      2 SEC2        0.0000 
     63 N          33.6570  -38.5680  -24.2410 N.am     10 SEL2        0.0000 
     64 N          34.9870  -38.6390  -26.3410 N.am      6 SEP2        0.0000 
     65 CA         28.2183  -37.4798  -26.7462 C.3       4 GLC5        0.0000 
     66 CA         27.4200  -37.0900  -28.2690 C.3       8 GLP5        0.0000 
     67 CA         27.4505  -36.8832  -18.6812 C.3       4 GLC5        0.0000 
     68 CA         26.3020  -35.6830  -20.3570 C.3      12 GLL5        0.0000 
     69 CA         27.9280  -38.1660  -17.1740 C.3       8 GLP5        0.0000 
     70 CA         27.3590  -33.6838  -19.4793 C.3       4 GLC5        0.0000 
     71 CA         27.6440  -35.5180  -20.0200 C.3      12 GLL5        0.0000 
     72 CA         27.7450  -31.7670  -18.7700 C.3       8 GLP5        0.0000 
     73 CA         24.5645  -36.0735  -22.5860 C.3       4 GLC5        0.0000 
     74 CA         26.0110  -36.1110  -21.6550 C.3      12 GLL5        0.0000 
     75 CA         22.6070  -35.9060  -23.0640 C.3       8 GLP5        0.0000 
@<TRIPOS>BOND
@<TRIPOS>SUBSTRUCTURE
     1 ALC1       49 GROUP        1 X    ALC  0     ROOT ALC X 1
     2 SEC2        7 GROUP        1 X    SEC  0     **** SEC X 2
     3 LYC4        1 GROUP        1 X    LYC  0     **** LYC X 4
     4 GLC5        4 GROUP        1 X    GLC  0     **** GLC X 6
     5 ALP1       51 GROUP        1 Y    ALP  0     ROOT ALP Y 8
     6 SEP2        9 GROUP        1 Y    SEP  0     **** SEP Y 9
     7 LYP4        3 GROUP        1 Y    LYP  0     **** LYP Y 11
     8 GLP5        6 GROUP        1 Y    GLP  0     **** GLP Y 13
     9 ALL1       50 GROUP        1 Z    ALL  0     ROOT ALL Z 15
    10 SEL2        8 GROUP        1 Z    SEL  0     **** SEL Z 16
    11 LYL4        2 GROUP        1 Z    LYL  0     **** LYL Z 18
    12 GLL5        5 GROUP        1 Z    GLL  0     **** GLL Z 20
@<TRIPOS>SET

