#    Name: 4jb1_NAP_2_ligand
#    Modification time : Tue Mar 25 05:42:43 2014

@<TRIPOS>MOLECULE
4jb1_NAP_2_ligand
   73    77     1     0     0
SMALL
NO_CHARGES


@<TRIPOS>ATOM
      1 PA         29.1300  -42.3070  -25.5190 P.3       1 NAP402      0.0000 
      2 O1A        28.2180  -43.5080  -25.5900 O.co2     1 NAP402      0.0000 
      3 O2A        29.3780  -41.4600  -26.7070 O.co2     1 NAP402      0.0000 
      4 O5B        30.5590  -42.8520  -25.1440 O.3       1 NAP402      0.0000 
      5 C5B        30.5610  -43.7540  -24.0290 C.3       1 NAP402      0.0000 
      6 C4B        31.9140  -43.8020  -23.3840 C.3       1 NAP402      0.0000 
      7 O4B        32.8710  -44.0170  -24.3780 O.3       1 NAP402      0.0000 
      8 C3B        32.2910  -42.4540  -22.7310 C.3       1 NAP402      0.0000 
      9 O3B        33.0840  -42.9090  -21.6400 O.3       1 NAP402      0.0000 
     10 C2B        33.1030  -41.6680  -23.7640 C.3       1 NAP402      0.0000 
     11 O2B        34.1450  -40.8110  -23.1730 O.3       1 NAP402      0.0000 
     12 C1B        33.7200  -42.8550  -24.5370 C.3       1 NAP402      0.0000 
     13 N9A        33.9770  -42.7120  -25.9860 N.pl3     1 NAP402      0.0000 
     14 C8A        33.1600  -42.9640  -27.0490 C.2       1 NAP402      0.0000 
     15 N7A        33.8010  -42.7150  -28.2350 N.2       1 NAP402      0.0000 
     16 C5A        35.0230  -42.2850  -27.9230 C.ar      1 NAP402      0.0000 
     17 C6A        36.1730  -41.9170  -28.7070 C.ar      1 NAP402      0.0000 
     18 N6A        36.0450  -41.9490  -30.0700 N.pl3     1 NAP402      0.0000 
     19 N1A        37.2510  -41.5170  -28.0120 N.ar      1 NAP402      0.0000 
     20 C2A        37.2940  -41.5400  -26.6690 C.ar      1 NAP402      0.0000 
     21 N3A        36.2620  -41.9290  -25.8880 N.ar      1 NAP402      0.0000 
     22 C4A        35.1500  -42.2720  -26.4670 C.ar      1 NAP402      0.0000 
     23 O3         28.7440  -41.5920  -24.1570 O.3       1 NAP402      0.0000 
     24 PN         27.5710  -40.5690  -23.9280 P.3       1 NAP402      0.0000 
     25 O1N        26.7830  -41.0200  -25.0810 O.co2     1 NAP402      0.0000 
     26 O2N        27.1760  -40.5650  -22.4850 O.co2     1 NAP402      0.0000 
     27 O5D        28.0790  -39.0020  -24.0690 O.3       1 NAP402      0.0000 
     28 C5D        28.4840  -38.4200  -25.3260 C.3       1 NAP402      0.0000 
     29 C4D        29.5490  -37.3190  -25.1210 C.3       1 NAP402      0.0000 
     30 O4D        28.9720  -36.2830  -24.3550 O.3       1 NAP402      0.0000 
     31 C3D        30.7030  -37.8420  -24.3400 C.3       1 NAP402      0.0000 
     32 O3D        31.8430  -37.2400  -24.8680 O.3       1 NAP402      0.0000 
     33 C2D        30.3420  -37.5010  -22.8950 C.3       1 NAP402      0.0000 
     34 O2D        31.4360  -37.0810  -22.0830 O.3       1 NAP402      0.0000 
     35 C1D        29.4480  -36.3360  -23.0450 C.3       1 NAP402      0.0000 
     36 N1N        28.3140  -36.2080  -22.1550 N.pl3     1 NAP402      0.0000 
     37 C2N        28.6030  -35.7950  -20.9500 C.ar      1 NAP402      0.0000 
     38 C3N        27.6440  -35.5180  -20.0200 C.ar      1 NAP402      0.0000 
     39 C7N        28.1000  -35.0600  -18.6720 C.2       1 NAP402      0.0000 
     40 O7N        27.2160  -34.6620  -17.9640 O.2       1 NAP402      0.0000 
     41 N7N        29.4050  -35.1040  -18.2880 N.am      1 NAP402      0.0000 
     42 C4N        26.3020  -35.6830  -20.3570 C.ar      1 NAP402      0.0000 
     43 C5N        26.0110  -36.1110  -21.6550 C.ar      1 NAP402      0.0000 
     44 C6N        27.0330  -36.3710  -22.5610 C.ar      1 NAP402      0.0000 
     45 P2B        34.0110  -39.2560  -22.8910 P.3       1 NAP402      0.0000 
     46 O1X        32.8860  -39.1240  -21.8970 O.co2     1 NAP402      0.0000 
     47 O2X        35.4170  -38.9980  -22.2880 O.co2     1 NAP402      0.0000 
     48 O3X        33.6570  -38.5680  -24.2410 O.co2     1 NAP402      0.0000 
     49 H          30.2893  -44.7749  -24.3450 H         1 NAP402      0.0000 
     50 H          29.8236  -43.4461  -23.2692 H         1 NAP402      0.0000 
     51 H          31.9412  -44.5537  -22.6331 H         1 NAP402      0.0000 
     52 H          31.4283  -41.9696  -22.4575 H         1 NAP402      0.0000 
     53 H          32.4427  -41.1750  -24.4089 H         1 NAP402      0.0000 
     54 H          34.6872  -43.0987  -24.0346 H         1 NAP402      0.0000 
     55 H          32.2391  -43.2803  -26.9783 H         1 NAP402      0.0000 
     56 H          36.8523  -41.6781  -30.5942 H         1 NAP402      0.0000 
     57 H          35.1554  -42.2405  -30.4217 H         1 NAP402      0.0000 
     58 H          38.1976  -41.2327  -26.1865 H         1 NAP402      0.0000 
     59 H          27.6334  -37.9613  -25.8503 H         1 NAP402      0.0000 
     60 H          28.9163  -39.1746  -25.9987 H         1 NAP402      0.0000 
     61 H          29.8739  -36.9789  -26.0720 H         1 NAP402      0.0000 
     62 H          30.6908  -38.9128  -24.4457 H         1 NAP402      0.0000 
     63 H          29.7857  -38.3012  -22.4807 H         1 NAP402      0.0000 
     64 H          30.0919  -35.4114  -22.9013 H         1 NAP402      0.0000 
     65 H          29.6176  -35.6617  -20.6585 H         1 NAP402      0.0000 
     66 H          29.5987  -34.8080  -17.3527 H         1 NAP402      0.0000 
     67 H          30.0551  -35.4285  -18.9751 H         1 NAP402      0.0000 
     68 H          25.5668  -35.5008  -19.6903 H         1 NAP402      0.0000 
     69 H          25.0274  -36.2343  -21.9407 H         1 NAP402      0.0000 
     70 H          26.8040  -36.6784  -23.5111 H         1 NAP402      0.0000 
     71 H          32.4400  -43.3615  -21.0231 H         1 NAP402      0.0000 
     72 H          32.4599  -37.9974  -25.0822 H         1 NAP402      0.0000 
     73 H          31.7432  -37.9092  -21.6143 H         1 NAP402      0.0000 
@<TRIPOS>BOND
     1    2    1 ar   
     2    3    1 ar   
     3    4    1 1    
     4   23    1 1    
     5    5    4 1    
     6    6    5 1    
     7   49    5 1    
     8   50    5 1    
     9    7    6 1    
    10    8    6 1    
    11   51    6 1    
    12   12    7 1    
    13    9    8 1    
    14   10    8 1    
    15   52    8 1    
    16   71    9 1    
    17   11   10 1    
    18   12   10 1    
    19   53   10 1    
    20   45   11 1    
    21   13   12 1    
    22   54   12 1    
    23   14   13 1    
    24   22   13 1    
    25   15   14 2    
    26   55   14 1    
    27   16   15 1    
    28   17   16 ar   
    29   22   16 ar   
    30   18   17 1    
    31   19   17 ar   
    32   56   18 1    
    33   57   18 1    
    34   20   19 ar   
    35   21   20 ar   
    36   58   20 1    
    37   22   21 ar   
    38   24   23 1    
    39   25   24 ar   
    40   26   24 ar   
    41   27   24 1    
    42   28   27 1    
    43   29   28 1    
    44   59   28 1    
    45   60   28 1    
    46   30   29 1    
    47   31   29 1    
    48   61   29 1    
    49   35   30 1    
    50   32   31 1    
    51   33   31 1    
    52   62   31 1    
    53   72   32 1    
    54   34   33 1    
    55   35   33 1    
    56   63   33 1    
    57   73   34 1    
    58   36   35 1    
    59   64   35 1    
    60   37   36 ar   
    61   44   36 ar   
    62   38   37 ar   
    63   65   37 1    
    64   39   38 1    
    65   42   38 ar   
    66   40   39 2    
    67   41   39 am   
    68   66   41 1    
    69   67   41 1    
    70   43   42 ar   
    71   68   42 1    
    72   44   43 ar   
    73   69   43 1    
    74   70   44 1    
    75   46   45 ar   
    76   47   45 ar   
    77   48   45 ar   
@<TRIPOS>SUBSTRUCTURE
     1 NAP402      1 GROUP   
@<TRIPOS>SET

