#    Name: 3kcx_CQL_1_INTS_M
#    Modification time : Mon Mar 24 19:16:31 2014

@<TRIPOS>MOLECULE
3kcx_CQL_1_INTS_M
   36     0     6     0     0
SMALL
NO_CHARGES


@<TRIPOS>ATOM
      1 Zn        -23.6990   26.5550    7.0725 Zn        1 ZIC7        0.0000 
      2 Zn        -23.4310   25.4730    6.5070 Zn        5 ZIL7        0.0000 
      3 Zn        -23.9670   27.6370    7.6380 Zn        3 ZIP7        0.0000 
      4 CA        -16.0180   24.4310    6.8090 C.3       2 GLC5        0.0000 
      5 CA        -17.6190   25.1650    7.9850 C.3       6 GLL5        0.0000 
      6 CA        -14.4170   23.6970    5.6330 C.3       4 GLP5        0.0000 
      7 CA        -17.2885   26.9705    7.0090 C.3       2 GLC5        0.0000 
      8 CA        -16.9580   28.7760    6.0330 C.3       4 GLP5        0.0000 
      9 CA        -18.3455   24.6280    9.9730 C.3       2 GLC5        0.0000 
     10 CA        -19.0720   24.0910   11.9610 C.3       4 GLP5        0.0000 
     11 CA        -16.7820   26.2675    9.2710 C.3       2 GLC5        0.0000 
     12 CA        -15.9450   27.3700   10.5570 C.3       4 GLP5        0.0000 
     13 CA        -22.2520   21.9195    3.8380 C.3       2 GLC5        0.0000 
     14 CA        -22.0000   24.0640    4.1630 C.3       6 GLL5        0.0000 
     15 CA        -22.5040   19.7750    3.5130 C.3       4 GLP5        0.0000 
     16 Zn        -23.2615   27.0285    8.2295 Zn        1 ZIC7        0.0000 
     17 Zn        -22.5560   26.4200    8.8210 Zn        5 ZIL7        0.0000 
     18 CA        -22.1695   27.5960    8.9465 C.3       2 GLC5        0.0000 
     19 CA        -21.6440   25.8700    7.9960 C.3       6 GLL5        0.0000 
     20 CA        -22.6950   29.3220    9.8970 C.3       4 GLP5        0.0000 
     21 CA        -22.0750   27.0455   11.8947 C.3       2 GLC5        0.0000 
     22 CA        -20.8130   26.8550   10.3610 C.3       6 GLL5        0.0000 
     23 CA        -22.6650   27.2130   13.6100 C.3       4 GLP5        0.0000 
     24 CA        -20.2010   27.3275   10.7417 C.3       2 GLC5        0.0000 
     25 CA        -22.1570   26.9010    9.9980 C.3       6 GLL5        0.0000 
     26 CA        -18.9170   27.7770   11.3040 C.3       4 GLP5        0.0000 
     27 CA        -21.6840   27.9533    9.8716 C.3       2 GLC5        0.0000 
     28 CA        -19.8610   26.2910    9.5130 C.3       6 GLL5        0.0000 
     29 CA        -19.4955   26.9080   10.1090 C.3       2 GLC5        0.0000 
     30 CA        -19.3775   23.3948    6.5213 C.3       2 GLC5        0.0000 
     31 CA        -19.8200   24.7240    6.2490 C.3       6 GLL5        0.0000 
     32 CA        -18.2510   22.0240    6.9470 C.3       4 GLP5        0.0000 
     33 CA        -18.9990   26.9248    6.2308 C.3       2 GLC5        0.0000 
     34 CA        -18.4100   28.8760    5.6030 C.3       4 GLP5        0.0000 
     35 CA        -18.8191   23.7572    7.4839 C.3       2 GLC5        0.0000 
     36 CA        -19.3560   25.2230    7.4680 C.3       6 GLL5        0.0000 
@<TRIPOS>BOND
@<TRIPOS>SUBSTRUCTURE
     1 ZIC7        1 GROUP        1 X    ZIC  0     ROOT ZIC X 5
     2 GLC5        4 GROUP        1 X    GLC  0     **** GLC X 6
     3 ZIP7        3 GROUP        1 Y    ZIP  0     ROOT ZIP Y 12
     4 GLP5        6 GROUP        1 Y    GLP  0     **** GLP Y 13
     5 ZIL7        2 GROUP        1 Z    ZIL  0     ROOT ZIL Z 19
     6 GLL5        5 GROUP        1 Z    GLL  0     **** GLL Z 20
@<TRIPOS>SET

