#    Name: 3kcx_CQL_1_ligand
#    Modification time : Mon Mar 24 19:16:31 2014

@<TRIPOS>MOLECULE
3kcx_CQL_1_ligand
   17    18     1     0     0
SMALL
NO_CHARGES


@<TRIPOS>ATOM
      1 OAA       -23.4310   25.4730    6.5070 O.3       1 CQL1        0.0000 
      2 CLAB      -17.6190   25.1650    7.9850 Cl        1 CQL1        0.0000 
      3 IAC       -22.0000   24.0640    4.1630 I         1 CQL1        0.0000 
      4 CAD       -20.8130   26.8550   10.3610 C.ar      1 CQL1        0.0000 
      5 CAE       -22.1570   26.9010    9.9980 C.ar      1 CQL1        0.0000 
      6 CAF       -19.8610   26.2910    9.5130 C.ar      1 CQL1        0.0000 
      7 CAG       -19.8200   24.7240    6.2490 C.ar      1 CQL1        0.0000 
      8 NAH       -22.5560   26.4200    8.8210 N.ar      1 CQL1        0.0000 
      9 CAI       -19.3560   25.2230    7.4680 C.ar      1 CQL1        0.0000 
     10 CAJ       -22.0990   25.3810    6.8070 C.ar      1 CQL1        0.0000 
     11 CAK       -21.1880   24.8070    5.9420 C.ar      1 CQL1        0.0000 
     12 CAL       -20.2870   25.7870    8.3150 C.ar      1 CQL1        0.0000 
     13 CAM       -21.6440   25.8700    7.9960 C.ar      1 CQL1        0.0000 
     14 H         -20.5169   27.2443   11.2717 H         1 CQL1        0.0000 
     15 H         -22.8337   27.3194   10.6696 H         1 CQL1        0.0000 
     16 H         -18.8818   26.2611    9.7883 H         1 CQL1        0.0000 
     17 H         -19.1714   24.3006    5.5824 H         1 CQL1        0.0000 
@<TRIPOS>BOND
     1   10    1 1    
     2    9    2 1    
     3   11    3 1    
     4    5    4 ar   
     5    6    4 ar   
     6   14    4 1    
     7    8    5 ar   
     8   15    5 1    
     9   12    6 ar   
    10   16    6 1    
    11    9    7 ar   
    12   11    7 ar   
    13   17    7 1    
    14   13    8 ar   
    15   12    9 ar   
    16   11   10 ar   
    17   13   10 ar   
    18   13   12 ar   
@<TRIPOS>SUBSTRUCTURE
     1 CQL1        1 GROUP   
@<TRIPOS>SET

