#    Name: 1q3w_ATU_1_INTS_M
#    Modification time : Mon Mar 24 23:02:19 2014

@<TRIPOS>MOLECULE
1q3w_ATU_1_INTS_M
   46     0     9     0     0
SMALL
NO_CHARGES


@<TRIPOS>ATOM
      1 O          40.9770    4.7765   38.2865 O.2       1 ALC1        0.0000 
      2 O          40.6340    5.2080   37.1280 O.2       7 ALL1        0.0000 
      3 O          41.3200    4.3450   39.4450 O.2       4 ALP1        0.0000 
      4 CA         41.9460    7.1835   34.4225 C.3       3 GLC5        0.0000 
      5 CA         40.2770    7.2180   35.6730 C.3       9 GLL5        0.0000 
      6 CA         43.6150    7.1490   33.1720 C.3       6 GLP5        0.0000 
      7 CA         41.3105    9.0440   35.8200 C.3       3 GLC5        0.0000 
      8 CA         42.3440   10.8700   35.9670 C.3       6 GLP5        0.0000 
      9 CA         42.0725    7.1665   36.6625 C.3       3 GLC5        0.0000 
     10 CA         43.8680    7.1150   37.6520 C.3       6 GLP5        0.0000 
     11 N          40.9420    6.9975   39.3550 N.am      2 SEC2        0.0000 
     12 N          40.5150    7.2740   38.0100 N.am      8 SEL2        0.0000 
     13 N          41.3690    6.7210   40.7000 N.am      5 SEP2        0.0000 
     14 CA         42.0505    2.6225   38.7130 C.3       3 GLC5        0.0000 
     15 CA         41.3660    3.0270   36.7450 C.3       9 GLL5        0.0000 
     16 CA         42.7350    2.2180   40.6810 C.3       6 GLP5        0.0000 
     17 CA         40.3165   -0.1690   34.3610 C.3       3 GLC5        0.0000 
     18 CA         40.8590    1.8250   34.6300 C.3       9 GLL5        0.0000 
     19 CA         39.7740   -2.1630   34.0920 C.3       6 GLP5        0.0000 
     20 CA         39.5725    9.2965   32.8290 C.3       3 GLC5        0.0000 
     21 CA         37.8620    8.7280   34.0090 C.3       9 GLL5        0.0000 
     22 CA         41.2830    9.8650   31.6490 C.3       6 GLP5        0.0000 
     23 N          34.8905   12.0985   31.8230 N.am      2 SEC2        0.0000 
     24 N          35.3930   10.9730   32.6310 N.am      8 SEL2        0.0000 
     25 N          34.3880   13.2240   31.0150 N.am      5 SEP2        0.0000 
     26 CA         38.4593    4.5400   36.6465 C.3       3 GLC5        0.0000 
     27 CA         39.8940    4.0990   35.0500 C.3       9 GLL5        0.0000 
     28 CA         36.6910    4.9600   37.6010 C.3       6 GLP5        0.0000 
     29 CA         40.6138    1.2663   37.9415 C.3       3 GLC5        0.0000 
     30 CA         39.7840    0.0840   39.5570 C.3       6 GLP5        0.0000 
     31 CA         39.4113    1.9763   36.2720 C.3       3 GLC5        0.0000 
     32 CA         37.3790    1.5040   36.2180 C.3       6 GLP5        0.0000 
     33 CA         38.9168    1.9432   35.3188 C.3       3 GLC5        0.0000 
     34 CA         38.5169    3.0690   35.6762 C.3       3 GLC5        0.0000 
     35 CA         39.0820    5.1480   34.5770 C.3       9 GLL5        0.0000 
     36 CA         36.0410    7.1917   34.9357 C.3       3 GLC5        0.0000 
     37 CA         37.2980    6.3180   33.4860 C.3       9 GLL5        0.0000 
     38 CA         34.3340    7.5440   36.0670 C.3       6 GLP5        0.0000 
     39 CA         35.1505    7.4915   34.4015 C.3       3 GLC5        0.0000 
     40 CA         36.1190    6.7440   32.7810 C.3       9 GLL5        0.0000 
     41 CA         34.2960    9.1888   32.9718 C.3       3 GLC5        0.0000 
     42 CA         35.8150    8.1340   32.6910 C.3       9 GLL5        0.0000 
     43 CA         32.3420    9.7430   32.9460 C.3       6 GLP5        0.0000 
     44 CA         35.8038    8.2377   34.8618 C.3       3 GLC5        0.0000 
     45 CA         36.6850    9.1350   33.3040 C.3       9 GLL5        0.0000 
     46 CA         37.5757    5.6560   35.9156 C.3       3 GLC5        0.0000 
@<TRIPOS>BOND
@<TRIPOS>SUBSTRUCTURE
     1 ALC1        1 GROUP        1 X    ALC  0     ROOT ALC X 1
     2 SEC2       11 GROUP        1 X    SEC  0     **** SEC X 2
     3 GLC5        4 GROUP        1 X    GLC  0     **** GLC X 6
     4 ALP1        3 GROUP        1 Y    ALP  0     ROOT ALP Y 8
     5 SEP2       13 GROUP        1 Y    SEP  0     **** SEP Y 9
     6 GLP5        6 GROUP        1 Y    GLP  0     **** GLP Y 13
     7 ALL1        2 GROUP        1 Z    ALL  0     ROOT ALL Z 15
     8 SEL2       12 GROUP        1 Z    SEL  0     **** SEL Z 16
     9 GLL5        5 GROUP        1 Z    GLL  0     **** GLL Z 20
@<TRIPOS>SET

