#    Name: 1q3w_ATU_1_ligand
#    Modification time : Mon Mar 24 23:02:19 2014

@<TRIPOS>MOLECULE
1q3w_ATU_1_ligand
   33    36     1     0     0
SMALL
NO_CHARGES


@<TRIPOS>ATOM
      1 N1         40.6340    5.2080   37.1280 N.am      1 ATU502      0.0000 
      2 C2         40.4870    6.5560   37.0210 C.2       1 ATU502      0.0000 
      3 C3         40.2770    7.2180   35.6730 C.3       1 ATU502      0.0000 
      4 O4         40.5150    7.2740   38.0100 O.2       1 ATU502      0.0000 
      5 C5         39.8940    4.0990   35.0500 C.ar      1 ATU502      0.0000 
      6 C6         40.5610    4.1410   36.3340 C.ar      1 ATU502      0.0000 
      7 C7         41.3660    3.0270   36.7450 C.ar      1 ATU502      0.0000 
      8 C8         41.5210    1.8700   35.9070 C.ar      1 ATU502      0.0000 
      9 C9         40.8590    1.8250   34.6300 C.ar      1 ATU502      0.0000 
     10 C10        40.0500    2.9400   34.2090 C.ar      1 ATU502      0.0000 
     11 N11        37.9300    5.1000   33.7980 N.pl3     1 ATU502      0.0000 
     12 C12        39.2640    6.5810   34.7350 C.2       1 ATU502      0.0000 
     13 C13        39.0820    5.1480   34.5770 C.2       1 ATU502      0.0000 
     14 C14        38.1980    7.3610   34.1230 C.ar      1 ATU502      0.0000 
     15 C15        37.2980    6.3180   33.4860 C.ar      1 ATU502      0.0000 
     16 C16        36.1190    6.7440   32.7810 C.ar      1 ATU502      0.0000 
     17 C17        35.8150    8.1340   32.6910 C.ar      1 ATU502      0.0000 
     18 C18        36.6850    9.1350   33.3040 C.ar      1 ATU502      0.0000 
     19 C19        37.8620    8.7280   34.0090 C.ar      1 ATU502      0.0000 
     20 N20        36.3660   10.5820   33.2070 N.pl3     1 ATU502      0.0000 
     21 O21        35.3930   10.9730   32.6310 O.2       1 ATU502      0.0000 
     22 O22        37.0720   11.4110   33.7010 O.2       1 ATU502      0.0000 
     23 H          40.8982    4.9105   38.2271 H         1 ATU502      0.0000 
     24 H          41.2623    7.2747   35.1452 H         1 ATU502      0.0000 
     25 H          39.9832    8.2849   35.8405 H         1 ATU502      0.0000 
     26 H          41.8387    3.0558   37.6509 H         1 ATU502      0.0000 
     27 H          42.0899    1.0939   36.2110 H         1 ATU502      0.0000 
     28 H          40.9604    1.0181   34.0331 H         1 ATU502      0.0000 
     29 H          39.5824    2.9085   33.3054 H         1 ATU502      0.0000 
     30 H          37.5542    4.2242   33.4641 H         1 ATU502      0.0000 
     31 H          35.5121    6.0566   32.3531 H         1 ATU502      0.0000 
     32 H          34.9834    8.4490   32.1958 H         1 ATU502      0.0000 
     33 H          38.4611    9.4412   34.4321 H         1 ATU502      0.0000 
@<TRIPOS>BOND
     1    2    1 am   
     2    6    1 1    
     3   23    1 1    
     4    3    2 1    
     5    4    2 2    
     6   12    3 1    
     7   24    3 1    
     8   25    3 1    
     9    6    5 ar   
    10   10    5 ar   
    11   13    5 1    
    12    7    6 ar   
    13    8    7 ar   
    14   26    7 1    
    15    9    8 ar   
    16   27    8 1    
    17   10    9 ar   
    18   28    9 1    
    19   29   10 1    
    20   13   11 1    
    21   15   11 1    
    22   30   11 1    
    23   13   12 2    
    24   14   12 1    
    25   15   14 ar   
    26   19   14 ar   
    27   16   15 ar   
    28   17   16 ar   
    29   31   16 1    
    30   18   17 ar   
    31   32   17 1    
    32   19   18 ar   
    33   20   18 1    
    34   33   19 1    
    35   21   20 2    
    36   22   20 2    
@<TRIPOS>SUBSTRUCTURE
     1 ATU502      1 GROUP   
@<TRIPOS>SET

