#    Name: 4dm8_REA_1_INTS_M
#    Modification time : Tue Mar 25 09:55:25 2014

@<TRIPOS>MOLECULE
4dm8_REA_1_INTS_M
   94     0     9     0     0
SMALL
NO_CHARGES


@<TRIPOS>ATOM
      1 CA          7.2350   18.0985   24.3210 C.3       3 GLC5        0.0000 
      2 CA          7.9160   16.8210   22.8650 C.3       9 GLL5        0.0000 
      3 CA          6.5540   19.3760   25.7770 C.3       6 GLP5        0.0000 
      4 CA          8.6085   18.1910   20.0315 C.3       3 GLC5        0.0000 
      5 CA          7.8730   16.7130   21.3470 C.3       9 GLL5        0.0000 
      6 CA          9.3440   19.6690   18.7160 C.3       6 GLP5        0.0000 
      7 CA         10.0030   17.1775   20.9620 C.3       3 GLC5        0.0000 
      8 CA         12.1330   17.6420   20.5770 C.3       6 GLP5        0.0000 
      9 CA          6.9480   14.5055   19.3935 C.3       3 GLC5        0.0000 
     10 CA          7.9210   15.2970   20.8360 C.3       9 GLL5        0.0000 
     11 CA          5.9750   13.7140   17.9510 C.3       6 GLP5        0.0000 
     12 CA         15.2315   12.0125   24.7800 C.3       3 GLC5        0.0000 
     13 CA         13.9370   12.2220   23.2310 C.3       9 GLL5        0.0000 
     14 CA         16.5260   11.8030   26.3290 C.3       6 GLP5        0.0000 
     15 CA         14.2975   14.3665   21.4195 C.3       3 GLC5        0.0000 
     16 CA         14.4380   12.3200   21.8660 C.3       9 GLL5        0.0000 
     17 CA         14.1570   16.4130   20.9730 C.3       6 GLP5        0.0000 
     18 CA         16.6050   11.7610   23.4450 C.3       3 GLC5        0.0000 
     19 CA         15.6380   11.7250   21.6580 C.3       9 GLL5        0.0000 
     20 CA         17.5720   11.7970   25.2320 C.3       6 GLP5        0.0000 
     21 CA         16.6790   13.4800   21.2660 C.3       3 GLC5        0.0000 
     22 CA         17.7200   15.2350   20.8740 C.3       6 GLP5        0.0000 
     23 CA         16.7765    9.3475   19.8335 C.3       3 GLC5        0.0000 
     24 CA         17.5950   11.0200   20.4780 C.3       9 GLL5        0.0000 
     25 CA         15.9580    7.6750   19.1890 C.3       6 GLP5        0.0000 
     26 CA          8.4785   13.4225   24.9855 C.3       3 GLC5        0.0000 
     27 CA          8.4740   15.5740   24.9700 C.3       9 GLL5        0.0000 
     28 CA          8.4830   11.2710   25.0010 C.3       6 GLP5        0.0000 
     29 CA          8.4010   16.3680   26.6645 C.3       3 GLC5        0.0000 
     30 CA          8.3280   17.1620   28.3590 C.3       6 GLP5        0.0000 
     31 CA          6.9925   15.0890   26.3405 C.3       3 GLC5        0.0000 
     32 CA          5.5110   14.6040   27.7110 C.3       6 GLP5        0.0000 
     33 CA          7.5140   17.4750   25.3735 C.3       3 GLC5        0.0000 
     34 CA         11.5355   16.8430   22.5720 C.3       3 GLC5        0.0000 
     35 CA         10.2500   17.0370   23.8830 C.3       9 GLL5        0.0000 
     36 CA         12.8210   16.6490   21.2610 C.3       6 GLP5        0.0000 
     37 CA         10.8695   18.6525   24.9835 C.3       3 GLC5        0.0000 
     38 CA         11.4890   20.2680   26.0840 C.3       6 GLP5        0.0000 
     39 CA         10.7375   13.4760   19.0425 C.3       3 GLC5        0.0000 
     40 CA          9.4040   13.2980   20.5280 C.3       9 GLL5        0.0000 
     41 CA         12.0710   13.6540   17.5570 C.3       6 GLP5        0.0000 
     42 CA          9.8390   11.3385   21.0830 C.3       3 GLC5        0.0000 
     43 CA         10.2740    9.3790   21.6380 C.3       6 GLP5        0.0000 
     44 CA          7.6895   13.5060   19.2395 C.3       3 GLC5        0.0000 
     45 CA         10.4810   11.8745   25.1305 C.3       3 GLC5        0.0000 
     46 CA         12.4790   12.4780   25.2600 C.3       9 GLL5        0.0000 
     47 CA         12.2715   10.7665   24.3220 C.3       3 GLC5        0.0000 
     48 CA         12.0640    9.0550   23.3840 C.3       6 GLP5        0.0000 
     49 CA         11.9760   11.5070   26.6970 C.3       3 GLC5        0.0000 
     50 CA         11.4730   10.5360   28.1340 C.3       6 GLP5        0.0000 
     51 CA         14.5025   12.1405   25.7945 C.3       3 GLC5        0.0000 
     52 CA         13.2050   14.3560   25.6360 C.3       3 GLC5        0.0000 
     53 CA         13.9310   16.2340   26.0120 C.3       6 GLP5        0.0000 
     54 CA         16.5060   13.3750   17.5520 C.3       3 GLC5        0.0000 
     55 CA         15.8530   12.3580   19.1520 C.3       9 GLL5        0.0000 
     56 CA         17.1590   14.3920   15.9520 C.3       6 GLP5        0.0000 
     57 CA         14.4720   12.5240   18.0525 C.3       3 GLC5        0.0000 
     58 CA         13.0910   12.6900   16.9530 C.3       6 GLP5        0.0000 
     59 CA         17.2180   13.4610   19.5770 C.3       3 GLC5        0.0000 
     60 CA         18.5830   14.5640   20.0020 C.3       6 GLP5        0.0000 
     61 NZ         20.9595    9.9660   20.3890 N.4       2 LYC4        0.0000 
     62 NZ         19.6520   10.1060   19.8760 N.4       8 LYL4        0.0000 
     63 NZ         22.9230    8.6730   20.9490 N.4       5 LYP4        0.0000 
     64 N          20.9595    9.9660   20.3890 N.am      1 SEC2        0.0000 
     65 N          19.6520   10.1060   19.8760 N.am      7 SEL2        0.0000 
     66 N          22.2670    9.8260   20.9020 N.am      4 SEP2        0.0000 
     67 N          20.6935   10.7040   19.0380 N.am      1 SEC2        0.0000 
     68 N          21.7350   11.3020   18.2000 N.am      4 SEP2        0.0000 
     69 N          20.1445    9.3880   18.8935 N.am      1 SEC2        0.0000 
     70 N          20.6370    8.6700   17.9110 N.am      4 SEP2        0.0000 
     71 N          20.1810   11.2355   18.2595 N.am      1 SEC2        0.0000 
     72 N          18.6270   11.1690   18.3190 N.am      7 SEL2        0.0000 
     73 CA          7.5448   18.4605   21.8555 C.3       3 GLC5        0.0000 
     74 CA          7.1950   20.1540   21.6050 C.3       6 GLP5        0.0000 
     75 CA          5.8359   15.6920   21.8570 C.3       3 GLC5        0.0000 
     76 CA          3.7640   15.3520   22.2430 C.3       6 GLP5        0.0000 
     77 CA         11.0017   15.7874   21.7950 C.3       3 GLC5        0.0000 
     78 CA          9.0400   14.4520   21.4780 C.3       9 GLL5        0.0000 
     79 CA         12.0397   15.1845   22.2263 C.3       3 GLC5        0.0000 
     80 CA         10.6740   13.9810   23.4220 C.3       9 GLL5        0.0000 
     81 CA          9.7346   12.5931   24.0114 C.3       3 GLC5        0.0000 
     82 CA         11.8430   13.4590   22.9610 C.3       9 GLL5        0.0000 
     83 CA         12.5951   10.8545   23.3410 C.3       3 GLC5        0.0000 
     84 CA         13.8281   14.5200   24.0335 C.3       3 GLC5        0.0000 
     85 CA         12.7880   12.7130   23.7690 C.3       9 GLL5        0.0000 
     86 CA         14.5300   16.3860   24.7690 C.3       6 GLP5        0.0000 
     87 CA         13.8730   10.5753   21.3820 C.3       3 GLC5        0.0000 
     88 CA         12.7080    9.1280   21.0020 C.3       6 GLP5        0.0000 
     89 CA         15.7210   10.3577   18.8093 C.3       3 GLC5        0.0000 
     90 CA         16.4010   11.6770   20.4170 C.3       9 GLL5        0.0000 
     91 CA         15.3150    8.6980   17.8340 C.3       6 GLP5        0.0000 
     92 CA         17.7905   12.9563   20.2248 C.3       3 GLC5        0.0000 
     93 CA          7.2001   13.1281   21.4447 C.3       3 GLC5        0.0000 
     94 CA          5.4580   12.1700   22.0470 C.3       6 GLP5        0.0000 
@<TRIPOS>BOND
@<TRIPOS>SUBSTRUCTURE
     1 SEC2       64 GROUP        1 X    SEC  0     ROOT SEC X 2
     2 LYC4       61 GROUP        1 X    LYC  0     **** LYC X 4
     3 GLC5        1 GROUP        1 X    GLC  0     **** GLC X 6
     4 SEP2       66 GROUP        1 Y    SEP  0     ROOT SEP Y 9
     5 LYP4       63 GROUP        1 Y    LYP  0     **** LYP Y 11
     6 GLP5        3 GROUP        1 Y    GLP  0     **** GLP Y 13
     7 SEL2       65 GROUP        1 Z    SEL  0     ROOT SEL Z 16
     8 LYL4       62 GROUP        1 Z    LYL  0     **** LYL Z 18
     9 GLL5        2 GROUP        1 Z    GLL  0     **** GLL Z 20
@<TRIPOS>SET

