#    Name: 4dm8_REA_1_ligand
#    Modification time : Tue Mar 25 09:55:25 2014

@<TRIPOS>MOLECULE
4dm8_REA_1_ligand
   49    49     1     0     0
SMALL
NO_CHARGES


@<TRIPOS>ATOM
      1 C1          9.0650   16.0370   23.6170 C.3       1 REA501      0.0000 
      2 C2          7.9160   16.8210   22.8650 C.3       1 REA501      0.0000 
      3 C3          7.8730   16.7130   21.3470 C.3       1 REA501      0.0000 
      4 C4          7.9210   15.2970   20.8360 C.3       1 REA501      0.0000 
      5 C5          9.0400   14.4520   21.4780 C.2       1 REA501      0.0000 
      6 C6          9.5850   14.7620   22.7430 C.2       1 REA501      0.0000 
      7 C7         10.6740   13.9810   23.4220 C.2       1 REA501      0.0000 
      8 C8         11.8430   13.4590   22.9610 C.2       1 REA501      0.0000 
      9 C9         12.7880   12.7130   23.7690 C.2       1 REA501      0.0000 
     10 C10        13.9370   12.2220   23.2310 C.2       1 REA501      0.0000 
     11 C11        14.4380   12.3200   21.8660 C.2       1 REA501      0.0000 
     12 C12        15.6380   11.7250   21.6580 C.2       1 REA501      0.0000 
     13 C13        16.4010   11.6770   20.4170 C.2       1 REA501      0.0000 
     14 C14        17.5950   11.0200   20.4780 C.2       1 REA501      0.0000 
     15 C15        18.6770   10.7550   19.4940 C.2       1 REA501      0.0000 
     16 C16         8.4740   15.5740   24.9700 C.3       1 REA501      0.0000 
     17 C17        10.2500   17.0370   23.8830 C.3       1 REA501      0.0000 
     18 C18         9.4040   13.2980   20.5280 C.3       1 REA501      0.0000 
     19 C19        12.4790   12.4780   25.2600 C.3       1 REA501      0.0000 
     20 C20        15.8530   12.3580   19.1520 C.3       1 REA501      0.0000 
     21 O1         19.6520   10.1060   19.8760 O.co2     1 REA501      0.0000 
     22 O2         18.6270   11.1690   18.3190 O.co2     1 REA501      0.0000 
     23 H           8.0015   17.8912   23.1584 H         1 REA501      0.0000 
     24 H           6.9479   16.4724   23.2892 H         1 REA501      0.0000 
     25 H           8.7213   17.2826   20.9271 H         1 REA501      0.0000 
     26 H           6.9520   17.2025   20.9829 H         1 REA501      0.0000 
     27 H           8.0728   15.3004   19.7458 H         1 REA501      0.0000 
     28 H           6.9583   14.7995   21.0291 H         1 REA501      0.0000 
     29 H          10.4397   13.8260   24.4908 H         1 REA501      0.0000 
     30 H          12.1135   13.5872   21.9469 H         1 REA501      0.0000 
     31 H          14.6058   11.6671   23.8925 H         1 REA501      0.0000 
     32 H          13.9062   12.7940   21.1823 H         1 REA501      0.0000 
     33 H          16.1141   11.2189   22.4820 H         1 REA501      0.0000 
     34 H          17.8503   10.5679   21.4714 H         1 REA501      0.0000 
     35 H           9.1437   15.0690   25.5144 H         1 REA501      0.0000 
     36 H           8.1677   16.3471   25.5255 H         1 REA501      0.0000 
     37 H           7.6850   14.9726   24.8443 H         1 REA501      0.0000 
     38 H          11.0081   16.5953   24.3627 H         1 REA501      0.0000 
     39 H          10.6193   17.4100   23.0319 H         1 REA501      0.0000 
     40 H           9.9618   17.8139   24.4428 H         1 REA501      0.0000 
     41 H           9.7238   13.6333   19.6418 H         1 REA501      0.0000 
     42 H          10.1309   12.7230   20.9035 H         1 REA501      0.0000 
     43 H           8.6209   12.7019   20.3506 H         1 REA501      0.0000 
     44 H          13.2024   11.9556   25.7114 H         1 REA501      0.0000 
     45 H          12.3838   13.3389   25.7597 H         1 REA501      0.0000 
     46 H          11.6273   11.9696   25.3871 H         1 REA501      0.0000 
     47 H          15.7206   13.3400   19.2866 H         1 REA501      0.0000 
     48 H          16.4719   12.2496   18.3741 H         1 REA501      0.0000 
     49 H          14.9694   11.9779   18.8787 H         1 REA501      0.0000 
@<TRIPOS>BOND
     1    2    1 1    
     2    6    1 1    
     3   16    1 1    
     4   17    1 1    
     5    3    2 1    
     6   23    2 1    
     7   24    2 1    
     8    4    3 1    
     9   25    3 1    
    10   26    3 1    
    11    5    4 1    
    12   27    4 1    
    13   28    4 1    
    14    6    5 2    
    15   18    5 1    
    16    7    6 1    
    17    8    7 2    
    18   29    7 1    
    19    9    8 1    
    20   30    8 1    
    21   10    9 2    
    22   19    9 1    
    23   11   10 1    
    24   31   10 1    
    25   12   11 2    
    26   32   11 1    
    27   13   12 1    
    28   33   12 1    
    29   14   13 2    
    30   20   13 1    
    31   15   14 1    
    32   34   14 1    
    33   21   15 ar   
    34   22   15 ar   
    35   35   16 1    
    36   36   16 1    
    37   37   16 1    
    38   38   17 1    
    39   39   17 1    
    40   40   17 1    
    41   41   18 1    
    42   42   18 1    
    43   43   18 1    
    44   44   19 1    
    45   45   19 1    
    46   46   19 1    
    47   47   20 1    
    48   48   20 1    
    49   49   20 1    
@<TRIPOS>SUBSTRUCTURE
     1 REA501      1 GROUP   
@<TRIPOS>SET

