#    Name: 3bbf_GDP_2_INTS_M
#    Modification time : Mon Mar 24 19:14:10 2014

@<TRIPOS>MOLECULE
3bbf_GDP_2_INTS_M
   47     0    15     0     0
SMALL
NO_CHARGES


@<TRIPOS>ATOM
      1 NZ         51.6410   45.2030   40.0625 N.4       3 LYC4        0.0000 
      2 NZ         52.8000   45.9250   40.3790 N.4      13 LYL4        0.0000 
      3 NZ         49.5480   45.0190   38.9990 N.4       8 LYP4        0.0000 
      4 N          51.6410   45.2030   40.0625 N.am      2 SEC2        0.0000 
      5 N          52.8000   45.9250   40.3790 N.am     12 SEL2        0.0000 
      6 N          50.4820   44.4810   39.7460 N.am      7 SEP2        0.0000 
      7 NZ         50.2935   46.2620   40.1690 N.4       3 LYC4        0.0000 
      8 NZ         51.0390   47.5050   41.3390 N.4      13 LYL4        0.0000 
      9 N          50.6740   48.7915   41.1770 N.am      2 SEC2        0.0000 
     10 N          51.0390   47.5050   41.3390 N.am     12 SEL2        0.0000 
     11 N          50.3090   50.0780   41.0150 N.am      7 SEP2        0.0000 
     12 Zn         55.6535   46.5035   39.1745 Zn        4 ZIC7        0.0000 
     13 Zn         55.4730   47.2510   39.8940 Zn       14 ZIL7        0.0000 
     14 Zn         55.8340   45.7560   38.4550 Zn        9 ZIP7        0.0000 
     15 CA         57.8835   48.2575   44.6500 C.3       5 GLC5        0.0000 
     16 CA         55.8480   48.1820   44.1840 C.3      15 GLL5        0.0000 
     17 CA         59.9190   48.3330   45.1160 C.3      10 GLP5        0.0000 
     18 N          52.5155   48.3045   45.7110 N.am      2 SEC2        0.0000 
     19 N          53.5390   47.7060   44.7530 N.am     12 SEL2        0.0000 
     20 N          51.4920   48.9030   46.6690 N.am      7 SEP2        0.0000 
     21 CA         53.8385   51.3530   45.8185 C.3       5 GLC5        0.0000 
     22 CA         54.8750   49.5030   45.8040 C.3      15 GLL5        0.0000 
     23 CA         52.8020   53.2030   45.8330 C.3      10 GLP5        0.0000 
     24 N          54.6035   47.2735   46.9945 N.am      2 SEC2        0.0000 
     25 N          55.0670   48.5980   46.9270 N.am     12 SEL2        0.0000 
     26 N          54.1400   45.9490   47.0620 N.am      7 SEP2        0.0000 
     27 CA         57.7265   51.0130   44.4140 C.3       5 GLC5        0.0000 
     28 CA         56.2350   50.0850   45.4060 C.3      15 GLL5        0.0000 
     29 CA         59.2180   51.9410   43.4220 C.3      10 GLP5        0.0000 
     30 CA         57.5370   48.9845   46.4225 C.3       5 GLC5        0.0000 
     31 CA         58.8390   47.8840   47.4390 C.3      10 GLP5        0.0000 
     32 CA         58.3355   54.1590   45.2890 C.3       5 GLC5        0.0000 
     33 CA         56.2030   53.6730   44.7920 C.3      15 GLL5        0.0000 
     34 CA         60.4680   54.6450   45.7860 C.3      10 GLP5        0.0000 
     35 O          57.9140   54.4035   49.8590 O.2       1 ALC1        0.0000 
     36 O          57.8670   53.9120   48.5760 O.2      11 ALL1        0.0000 
     37 O          57.9610   54.8950   51.1420 O.2       6 ALP1        0.0000 
     38 CA         56.8582   46.3657   43.4530 C.3       5 GLC5        0.0000 
     39 CA         57.8020   44.7690   43.4360 C.3      10 GLP5        0.0000 
     40 CA         57.4558   48.2063   42.3085 C.3       5 GLC5        0.0000 
     41 CA         55.9810   47.7430   42.7560 C.3      15 GLL5        0.0000 
     42 CA         58.9970   48.4500   41.1470 C.3      10 GLP5        0.0000 
     43 CA         53.2028   49.9258   44.0383 C.3       5 GLC5        0.0000 
     44 CA         54.4940   48.7500   44.5590 C.3      15 GLL5        0.0000 
     45 CA         51.7210   50.7250   42.8950 C.3      10 GLP5        0.0000 
     46 CA         54.5735   53.1450   45.5125 C.3       5 GLC5        0.0000 
     47 CA         56.4870   52.5010   45.5920 C.3      15 GLL5        0.0000 
@<TRIPOS>BOND
@<TRIPOS>SUBSTRUCTURE
     1 ALC1       35 GROUP        1 X    ALC  0     ROOT ALC X 1
     2 SEC2        4 GROUP        1 X    SEC  0     **** SEC X 2
     3 LYC4        1 GROUP        1 X    LYC  0     **** LYC X 4
     4 ZIC7       12 GROUP        1 X    ZIC  0     **** ZIC X 5
     5 GLC5       15 GROUP        1 X    GLC  0     **** GLC X 6
     6 ALP1       37 GROUP        1 Y    ALP  0     ROOT ALP Y 8
     7 SEP2        6 GROUP        1 Y    SEP  0     **** SEP Y 9
     8 LYP4        3 GROUP        1 Y    LYP  0     **** LYP Y 11
     9 ZIP7       14 GROUP        1 Y    ZIP  0     **** ZIP Y 12
    10 GLP5       17 GROUP        1 Y    GLP  0     **** GLP Y 13
    11 ALL1       36 GROUP        1 Z    ALL  0     ROOT ALL Z 15
    12 SEL2        5 GROUP        1 Z    SEL  0     **** SEL Z 16
    13 LYL4        2 GROUP        1 Z    LYL  0     **** LYL Z 18
    14 ZIL7       13 GROUP        1 Z    ZIL  0     **** ZIL Z 19
    15 GLL5       16 GROUP        1 Z    GLL  0     **** GLL Z 20
@<TRIPOS>SET

