#    Name: 3bbf_GDP_2_ligand
#    Modification time : Mon Mar 24 19:14:10 2014

@<TRIPOS>MOLECULE
3bbf_GDP_2_ligand
   40    42     1     0     0
SMALL
NO_CHARGES


@<TRIPOS>ATOM
      1 PB         52.4450   46.9600   41.4130 P.3       1 GDP160      0.0000 
      2 O1B        52.8000   45.9250   40.3790 O.co2     1 GDP160      0.0000 
      3 O2B        51.0390   47.5050   41.3390 O.co2     1 GDP160      0.0000 
      4 O3B        52.7650   46.4790   42.7890 O.co2     1 GDP160      0.0000 
      5 O3A        53.3510   48.3000   41.1140 O.3       1 GDP160      0.0000 
      6 PA         54.8700   48.4700   40.5680 P.3       1 GDP160      0.0000 
      7 O1A        55.4730   47.2510   39.8940 O.co2     1 GDP160      0.0000 
      8 O2A        54.8830   49.6930   39.6750 O.co2     1 GDP160      0.0000 
      9 O5'        55.6360   48.8220   41.9110 O.3       1 GDP160      0.0000 
     10 C5'        55.9810   47.7430   42.7560 C.3       1 GDP160      0.0000 
     11 C4'        55.8480   48.1820   44.1840 C.3       1 GDP160      0.0000 
     12 O4'        56.7750   49.2350   44.4300 O.3       1 GDP160      0.0000 
     13 C3'        54.4940   48.7500   44.5590 C.3       1 GDP160      0.0000 
     14 O3'        53.5390   47.7060   44.7530 O.3       1 GDP160      0.0000 
     15 C2'        54.8750   49.5030   45.8040 C.3       1 GDP160      0.0000 
     16 O2'        55.0670   48.5980   46.9270 O.3       1 GDP160      0.0000 
     17 C1'        56.2350   50.0850   45.4060 C.3       1 GDP160      0.0000 
     18 N9         56.1070   51.4600   44.8630 N.pl3     1 GDP160      0.0000 
     19 C8         55.6170   51.8890   43.6790 C.2       1 GDP160      0.0000 
     20 N7         55.7060   53.2480   43.6070 N.2       1 GDP160      0.0000 
     21 C5         56.2030   53.6730   44.7920 C.2       1 GDP160      0.0000 
     22 C6         56.5770   54.9680   45.4120 C.2       1 GDP160      0.0000 
     23 O6         56.3690   55.9800   44.7390 O.2       1 GDP160      0.0000 
     24 N1         57.1070   55.0030   46.6460 N.am      1 GDP160      0.0000 
     25 C2         57.3250   53.8710   47.3330 C.2       1 GDP160      0.0000 
     26 N2         57.8670   53.9120   48.5760 N.pl3     1 GDP160      0.0000 
     27 N3         57.0520   52.6310   46.8260 N.2       1 GDP160      0.0000 
     28 C4         56.4870   52.5010   45.5920 C.2       1 GDP160      0.0000 
     29 H          57.0144   47.4119   42.5926 H         1 GDP160      0.0000 
     30 H          55.3250   46.8773   42.5996 H         1 GDP160      0.0000 
     31 H          56.0622   47.3517   44.8436 H         1 GDP160      0.0000 
     32 H          54.2312   49.4544   43.8064 H         1 GDP160      0.0000 
     33 H          54.2139   50.2773   45.9802 H         1 GDP160      0.0000 
     34 H          56.8525   50.0995   46.2924 H         1 GDP160      0.0000 
     35 H          55.2543   51.3206   42.9796 H         1 GDP160      0.0000 
     36 H          57.3535   55.9277   47.0776 H         1 GDP160      0.0000 
     37 H          58.7417   53.4410   48.6904 H         1 GDP160      0.0000 
     38 H          57.3439   54.4096   49.2679 H         1 GDP160      0.0000 
     39 H          53.0069   47.6816   43.9066 H         1 GDP160      0.0000 
     40 H          56.0526   48.4322   46.9600 H         1 GDP160      0.0000 
@<TRIPOS>BOND
     1    2    1 ar   
     2    3    1 ar   
     3    4    1 ar   
     4    5    1 1    
     5    6    5 1    
     6    7    6 ar   
     7    8    6 ar   
     8    9    6 1    
     9   10    9 1    
    10   11   10 1    
    11   29   10 1    
    12   30   10 1    
    13   12   11 1    
    14   13   11 1    
    15   31   11 1    
    16   17   12 1    
    17   14   13 1    
    18   15   13 1    
    19   32   13 1    
    20   39   14 1    
    21   16   15 1    
    22   17   15 1    
    23   33   15 1    
    24   40   16 1    
    25   18   17 1    
    26   34   17 1    
    27   19   18 1    
    28   28   18 1    
    29   20   19 2    
    30   35   19 1    
    31   21   20 1    
    32   22   21 1    
    33   28   21 2    
    34   23   22 2    
    35   24   22 am   
    36   25   24 1    
    37   36   24 1    
    38   26   25 1    
    39   27   25 2    
    40   37   26 1    
    41   38   26 1    
    42   28   27 1    
@<TRIPOS>SUBSTRUCTURE
     1 GDP160      1 GROUP   
@<TRIPOS>SET

