#    Name: 3owb_BSM_1_INTS_M
#    Modification time : Tue Mar 25 05:26:30 2014

@<TRIPOS>MOLECULE
3owb_BSM_1_INTS_M
   56     0     6     0     0
SMALL
NO_CHARGES


@<TRIPOS>ATOM
      1 CA          0.4475    9.6165   21.9085 C.3       2 GLC5        0.0000 
      2 CA          1.1500    8.5410   23.6610 C.3       6 GLL5        0.0000 
      3 CA         -0.2550   10.6920   20.1560 C.3       4 GLP5        0.0000 
      4 O           1.9140    8.1560   19.4620 O.2       1 ALC1        0.0000 
      5 O           1.1500    7.2530   20.2360 O.2       5 ALL1        0.0000 
      6 O           2.6780    9.0590   18.6880 O.2       3 ALP1        0.0000 
      7 CA          1.6460    4.6375   20.5115 C.3       2 GLC5        0.0000 
      8 CA          0.8800    6.1460   19.3390 C.3       6 GLL5        0.0000 
      9 CA          2.4120    3.1290   21.6840 C.3       4 GLP5        0.0000 
     10 CA          2.5665    6.1660   19.6255 C.3       2 GLC5        0.0000 
     11 CA          4.2530    6.1860   19.9120 C.3       4 GLP5        0.0000 
     12 O           3.3595   11.3150   22.4810 O.2       1 ALC1        0.0000 
     13 O           2.6150   10.0560   22.7730 O.2       5 ALL1        0.0000 
     14 O           4.1040   12.5740   22.1890 O.2       3 ALP1        0.0000 
     15 CA         -0.2540   13.1660   29.4215 C.3       2 GLC5        0.0000 
     16 CA         -0.7600   12.4830   27.3490 C.3       6 GLL5        0.0000 
     17 CA          0.2520   13.8490   31.4940 C.3       4 GLP5        0.0000 
     18 CA          0.3220   10.8095   28.3015 C.3       2 GLC5        0.0000 
     19 CA          1.4040    9.1360   29.2540 C.3       4 GLP5        0.0000 
     20 CA         -1.6885   13.5505   28.0925 C.3       2 GLC5        0.0000 
     21 CA         -2.6170   14.6180   28.8360 C.3       4 GLP5        0.0000 
     22 CA          3.8285   12.1635   24.4440 C.3       2 GLC5        0.0000 
     23 CA          3.1370   10.8700   25.6490 C.3       6 GLL5        0.0000 
     24 CA          4.5200   13.4570   23.2390 C.3       4 GLP5        0.0000 
     25 O           5.3935   10.9975   25.6070 O.2       1 ALC1        0.0000 
     26 O           4.3550   10.4290   25.1420 O.2       5 ALL1        0.0000 
     27 O           6.4320   11.5660   26.0720 O.2       3 ALP1        0.0000 
     28 CA         -3.7348    7.8152   25.9067 C.3       2 GLC5        0.0000 
     29 CA         -1.7220    6.7420   26.2210 C.3       6 GLL5        0.0000 
     30 CA         -5.5720    8.6410   26.2100 C.3       4 GLP5        0.0000 
     31 CA         -3.0753    7.8780   23.1118 C.3       2 GLC5        0.0000 
     32 CA         -2.0730    7.2370   24.9860 C.3       6 GLL5        0.0000 
     33 CA         -4.5550    8.2510   21.6540 C.3       4 GLP5        0.0000 
     34 CA          0.7395    8.0968   27.7233 C.3       2 GLC5        0.0000 
     35 CA          0.5500    7.3460   25.7720 C.3       6 GLL5        0.0000 
     36 CA          1.4610    5.4697   26.8208 C.3       2 GLC5        0.0000 
     37 CA         -0.4000    6.7690   26.6130 C.3       6 GLL5        0.0000 
     38 CA          2.8470    3.8820   27.4490 C.3       4 GLP5        0.0000 
     39 CA          3.1707    8.2325   23.8520 C.3       2 GLC5        0.0000 
     40 CA          4.8160    7.3250   23.9440 C.3       4 GLP5        0.0000 
     41 CA          3.6765    9.0245   24.6400 C.3       2 GLC5        0.0000 
     42 CA          1.9370   10.5780   25.0230 C.3       6 GLL5        0.0000 
     43 CA          2.3175   12.5303   24.5225 C.3       2 GLC5        0.0000 
     44 CA          3.2960   14.2390   23.7690 C.3       4 GLP5        0.0000 
     45 CA          1.0703   10.2920   27.6777 C.3       2 GLC5        0.0000 
     46 CA          0.7410   11.0650   25.5290 C.3       6 GLL5        0.0000 
     47 CA          0.6350   11.5839   23.5790 C.3       2 GLC5        0.0000 
     48 CA         -0.0600   12.5560   22.1730 C.3       4 GLP5        0.0000 
     49 CA          2.9143   13.0300   25.4172 C.3       2 GLC5        0.0000 
     50 CA          1.9290   12.0540   27.3090 C.3       6 GLL5        0.0000 
     51 CA          2.4653   13.8770   27.3242 C.3       2 GLC5        0.0000 
     52 CA          3.1360   11.5880   26.8220 C.3       6 GLL5        0.0000 
     53 CA          2.3980   15.9330   27.5830 C.3       4 GLP5        0.0000 
     54 CA          4.4547   10.1170   27.2182 C.3       2 GLC5        0.0000 
     55 CA          5.7730    9.0050   28.2010 C.3       4 GLP5        0.0000 
     56 CA          2.1194   10.2407   27.8056 C.3       2 GLC5        0.0000 
@<TRIPOS>BOND
@<TRIPOS>SUBSTRUCTURE
     1 ALC1        4 GROUP        1 X    ALC  0     ROOT ALC X 1
     2 GLC5        1 GROUP        1 X    GLC  0     **** GLC X 6
     3 ALP1        6 GROUP        1 Y    ALP  0     ROOT ALP Y 8
     4 GLP5        3 GROUP        1 Y    GLP  0     **** GLP Y 13
     5 ALL1        5 GROUP        1 Z    ALL  0     ROOT ALL Z 15
     6 GLL5        2 GROUP        1 Z    GLL  0     **** GLL Z 20
@<TRIPOS>SET

