#    Name: 3owb_BSM_1_ligand
#    Modification time : Tue Mar 25 05:26:30 2014

@<TRIPOS>MOLECULE
3owb_BSM_1_ligand
   45    47     1     0     0
SMALL
NO_CHARGES


@<TRIPOS>ATOM
      1 C22        -2.3020    5.6650   28.2240 C.3       1 BSM1        0.0000 
      2 O21        -2.7530    6.2040   26.9840 O.3       1 BSM1        0.0000 
      3 C18        -1.7220    6.7420   26.2210 C.ar      1 BSM1        0.0000 
      4 C19        -2.0730    7.2370   24.9860 C.ar      1 BSM1        0.0000 
      5 C20        -1.1180    7.7730   24.1530 C.ar      1 BSM1        0.0000 
      6 C17        -0.4000    6.7690   26.6130 C.ar      1 BSM1        0.0000 
      7 C16         0.5500    7.3460   25.7720 C.ar      1 BSM1        0.0000 
      8 C7          0.2080    7.8470   24.5370 C.ar      1 BSM1        0.0000 
      9 C3          1.1500    8.5410   23.6610 C.2       1 BSM1        0.0000 
     10 C2          1.4450    8.1640   22.3670 C.2       1 BSM1        0.0000 
     11 C8          0.9770    7.0700   21.5930 C.2       1 BSM1        0.0000 
     12 O9          0.4040    6.1250   22.0980 O.2       1 BSM1        0.0000 
     13 N10         1.1500    7.2530   20.2360 N.am      1 BSM1        0.0000 
     14 C26         0.8800    6.1460   19.3390 C.3       1 BSM1        0.0000 
     15 C27        -0.2920    6.4240   18.4370 C.3       1 BSM1        0.0000 
     16 N1          2.3310    9.0790   21.8850 N.2       1 BSM1        0.0000 
     17 N5          2.6150   10.0560   22.7730 N.pl3     1 BSM1        0.0000 
     18 C4          1.9010    9.7390   23.8590 C.2       1 BSM1        0.0000 
     19 C6          1.9370   10.5780   25.0230 C.ar      1 BSM1        0.0000 
     20 C11         0.7410   11.0650   25.5290 C.ar      1 BSM1        0.0000 
     21 C12         0.7320   11.8310   26.6740 C.ar      1 BSM1        0.0000 
     22 CL25       -0.7600   12.4830   27.3490 Cl        1 BSM1        0.0000 
     23 C13         1.9290   12.0540   27.3090 C.ar      1 BSM1        0.0000 
     24 O24         1.9270   12.7630   28.4930 O.3       1 BSM1        0.0000 
     25 C14         3.1360   11.5880   26.8220 C.ar      1 BSM1        0.0000 
     26 C15         3.1370   10.8700   25.6490 C.ar      1 BSM1        0.0000 
     27 O23         4.3550   10.4290   25.1420 O.3       1 BSM1        0.0000 
     28 H          -3.0628    7.2059   24.6814 H         1 BSM1        0.0000 
     29 H          -1.3961    8.1301   23.2160 H         1 BSM1        0.0000 
     30 H          -0.1122    6.3705   27.5125 H         1 BSM1        0.0000 
     31 H           1.5390    7.3954   26.0927 H         1 BSM1        0.0000 
     32 H           1.4592    8.1333   19.8418 H         1 BSM1        0.0000 
     33 H           0.6694    5.2242   19.9111 H         1 BSM1        0.0000 
     34 H           1.7624    5.9317   18.7091 H         1 BSM1        0.0000 
     35 H           3.1894   10.7935   22.6478 H         1 BSM1        0.0000 
     36 H          -0.1444   10.8502   25.0423 H         1 BSM1        0.0000 
     37 H           4.0058   11.7745   27.3246 H         1 BSM1        0.0000 
     38 H          -1.6375    4.9298   28.0897 H         1 BSM1        0.0000 
     39 H          -1.8601    6.3593   28.7920 H         1 BSM1        0.0000 
     40 H          -3.0558    5.2845   28.7597 H         1 BSM1        0.0000 
     41 H          -0.1399    7.2329   17.8691 H         1 BSM1        0.0000 
     42 H          -0.4729    5.6605   17.8171 H         1 BSM1        0.0000 
     43 H          -1.1310    6.5845   18.9570 H         1 BSM1        0.0000 
     44 H           1.5040   13.6408   28.2681 H         1 BSM1        0.0000 
     45 H           4.9680   11.2150   25.2214 H         1 BSM1        0.0000 
@<TRIPOS>BOND
     1    2    1 1    
     2   38    1 1    
     3   39    1 1    
     4   40    1 1    
     5    3    2 1    
     6    4    3 ar   
     7    6    3 ar   
     8    5    4 ar   
     9   28    4 1    
    10    8    5 ar   
    11   29    5 1    
    12    7    6 ar   
    13   30    6 1    
    14    8    7 ar   
    15   31    7 1    
    16    9    8 1    
    17   10    9 1    
    18   18    9 2    
    19   11   10 1    
    20   16   10 2    
    21   12   11 2    
    22   13   11 am   
    23   14   13 1    
    24   32   13 1    
    25   15   14 1    
    26   33   14 1    
    27   34   14 1    
    28   41   15 1    
    29   42   15 1    
    30   43   15 1    
    31   17   16 1    
    32   18   17 1    
    33   35   17 1    
    34   19   18 1    
    35   20   19 ar   
    36   26   19 ar   
    37   21   20 ar   
    38   36   20 1    
    39   22   21 1    
    40   23   21 ar   
    41   24   23 1    
    42   25   23 ar   
    43   44   24 1    
    44   26   25 ar   
    45   37   25 1    
    46   27   26 1    
    47   45   27 1    
@<TRIPOS>SUBSTRUCTURE
     1 BSM1        1 GROUP   
@<TRIPOS>SET

