#    Name: 3i81_EBI_1_INTS_M
#    Modification time : Tue Mar 25 15:59:14 2014

@<TRIPOS>MOLECULE
3i81_EBI_1_INTS_M
   77     0     9     0     0
SMALL
NO_CHARGES


@<TRIPOS>ATOM
      1 CA        -19.1530    4.2100   11.3540 C.3       3 GLC5        0.0000 
      2 CA        -17.6390    3.7730   12.6790 C.3       9 GLL5        0.0000 
      3 CA        -20.6670    4.6470   10.0290 C.3       6 GLP5        0.0000 
      4 CA        -17.2375    4.4785   14.6705 C.3       3 GLC5        0.0000 
      5 CA        -16.8360    5.1840   16.6620 C.3       6 GLP5        0.0000 
      6 O         -17.4310    6.1205   13.4310 O.2       1 ALC1        0.0000 
      7 O         -17.4110    5.1500   12.2280 O.2       7 ALL1        0.0000 
      8 O         -17.4510    7.0910   14.6340 O.2       4 ALP1        0.0000 
      9 CA        -17.3360   -0.3700   15.0920 C.3       3 GLC5        0.0000 
     10 CA        -17.5350   -0.0710   12.8850 C.3       9 GLL5        0.0000 
     11 CA        -17.1370   -0.6690   17.2990 C.3       6 GLP5        0.0000 
     12 CA        -19.1660   -1.5700   10.5400 C.3       3 GLC5        0.0000 
     13 CA        -18.6680   -0.1660   11.9120 C.3       9 GLL5        0.0000 
     14 CA        -19.6640   -2.9740    9.1680 C.3       6 GLP5        0.0000 
     15 CA        -17.8240   -2.0225   10.4355 C.3       3 GLC5        0.0000 
     16 CA        -17.2610   -0.2710   11.4390 C.3       9 GLL5        0.0000 
     17 CA        -18.3870   -3.7740    9.4320 C.3       6 GLP5        0.0000 
     18 CA        -16.4200   -1.0335    9.6490 C.3       3 GLC5        0.0000 
     19 CA        -15.5790   -1.7960    7.8590 C.3       6 GLP5        0.0000 
     20 CA        -17.9960    8.8180   13.5300 C.3       3 GLC5        0.0000 
     21 CA        -17.0310    8.1530   11.8650 C.3       9 GLL5        0.0000 
     22 CA        -18.9610    9.4830   15.1950 C.3       6 GLP5        0.0000 
     23 CA        -15.4235    5.6745   12.3600 C.3       3 GLC5        0.0000 
     24 CA        -16.5550    7.0380   11.0830 C.3       9 GLL5        0.0000 
     25 CA        -14.2920    4.3110   13.6370 C.3       6 GLP5        0.0000 
     26 CA        -15.3865    4.9705    5.8630 C.3       3 GLC5        0.0000 
     27 CA        -13.8850    4.9180    7.3560 C.3       9 GLL5        0.0000 
     28 CA        -16.8880    5.0230    4.3700 C.3       6 GLP5        0.0000 
     29 CA        -15.5990    3.7995    5.7095 C.3       3 GLC5        0.0000 
     30 CA        -14.3100    2.5760    7.0490 C.3       9 GLL5        0.0000 
     31 CA        -18.0795    4.1650    7.9970 C.3       3 GLC5        0.0000 
     32 CA        -16.6560    2.8120    8.0030 C.3       9 GLL5        0.0000 
     33 CA        -19.5030    5.5180    7.9910 C.3       6 GLP5        0.0000 
     34 CA        -16.7720    3.9175    6.1865 C.3       3 GLC5        0.0000 
     35 CA        -18.0185    1.9100    7.3340 C.3       3 GLC5        0.0000 
     36 CA        -19.3810    1.0080    6.6650 C.3       6 GLP5        0.0000 
     37 CA         -9.5300    0.5345   10.3140 C.3       3 GLC5        0.0000 
     38 CA        -10.6260    1.3750   12.0340 C.3       9 GLL5        0.0000 
     39 CA         -8.4340   -0.3060    8.5940 C.3       6 GLP5        0.0000 
     40 N         -12.8750   -0.6945   14.0295 N.am      2 SEC2        0.0000 
     41 N         -12.7050    0.5260   12.9520 N.am      8 SEL2        0.0000 
     42 N         -13.0450   -1.9150   15.1070 N.am      5 SEP2        0.0000 
     43 CA        -11.7970    1.4305   14.7475 C.3       3 GLC5        0.0000 
     44 CA        -10.5700   -0.0180   13.8730 C.3       9 GLL5        0.0000 
     45 CA        -13.0240    2.8790   15.6220 C.3       6 GLP5        0.0000 
     46 CA        -12.0165   -1.5830   14.1610 C.3       3 GLC5        0.0000 
     47 CA        -13.4630   -3.1480   14.4490 C.3       6 GLP5        0.0000 
     48 CA        -19.4733    2.4770   12.4595 C.3       3 GLC5        0.0000 
     49 CA        -17.2040    2.5050   12.1730 C.3       9 GLL5        0.0000 
     50 CA        -21.5250    1.8150   12.4930 C.3       6 GLP5        0.0000 
     51 CA        -15.8567    3.7250   13.0315 C.3       3 GLC5        0.0000 
     52 CA        -19.8133    0.8482   12.4458 C.3       3 GLC5        0.0000 
     53 CA        -19.4103   -1.0318   13.3003 C.3       3 GLC5        0.0000 
     54 CA        -20.7190   -1.9450   14.2020 C.3       6 GLP5        0.0000 
     55 CA        -16.0545   -1.5405   12.8740 C.3       3 GLC5        0.0000 
     56 CA        -14.7110   -2.9100   13.5860 C.3       6 GLP5        0.0000 
     57 CA        -18.9262    0.4308    9.8912 C.3       3 GLC5        0.0000 
     58 CA        -19.8880    1.0800    8.1070 C.3       6 GLP5        0.0000 
     59 CA        -18.3875    7.4707   10.6095 C.3       3 GLC5        0.0000 
     60 CA        -20.1040    7.0630    9.9070 C.3       6 GLP5        0.0000 
     61 CA        -10.3127    3.6655   12.1175 C.3       3 GLC5        0.0000 
     62 CA        -11.3870    2.0410   11.0840 C.3       9 GLL5        0.0000 
     63 CA         -9.6190    5.6230   12.6760 C.3       6 GLP5        0.0000 
     64 CA        -11.8183    2.3853   13.2973 C.3       3 GLC5        0.0000 
     65 CA        -12.6570    3.7740   14.0960 C.3       6 GLP5        0.0000 
     66 CA        -11.9667   -0.3842   11.1552 C.3       3 GLC5        0.0000 
     67 CA        -11.3330    0.6180   12.9630 C.3       9 GLL5        0.0000 
     68 CA        -12.9540   -1.7650    9.8120 C.3       6 GLP5        0.0000 
     69 CA        -11.3938   -0.1015   15.0350 C.3       3 GLC5        0.0000 
     70 CA        -11.8360   -0.5030   16.6520 C.3       6 GLP5        0.0000 
     71 CA        -12.7096    2.6851   12.8169 C.3       3 GLC5        0.0000 
     72 CA        -13.4300    1.1870   12.0130 C.3       9 GLL5        0.0000 
     73 CA        -12.8581   -0.0844   10.6749 C.3       3 GLC5        0.0000 
     74 CA         -9.0034    0.6236   13.8069 C.3       3 GLC5        0.0000 
     75 CA         -7.2320    0.7580   14.4280 C.3       6 GLP5        0.0000 
     76 CA        -15.1421    8.2075   12.1344 C.3       3 GLC5        0.0000 
     77 CA        -13.8010    8.0800   13.2050 C.3       6 GLP5        0.0000 
@<TRIPOS>BOND
@<TRIPOS>SUBSTRUCTURE
     1 ALC1        6 GROUP        1 X    ALC  0     ROOT ALC X 1
     2 SEC2       40 GROUP        1 X    SEC  0     **** SEC X 2
     3 GLC5        1 GROUP        1 X    GLC  0     **** GLC X 6
     4 ALP1        8 GROUP        1 Y    ALP  0     ROOT ALP Y 8
     5 SEP2       42 GROUP        1 Y    SEP  0     **** SEP Y 9
     6 GLP5        3 GROUP        1 Y    GLP  0     **** GLP Y 13
     7 ALL1        7 GROUP        1 Z    ALL  0     ROOT ALL Z 15
     8 SEL2       41 GROUP        1 Z    SEL  0     **** SEL Z 16
     9 GLL5        2 GROUP        1 Z    GLL  0     **** GLL Z 20
@<TRIPOS>SET

