#    Name: 3i81_EBI_1_ligand
#    Modification time : Tue Mar 25 15:59:14 2014

@<TRIPOS>MOLECULE
3i81_EBI_1_ligand
   58    63     1     0     0
SMALL
NO_CHARGES


@<TRIPOS>ATOM
      1 N1        -18.3780    3.4520   13.7700 N.pl3     1 EBI201      0.0000 
      2 C2        -17.6390    3.7730   12.6790 C.2       1 EBI201      0.0000 
      3 C3        -17.2040    2.5050   12.1730 C.2       1 EBI201      0.0000 
      4 C4        -17.7180    1.4640   13.0040 C.2       1 EBI201      0.0000 
      5 N5        -18.4220    2.1130   13.9560 N.2       1 EBI201      0.0000 
      6 N6        -17.4110    5.1500   12.2280 N.pl3     1 EBI201      0.0000 
      7 C7        -17.5350   -0.0710   12.8850 C.3       1 EBI201      0.0000 
      8 C8        -18.6680   -0.1660   11.9120 C.3       1 EBI201      0.0000 
      9 C9        -17.2610   -0.2710   11.4390 C.3       1 EBI201      0.0000 
     10 C10       -15.8040    8.8640   10.0900 C.2       1 EBI201      0.0000 
     11 C11       -16.5430    9.2850   11.2170 C.2       1 EBI201      0.0000 
     12 C12       -17.0310    8.1530   11.8650 C.2       1 EBI201      0.0000 
     13 C13       -16.5550    7.0380   11.0830 C.2       1 EBI201      0.0000 
     14 N14       -15.8110    7.5010   10.0080 N.pl3     1 EBI201      0.0000 
     15 C15       -16.6790    5.6400   11.1720 C.2       1 EBI201      0.0000 
     16 N16       -16.1060    4.7940   10.2630 N.2       1 EBI201      0.0000 
     17 N17       -15.2490    6.6110    9.1110 N.2       1 EBI201      0.0000 
     18 C18       -15.3930    5.2770    9.2330 C.2       1 EBI201      0.0000 
     19 C19       -13.8850    4.9180    7.3560 C.3       1 EBI201      0.0000 
     20 C20       -13.2930    3.6710    6.7320 C.3       1 EBI201      0.0000 
     21 C21       -14.3100    2.5760    7.0490 C.3       1 EBI201      0.0000 
     22 C22       -15.1380    3.0050    8.2610 C.3       1 EBI201      0.0000 
     23 N23       -14.8300    4.4390    8.3370 N.3       1 EBI201      0.0000 
     24 C24       -14.6090    2.0970    9.4260 C.2       1 EBI201      0.0000 
     25 N25       -13.5470    2.6210   10.1150 N.am      1 EBI201      0.0000 
     26 O26       -15.1490    1.0140    9.6510 O.2       1 EBI201      0.0000 
     27 C27       -16.6560    2.8120    8.0030 C.3       1 EBI201      0.0000 
     28 C28       -12.8020    1.9700   11.0410 C.ar      1 EBI201      0.0000 
     29 C29       -11.3870    2.0410   11.0840 C.ar      1 EBI201      0.0000 
     30 C30       -10.6260    1.3750   12.0340 C.ar      1 EBI201      0.0000 
     31 C31       -11.3330    0.6180   12.9630 C.ar      1 EBI201      0.0000 
     32 N32       -12.7050    0.5260   12.9520 N.ar      1 EBI201      0.0000 
     33 C33       -13.4300    1.1870   12.0130 C.ar      1 EBI201      0.0000 
     34 F34       -10.5700   -0.0180   13.8730 F         1 EBI201      0.0000 
     35 H         -18.8230    4.1086   14.3490 H         1 EBI201      0.0000 
     36 H         -16.6648    2.3810   11.4130 H         1 EBI201      0.0000 
     37 H         -17.9226    5.8895   12.8582 H         1 EBI201      0.0000 
     38 H         -17.4606   -0.6408   13.4081 H         1 EBI201      0.0000 
     39 H         -18.9841    0.7140   11.7339 H         1 EBI201      0.0000 
     40 H         -19.0369   -1.0418   11.9667 H         1 EBI201      0.0000 
     41 H         -17.0569   -1.1911   11.2894 H         1 EBI201      0.0000 
     42 H         -17.0042    0.5647   11.0566 H         1 EBI201      0.0000 
     43 H         -15.3684    9.4697    9.4836 H         1 EBI201      0.0000 
     44 H         -16.6768   10.1822   11.4771 H         1 EBI201      0.0000 
     45 H         -17.5443    8.0965   12.6232 H         1 EBI201      0.0000 
     46 H         -14.3699    5.4937    6.5853 H         1 EBI201      0.0000 
     47 H         -13.0919    5.4862    7.8128 H         1 EBI201      0.0000 
     48 H         -12.3632    3.4380    7.1918 H         1 EBI201      0.0000 
     49 H         -13.2149    3.7909    5.6786 H         1 EBI201      0.0000 
     50 H         -13.7901    1.6566    7.2766 H         1 EBI201      0.0000 
     51 H         -14.9631    2.4343    6.2000 H         1 EBI201      0.0000 
     52 H         -13.2849    3.6442    9.8966 H         1 EBI201      0.0000 
     53 H         -10.9066    2.6248   10.3618 H         1 EBI201      0.0000 
     54 H          -9.6264    1.4344   12.0516 H         1 EBI201      0.0000 
     55 H         -14.4669    1.1205   12.0027 H         1 EBI201      0.0000 
     56 H         -16.9716    3.3516    7.2225 H         1 EBI201      0.0000 
     57 H         -16.8814    1.8571    7.8096 H         1 EBI201      0.0000 
     58 H         -17.2049    3.0887    8.7917 H         1 EBI201      0.0000 
@<TRIPOS>BOND
     1    2    1 1    
     2    5    1 1    
     3   35    1 1    
     4    3    2 2    
     5    6    2 1    
     6    4    3 1    
     7   36    3 1    
     8    5    4 2    
     9    7    4 1    
    10   15    6 1    
    11   37    6 1    
    12    8    7 1    
    13    9    7 1    
    14   38    7 1    
    15    9    8 1    
    16   39    8 1    
    17   40    8 1    
    18   41    9 1    
    19   42    9 1    
    20   11   10 2    
    21   14   10 1    
    22   43   10 1    
    23   12   11 1    
    24   44   11 1    
    25   13   12 2    
    26   45   12 1    
    27   14   13 1    
    28   15   13 1    
    29   17   14 1    
    30   16   15 2    
    31   18   16 1    
    32   18   17 2    
    33   23   18 1    
    34   20   19 1    
    35   23   19 1    
    36   46   19 1    
    37   47   19 1    
    38   21   20 1    
    39   48   20 1    
    40   49   20 1    
    41   22   21 1    
    42   50   21 1    
    43   51   21 1    
    44   23   22 1    
    45   24   22 1    
    46   27   22 1    
    47   25   24 am   
    48   26   24 2    
    49   28   25 1    
    50   52   25 1    
    51   56   27 1    
    52   57   27 1    
    53   58   27 1    
    54   29   28 ar   
    55   33   28 ar   
    56   30   29 ar   
    57   53   29 1    
    58   31   30 ar   
    59   54   30 1    
    60   32   31 ar   
    61   34   31 1    
    62   33   32 ar   
    63   55   33 1    
@<TRIPOS>SUBSTRUCTURE
     1 EBI201      1 GROUP   
@<TRIPOS>SET

