#    Name: 2v1o_COA_6_INTS_M
#    Modification time : Tue Mar 25 00:43:50 2014

@<TRIPOS>MOLECULE
2v1o_COA_6_INTS_M
   92     0    12     0     0
SMALL
NO_CHARGES


@<TRIPOS>ATOM
      1 CA          3.2715   47.3985  -69.9880 C.3       4 GLC5        0.0000 
      2 CA          2.8000   49.1240  -71.1790 C.3      12 GLL5        0.0000 
      3 CA          3.7430   45.6730  -68.7970 C.3       8 GLP5        0.0000 
      4 CA          1.1640   48.4195  -70.2925 C.3       4 GLC5        0.0000 
      5 CA         -0.4720   47.7150  -69.4060 C.3       8 GLP5        0.0000 
      6 CA          1.9650   47.6595  -71.9455 C.3       4 GLC5        0.0000 
      7 CA          1.1300   46.1950  -72.7120 C.3       8 GLP5        0.0000 
      8 N           4.3350   49.5160  -72.7475 N.am      2 SEC2        0.0000 
      9 N           4.1670   49.1200  -71.3690 N.am     10 SEL2        0.0000 
     10 N           4.5030   49.9120  -74.1260 N.am      6 SEP2        0.0000 
     11 CA          1.3350   48.6215  -69.1200 C.3       4 GLC5        0.0000 
     12 CA          3.1420   49.5280  -68.8340 C.3      12 GLL5        0.0000 
     13 O           1.3070   49.8445  -67.3225 O.2       1 ALC1        0.0000 
     14 O           2.6470   49.5220  -67.6030 O.2       9 ALL1        0.0000 
     15 O          -0.0330   50.1670  -67.0420 O.2       5 ALP1        0.0000 
     16 CA          6.6625   47.9990  -73.1560 C.3       4 GLC5        0.0000 
     17 CA          7.2660   49.1590  -71.3760 C.3      12 GLL5        0.0000 
     18 CA          6.0590   46.8390  -74.9360 C.3       8 GLP5        0.0000 
     19 CA          7.1320   47.2475  -71.2940 C.3       4 GLC5        0.0000 
     20 CA          6.9980   45.3360  -71.2120 C.3       8 GLP5        0.0000 
     21 N           7.8475   52.5280  -72.8355 N.am      2 SEC2        0.0000 
     22 N           7.1570   51.2180  -72.7110 N.am     10 SEL2        0.0000 
     23 N           8.5380   53.8380  -72.9600 N.am      6 SEP2        0.0000 
     24 N           5.9770   51.8275  -72.2465 N.am      2 SEC2        0.0000 
     25 N           4.7970   52.4370  -71.7820 N.am      6 SEP2        0.0000 
     26 NZ          8.5780   52.7615  -74.0000 N.4       3 LYC4        0.0000 
     27 NZ          8.6180   51.6850  -75.0400 N.4      11 LYL4        0.0000 
     28 NZ          8.5380   53.8380  -72.9600 N.4       7 LYP4        0.0000 
     29 N           8.1780   52.2655  -76.1310 N.am      2 SEC2        0.0000 
     30 N           8.6180   51.6850  -75.0400 N.am     10 SEL2        0.0000 
     31 N           7.7380   52.8460  -77.2220 N.am      6 SEP2        0.0000 
     32 N           8.5780   52.7615  -74.0000 N.am      2 SEC2        0.0000 
     33 N           8.1830   49.1770  -76.9480 N.am      2 SEC2        0.0000 
     34 N           9.2440   49.6920  -76.3880 N.am     10 SEL2        0.0000 
     35 N           7.1220   48.6620  -77.5080 N.am      6 SEP2        0.0000 
     36 N           9.8670   48.5260  -76.7415 N.am      2 SEC2        0.0000 
     37 N          10.4900   47.3600  -77.0950 N.am      6 SEP2        0.0000 
     38 CA          8.2355   46.9575  -71.4860 C.3       4 GLC5        0.0000 
     39 CA          9.4730   48.5790  -71.7600 C.3      12 GLL5        0.0000 
     40 CA          5.4140   45.7620  -67.9450 C.3       4 GLC5        0.0000 
     41 CA          7.0850   45.8510  -67.0930 C.3      12 GLL5        0.0000 
     42 CA          7.0415   45.5935  -69.1525 C.3       4 GLC5        0.0000 
     43 CA          9.3885   44.8305  -68.8430 C.3       4 GLC5        0.0000 
     44 CA          9.4960   45.2780  -66.7830 C.3      12 GLL5        0.0000 
     45 CA          9.2810   44.3830  -70.9030 C.3       8 GLP5        0.0000 
     46 CA         10.5955   43.7680  -67.3325 C.3       4 GLC5        0.0000 
     47 CA         11.6950   42.2580  -67.8820 C.3       8 GLP5        0.0000 
     48 CA         11.1195   45.4530  -68.1095 C.3       4 GLC5        0.0000 
     49 CA         12.7430   45.6280  -69.4360 C.3       8 GLP5        0.0000 
     50 O           7.2700   47.3200  -62.9370 O.2       1 ALC1        0.0000 
     51 O           7.3180   47.3090  -64.5080 O.2       9 ALL1        0.0000 
     52 O           7.2220   47.3310  -61.3660 O.2       5 ALP1        0.0000 
     53 O           5.3285   45.6630  -63.9510 O.2       1 ALC1        0.0000 
     54 O           6.5320   44.8270  -63.9070 O.2       9 ALL1        0.0000 
     55 O           4.1250   46.4990  -63.9950 O.2       5 ALP1        0.0000 
     56 CA          6.4690   44.2635  -61.6820 C.3       4 GLC5        0.0000 
     57 CA          5.9840   43.5890  -63.3780 C.3      12 GLL5        0.0000 
     58 CA          6.9540   44.9380  -59.9860 C.3       8 GLP5        0.0000 
     59 CA          6.5455   42.3530  -61.6550 C.3       4 GLC5        0.0000 
     60 CA          7.1070   41.1170  -59.9320 C.3       8 GLP5        0.0000 
     61 CA          6.2075   41.2965  -65.7970 C.3       4 GLC5        0.0000 
     62 CA          5.7990   42.5260  -64.4590 C.3      12 GLL5        0.0000 
     63 CA          6.6160   40.0670  -67.1350 C.3       8 GLP5        0.0000 
     64 O           3.3950   41.8385  -65.2175 O.2       1 ALC1        0.0000 
     65 O           3.9150   41.0350  -64.1460 O.2       9 ALL1        0.0000 
     66 O           2.8750   42.6420  -66.2890 O.2       5 ALP1        0.0000 
     67 CA          1.3035   39.2755  -63.7325 C.3       4 GLC5        0.0000 
     68 CA          3.0780   40.1480  -63.3500 C.3      12 GLL5        0.0000 
     69 CA         -0.4710   38.4030  -64.1150 C.3       8 GLP5        0.0000 
     70 CA          2.5315   41.8605  -60.0430 C.3       4 GLC5        0.0000 
     71 CA          2.8500   40.6740  -61.9270 C.3      12 GLL5        0.0000 
     72 CA          2.2130   43.0470  -58.1590 C.3       8 GLP5        0.0000 
     73 CA          1.5675   37.6610  -60.1455 C.3       4 GLC5        0.0000 
     74 CA          1.7780   39.5510  -61.0030 C.3      12 GLL5        0.0000 
     75 CA          1.3570   35.7710  -59.2880 C.3       8 GLP5        0.0000 
     76 CA          0.6535   38.9770  -62.5590 C.3       4 GLC5        0.0000 
     77 CA          0.4460   39.3100  -60.0330 C.3       4 GLC5        0.0000 
     78 CA         -0.8860   39.0690  -59.0630 C.3       8 GLP5        0.0000 
     79 CA          1.0155   41.2905  -61.7455 C.3       4 GLC5        0.0000 
     80 CA          0.2530   43.0300  -62.4880 C.3       8 GLP5        0.0000 
     81 CA          3.5812   51.3402  -68.7120 C.3       4 GLC5        0.0000 
     82 CA          4.5170   49.5210  -69.0360 C.3      12 GLL5        0.0000 
     83 CA          3.3330   53.1560  -68.4890 C.3       8 GLP5        0.0000 
     84 CA          3.8471   47.5730  -69.0261 C.3       4 GLC5        0.0000 
     85 CA         11.2797   47.1260  -71.6210 C.3       4 GLC5        0.0000 
     86 CA         12.4780   45.5990  -71.9350 C.3       8 GLP5        0.0000 
     87 CA         10.6815   48.0447  -73.1485 C.3       4 GLC5        0.0000 
     88 CA         10.6900   48.7270  -70.8540 C.3      12 GLL5        0.0000 
     89 CA         11.3550   47.1170  -74.7970 C.3       8 GLP5        0.0000 
     90 CA          3.9253   43.7572  -63.7803 C.3       4 GLC5        0.0000 
     91 CA          1.9590   44.4570  -63.6420 C.3       8 GLP5        0.0000 
     92 CA          1.6085   41.7205  -62.5632 C.3       4 GLC5        0.0000 
@<TRIPOS>BOND
@<TRIPOS>SUBSTRUCTURE
     1 ALC1       13 GROUP        1 X    ALC  0     ROOT ALC X 1
     2 SEC2        8 GROUP        1 X    SEC  0     **** SEC X 2
     3 LYC4       26 GROUP        1 X    LYC  0     **** LYC X 4
     4 GLC5        1 GROUP        1 X    GLC  0     **** GLC X 6
     5 ALP1       15 GROUP        1 Y    ALP  0     ROOT ALP Y 8
     6 SEP2       10 GROUP        1 Y    SEP  0     **** SEP Y 9
     7 LYP4       28 GROUP        1 Y    LYP  0     **** LYP Y 11
     8 GLP5        3 GROUP        1 Y    GLP  0     **** GLP Y 13
     9 ALL1       14 GROUP        1 Z    ALL  0     ROOT ALL Z 15
    10 SEL2        9 GROUP        1 Z    SEL  0     **** SEL Z 16
    11 LYL4       27 GROUP        1 Z    LYL  0     **** LYL Z 18
    12 GLL5        2 GROUP        1 Z    GLL  0     **** GLL Z 20
@<TRIPOS>SET

