#    Name: 2v1o_COA_6_ligand
#    Modification time : Tue Mar 25 00:43:51 2014

@<TRIPOS>MOLECULE
2v1o_COA_6_ligand
   79    81     1     0     0
SMALL
NO_CHARGES


@<TRIPOS>ATOM
      1 N1A         2.2960   49.3310  -69.9120 N.ar      1 COA1162     0.0000 
      2 C2A         2.8000   49.1240  -71.1790 C.ar      1 COA1162     0.0000 
      3 N3A         4.1670   49.1200  -71.3690 N.ar      1 COA1162     0.0000 
      4 C4A         5.0040   49.3150  -70.3170 C.ar      1 COA1162     0.0000 
      5 C5A         4.5170   49.5210  -69.0360 C.ar      1 COA1162     0.0000 
      6 C6A         3.1420   49.5280  -68.8340 C.ar      1 COA1162     0.0000 
      7 N6A         2.6470   49.5220  -67.6030 N.pl3     1 COA1162     0.0000 
      8 N7A         5.5750   49.6870  -68.2090 N.2       1 COA1162     0.0000 
      9 C8A         6.7120   49.5910  -68.9300 C.2       1 COA1162     0.0000 
     10 N9A         6.3660   49.3710  -70.2380 N.pl3     1 COA1162     0.0000 
     11 C1B         7.2660   49.1590  -71.3760 C.3       1 COA1162     0.0000 
     12 C2B         7.9550   50.4360  -71.8520 C.3       1 COA1162     0.0000 
     13 O2B         7.1570   51.2180  -72.7110 O.3       1 COA1162     0.0000 
     14 C3B         9.1790   49.8570  -72.5320 C.3       1 COA1162     0.0000 
     15 O3B         8.8950   49.4910  -73.8600 O.3       1 COA1162     0.0000 
     16 P3B         9.4160   50.4090  -75.0760 P.3       1 COA1162     0.0000 
     17 O7A         8.6180   51.6850  -75.0400 O.co2     1 COA1162     0.0000 
     18 O8A        10.8830   50.6930  -74.8550 O.co2     1 COA1162     0.0000 
     19 O9A         9.2440   49.6920  -76.3880 O.co2     1 COA1162     0.0000 
     20 C4B         9.4730   48.5790  -71.7600 C.3       1 COA1162     0.0000 
     21 O4B         8.3170   48.3040  -70.9920 O.3       1 COA1162     0.0000 
     22 C5B        10.6900   48.7270  -70.8540 C.3       1 COA1162     0.0000 
     23 O5B        10.5290   49.8640  -70.0300 O.3       1 COA1162     0.0000 
     24 P1A        11.6310   50.2070  -68.9080 P.3       1 COA1162     0.0000 
     25 O1A        13.0060   49.8180  -69.3750 O.co2     1 COA1162     0.0000 
     26 O2A        11.5060   51.6690  -68.5320 O.co2     1 COA1162     0.0000 
     27 O3A        11.2660   49.2240  -67.6820 O.3       1 COA1162     0.0000 
     28 P2A        10.3730   49.6760  -66.4340 P.3       1 COA1162     0.0000 
     29 O4A         9.3670   50.7250  -66.8300 O.co2     1 COA1162     0.0000 
     30 O5A        11.2570   50.1550  -65.3020 O.co2     1 COA1162     0.0000 
     31 O6A         9.6250   48.3080  -66.0150 O.3       1 COA1162     0.0000 
     32 CBP         8.3850   46.2470  -66.3910 C.3       1 COA1162     0.0000 
     33 CCP         8.7590   47.6370  -66.9080 C.3       1 COA1162     0.0000 
     34 CDP         7.0850   45.8510  -67.0930 C.3       1 COA1162     0.0000 
     35 CEP         9.4960   45.2780  -66.7830 C.3       1 COA1162     0.0000 
     36 CAP         8.2200   46.2850  -64.8670 C.3       1 COA1162     0.0000 
     37 OAP         7.3180   47.3090  -64.5080 O.3       1 COA1162     0.0000 
     38 C9P         7.8220   44.9730  -64.2310 C.2       1 COA1162     0.0000 
     39 O9P         8.7900   43.9810  -63.9890 O.2       1 COA1162     0.0000 
     40 N8P         6.5320   44.8270  -63.9070 N.am      1 COA1162     0.0000 
     41 C7P         5.9840   43.5890  -63.3780 C.3       1 COA1162     0.0000 
     42 C6P         5.7990   42.5260  -64.4590 C.3       1 COA1162     0.0000 
     43 C5P         5.1930   41.2830  -63.8380 C.2       1 COA1162     0.0000 
     44 O5P         5.8680   40.5590  -63.0830 O.2       1 COA1162     0.0000 
     45 N4P         3.9150   41.0350  -64.1460 N.am      1 COA1162     0.0000 
     46 C3P         3.0780   40.1480  -63.3500 C.3       1 COA1162     0.0000 
     47 C2P         2.8500   40.6740  -61.9270 C.3       1 COA1162     0.0000 
     48 S1P         1.7780   39.5510  -61.0030 S.3       1 COA1162     0.0000 
     49 H           2.1656   48.9745  -71.9724 H         1 COA1162     0.0000 
     50 H           1.6630   49.3615  -67.5252 H         1 COA1162     0.0000 
     51 H           3.3027   49.6784  -66.8643 H         1 COA1162     0.0000 
     52 H           7.6084   49.6623  -68.5978 H         1 COA1162     0.0000 
     53 H           6.7327   48.7440  -72.2148 H         1 COA1162     0.0000 
     54 H           8.2965   50.9506  -70.9719 H         1 COA1162     0.0000 
     55 H           9.9896   50.5097  -72.4219 H         1 COA1162     0.0000 
     56 H           9.6592   47.7937  -72.4730 H         1 COA1162     0.0000 
     57 H          11.5755   48.8052  -71.4973 H         1 COA1162     0.0000 
     58 H          10.7832   47.8031  -70.2693 H         1 COA1162     0.0000 
     59 H           9.2167   47.5042  -67.9055 H         1 COA1162     0.0000 
     60 H           7.8167   48.1933  -67.0657 H         1 COA1162     0.0000 
     61 H           9.2317   46.5485  -64.4562 H         1 COA1162     0.0000 
     62 H           5.8468   45.6129  -64.0223 H         1 COA1162     0.0000 
     63 H           5.0027   43.7649  -62.9035 H         1 COA1162     0.0000 
     64 H           6.6434   43.1690  -62.5984 H         1 COA1162     0.0000 
     65 H           6.7626   42.2854  -64.8916 H         1 COA1162     0.0000 
     66 H           5.1385   42.9094  -65.2274 H         1 COA1162     0.0000 
     67 H           3.4547   41.4688  -64.9773 H         1 COA1162     0.0000 
     68 H           3.5328   39.1454  -63.2697 H         1 COA1162     0.0000 
     69 H           2.0892   40.0125  -63.8215 H         1 COA1162     0.0000 
     70 H           2.3112   41.5893  -61.8961 H         1 COA1162     0.0000 
     71 H           3.7332   40.6922  -61.3366 H         1 COA1162     0.0000 
     72 H           7.1937   45.8209  -68.0866 H         1 COA1162     0.0000 
     73 H           6.7680   44.9473  -66.8053 H         1 COA1162     0.0000 
     74 H           6.3463   46.4964  -66.8984 H         1 COA1162     0.0000 
     75 H          10.3763   45.5436  -66.3899 H         1 COA1162     0.0000 
     76 H           9.3045   44.3475  -66.4709 H         1 COA1162     0.0000 
     77 H           9.6187   45.2352  -67.7745 H         1 COA1162     0.0000 
     78 H           7.7345   51.3991  -73.5071 H         1 COA1162     0.0000 
     79 H           7.3002   47.2993  -63.5082 H         1 COA1162     0.0000 
@<TRIPOS>BOND
     1    2    1 ar   
     2    6    1 ar   
     3    3    2 ar   
     4   49    2 1    
     5    4    3 ar   
     6    5    4 ar   
     7   10    4 1    
     8    6    5 ar   
     9    8    5 1    
    10    7    6 1    
    11   50    7 1    
    12   51    7 1    
    13    9    8 2    
    14   10    9 1    
    15   52    9 1    
    16   11   10 1    
    17   12   11 1    
    18   21   11 1    
    19   53   11 1    
    20   13   12 1    
    21   14   12 1    
    22   54   12 1    
    23   78   13 1    
    24   15   14 1    
    25   20   14 1    
    26   55   14 1    
    27   16   15 1    
    28   17   16 ar   
    29   18   16 ar   
    30   19   16 ar   
    31   21   20 1    
    32   22   20 1    
    33   56   20 1    
    34   23   22 1    
    35   57   22 1    
    36   58   22 1    
    37   24   23 1    
    38   25   24 ar   
    39   26   24 ar   
    40   27   24 1    
    41   28   27 1    
    42   29   28 ar   
    43   30   28 ar   
    44   31   28 1    
    45   33   31 1    
    46   33   32 1    
    47   34   32 1    
    48   35   32 1    
    49   36   32 1    
    50   59   33 1    
    51   60   33 1    
    52   72   34 1    
    53   73   34 1    
    54   74   34 1    
    55   75   35 1    
    56   76   35 1    
    57   77   35 1    
    58   37   36 1    
    59   38   36 1    
    60   61   36 1    
    61   79   37 1    
    62   39   38 2    
    63   40   38 am   
    64   41   40 1    
    65   62   40 1    
    66   42   41 1    
    67   63   41 1    
    68   64   41 1    
    69   43   42 1    
    70   65   42 1    
    71   66   42 1    
    72   44   43 2    
    73   45   43 am   
    74   46   45 1    
    75   67   45 1    
    76   47   46 1    
    77   68   46 1    
    78   69   46 1    
    79   48   47 1    
    80   70   47 1    
    81   71   47 1    
@<TRIPOS>SUBSTRUCTURE
     1 COA1162     1 GROUP   
@<TRIPOS>SET

