#    Name: 1e5q_NDP_7_INTS_M
#    Modification time : Mon Mar 24 22:57:36 2014

@<TRIPOS>MOLECULE
1e5q_NDP_7_INTS_M
  100     0    12     0     0
SMALL
NO_CHARGES


@<TRIPOS>ATOM
      1 N           1.5445  -38.5170   10.3565 N.am      2 SEC2        0.0000 
      2 N           1.7060  -37.0070   10.2240 N.am     10 SEL2        0.0000 
      3 N           1.3830  -40.0270   10.4890 N.am      6 SEP2        0.0000 
      4 CA          6.2545  -34.1940    8.4415 C.3       4 GLC5        0.0000 
      5 CA          5.1750  -35.6020    9.5510 C.3      12 GLL5        0.0000 
      6 CA          7.3340  -32.7860    7.3320 C.3       8 GLP5        0.0000 
      7 CA          7.7595  -37.6615   10.1585 C.3       4 GLC5        0.0000 
      8 CA          6.3900  -36.1410   10.3120 C.3      12 GLL5        0.0000 
      9 CA          9.1290  -39.1820   10.0050 C.3       8 GLP5        0.0000 
     10 N           7.2315  -38.6545   12.0220 N.am      2 SEC2        0.0000 
     11 N           6.9290  -37.2500   12.4360 N.am     10 SEL2        0.0000 
     12 N           7.5340  -40.0590   11.6080 N.am      6 SEP2        0.0000 
     13 CA          8.7215  -37.1120   10.4280 C.3       4 GLC5        0.0000 
     14 CA          8.3140  -35.0420   10.8510 C.3      12 GLL5        0.0000 
     15 CA          9.1920  -35.6375    9.3495 C.3       4 GLC5        0.0000 
     16 CA         10.0700  -36.2330    7.8480 C.3       8 GLP5        0.0000 
     17 CA          7.8240  -33.9140    9.0915 C.3       4 GLC5        0.0000 
     18 CA         14.1625  -32.3605   11.7260 C.3       4 GLC5        0.0000 
     19 CA         12.1830  -32.0830   10.7290 C.3      12 GLL5        0.0000 
     20 CA         16.1420  -32.6380   12.7230 C.3       8 GLP5        0.0000 
     21 CA         13.3445  -32.0495    9.2410 C.3       4 GLC5        0.0000 
     22 CA         14.5060  -32.0160    7.7530 C.3       8 GLP5        0.0000 
     23 O          13.9630  -30.5045   11.1600 O.2       1 ALC1        0.0000 
     24 O          12.6010  -30.8190   10.5880 O.2       9 ALL1        0.0000 
     25 O          15.3250  -30.1900   11.7320 O.2       5 ALP1        0.0000 
     26 N          14.5715  -32.9060   10.6110 N.am      2 SEC2        0.0000 
     27 N          13.0670  -33.0840   10.9460 N.am     10 SEL2        0.0000 
     28 N          16.0760  -32.7280   10.2760 N.am      6 SEP2        0.0000 
     29 CA         12.3350  -35.7740   12.3840 C.3       4 GLC5        0.0000 
     30 CA         12.6290  -34.3580   11.0880 C.3      12 GLL5        0.0000 
     31 CA         12.0410  -37.1900   13.6800 C.3       8 GLP5        0.0000 
     32 CA         12.6400  -33.2485   12.8380 C.3       4 GLC5        0.0000 
     33 CA         12.6510  -32.1390   14.5880 C.3       8 GLP5        0.0000 
     34 CA         14.3855  -33.4980   11.9055 C.3       4 GLC5        0.0000 
     35 CA         13.8375  -34.4025    9.6010 C.3       4 GLC5        0.0000 
     36 CA         15.0460  -34.4470    8.1140 C.3       8 GLP5        0.0000 
     37 CA         10.2755  -34.9680    9.3310 C.3       4 GLC5        0.0000 
     38 CA         10.4810  -33.7030   10.8140 C.3      12 GLL5        0.0000 
     39 N          -0.1755  -36.7030    7.1210 N.am      2 SEC2        0.0000 
     40 N           0.7380  -37.6340    7.0370 N.am     10 SEL2        0.0000 
     41 N          -1.0890  -35.7720    7.2050 N.am      6 SEP2        0.0000 
     42 N           2.0640  -40.4145    7.8140 N.am      2 SEC2        0.0000 
     43 N           2.8190  -39.0210    7.6400 N.am     10 SEL2        0.0000 
     44 N           1.3090  -41.8080    7.9880 N.am      6 SEP2        0.0000 
     45 CA          3.6585  -39.5740    5.4225 C.3       4 GLC5        0.0000 
     46 CA          4.3850  -37.5770    5.4580 C.3      12 GLL5        0.0000 
     47 CA          2.9320  -41.5710    5.3870 C.3       8 GLP5        0.0000 
     48 CA          6.2495  -36.5630    5.9330 C.3       4 GLC5        0.0000 
     49 CA          8.1140  -35.5490    6.4080 C.3       8 GLP5        0.0000 
     50 O           6.3375  -35.0200    3.4470 O.2       1 ALC1        0.0000 
     51 O           5.2390  -35.2880    2.6460 O.2       9 ALL1        0.0000 
     52 O           7.4360  -34.7520    4.2480 O.2       5 ALP1        0.0000 
     53 CA          3.1470  -39.7190    0.0765 C.3       4 GLC5        0.0000 
     54 CA          1.7030  -38.5140    0.6170 C.3      12 GLL5        0.0000 
     55 CA          4.5910  -40.9240   -0.4640 C.3       8 GLP5        0.0000 
     56 CA          1.6105  -40.5460    1.2240 C.3       4 GLC5        0.0000 
     57 CA          1.5180  -42.5780    1.8310 C.3       8 GLP5        0.0000 
     58 CA          1.2795  -36.8570   -0.3995 C.3       4 GLC5        0.0000 
     59 CA          0.8560  -35.2000   -1.4160 C.3       8 GLP5        0.0000 
     60 N          -0.6280  -41.5800   -1.9475 N.am      2 SEC2        0.0000 
     61 N          -0.8560  -40.2170   -1.3790 N.am     10 SEL2        0.0000 
     62 N          -0.4000  -42.9430   -2.5160 N.am      6 SEP2        0.0000 
     63 N          -1.3855  -40.5865   -2.6390 N.am      2 SEC2        0.0000 
     64 N          -1.9150  -40.9560   -3.8990 N.am      6 SEP2        0.0000 
     65 O           2.4905  -39.2045   -2.0680 O.2       1 ALC1        0.0000 
     66 O           1.1830  -39.6070   -1.9710 O.2       9 ALL1        0.0000 
     67 O           3.7980  -38.8020   -2.1650 O.2       5 ALP1        0.0000 
     68 O           1.3575  -40.2815   -3.3515 O.2       1 ALC1        0.0000 
     69 O           1.5320  -40.9560   -4.7320 O.2       5 ALP1        0.0000 
     70 N           7.7705  -31.7550   14.1460 N.am      2 SEC2        0.0000 
     71 N           7.1570  -33.2230   14.6300 N.am     10 SEL2        0.0000 
     72 N           8.3840  -30.2870   13.6620 N.am      6 SEP2        0.0000 
     73 NZ         10.0390  -32.3470   14.5240 N.4       3 LYC4        0.0000 
     74 NZ          9.5420  -33.6840   15.0040 N.4      11 LYL4        0.0000 
     75 NZ          9.6680  -30.0210   13.8670 N.4       7 LYP4        0.0000 
     76 N          10.0390  -32.3470   14.5240 N.am      2 SEC2        0.0000 
     77 N           9.5420  -33.6840   15.0040 N.am     10 SEL2        0.0000 
     78 N          10.5360  -31.0100   14.0440 N.am      6 SEP2        0.0000 
     79 N          10.2235  -34.4180   16.2965 N.am      2 SEC2        0.0000 
     80 N          10.9050  -35.1520   17.5890 N.am      6 SEP2        0.0000 
     81 CA          6.9483  -35.7103    8.1698 C.3       4 GLC5        0.0000 
     82 CA          9.2148  -36.1737   12.5650 C.3       4 GLC5        0.0000 
     83 CA         10.5180  -37.3880   13.7000 C.3       8 GLP5        0.0000 
     84 CA         11.7302  -31.5250   12.4940 C.3       4 GLC5        0.0000 
     85 CA         10.8100  -32.3830   10.6550 C.3      12 GLL5        0.0000 
     86 CA         11.9640  -30.8170   14.2960 C.3       8 GLP5        0.0000 
     87 CA          6.2717  -38.2660    4.9138 C.3       4 GLC5        0.0000 
     88 CA          8.0080  -39.1180    5.1220 C.3       8 GLP5        0.0000 
     89 CA         -2.2738  -40.0315    2.1502 C.3       4 GLC5        0.0000 
     90 CA         -0.5130  -39.2730    1.3310 C.3      12 GLL5        0.0000 
     91 CA         -4.1260  -41.0200    2.3300 C.3       8 GLP5        0.0000 
     92 CA          0.3528  -39.9797    4.0350 C.3       4 GLC5        0.0000 
     93 CA         -0.3300  -38.8130    2.6100 C.3      12 GLL5        0.0000 
     94 CA          0.4380  -41.4540    5.3070 C.3       8 GLP5        0.0000 
     95 CA         -1.1033  -38.2203    4.1075 C.3       4 GLC5        0.0000 
     96 CA         -2.4740  -37.9350    5.4520 C.3       8 GLP5        0.0000 
     97 CA         -0.5599  -40.7945    1.5634 C.3       4 GLC5        0.0000 
     98 CA         -0.9390  -42.5750    1.4100 C.3       8 GLP5        0.0000 
     99 CA         -1.3204  -37.8170    0.7144 C.3       4 GLC5        0.0000 
    100 CA         -2.4600  -36.6200   -0.2880 C.3       8 GLP5        0.0000 
@<TRIPOS>BOND
@<TRIPOS>SUBSTRUCTURE
     1 ALC1       23 GROUP        1 X    ALC  0     ROOT ALC X 1
     2 SEC2        1 GROUP        1 X    SEC  0     **** SEC X 2
     3 LYC4       73 GROUP        1 X    LYC  0     **** LYC X 4
     4 GLC5        4 GROUP        1 X    GLC  0     **** GLC X 6
     5 ALP1       25 GROUP        1 Y    ALP  0     ROOT ALP Y 8
     6 SEP2        3 GROUP        1 Y    SEP  0     **** SEP Y 9
     7 LYP4       75 GROUP        1 Y    LYP  0     **** LYP Y 11
     8 GLP5        6 GROUP        1 Y    GLP  0     **** GLP Y 13
     9 ALL1       24 GROUP        1 Z    ALL  0     ROOT ALL Z 15
    10 SEL2        2 GROUP        1 Z    SEL  0     **** SEL Z 16
    11 LYL4       74 GROUP        1 Z    LYL  0     **** LYL Z 18
    12 GLL5        5 GROUP        1 Z    GLL  0     **** GLL Z 20
@<TRIPOS>SET

