#    Name: 1e5q_NDP_7_ligand
#    Modification time : Mon Mar 24 22:57:36 2014

@<TRIPOS>MOLECULE
1e5q_NDP_7_ligand
   74    78     1     0     0
SMALL
NO_CHARGES


@<TRIPOS>ATOM
      1 PA          2.5540  -36.1010    9.4930 P.3       1 NDP500      0.0000 
      2 O1A         1.7060  -37.0070   10.2240 O.co2     1 NDP500      0.0000 
      3 O2A         2.2680  -34.6280    9.4330 O.co2     1 NDP500      0.0000 
      4 O5B         4.0770  -36.3550   10.0770 O.3       1 NDP500      0.0000 
      5 C5B         5.1750  -35.6020    9.5510 C.3       1 NDP500      0.0000 
      6 C4B         6.3900  -36.1410   10.3120 C.3       1 NDP500      0.0000 
      7 O4B         7.5570  -35.4450    9.7560 O.3       1 NDP500      0.0000 
      8 C3B         6.4850  -35.9960   11.8490 C.3       1 NDP500      0.0000 
      9 O3B         6.9290  -37.2500   12.4360 O.3       1 NDP500      0.0000 
     10 C2B         7.5090  -34.8770   12.0090 C.3       1 NDP500      0.0000 
     11 O2B         8.4050  -34.6030   13.0970 O.3       1 NDP500      0.0000 
     12 C1B         8.3140  -35.0420   10.8510 C.3       1 NDP500      0.0000 
     13 N9A         9.1110  -33.7980   10.7170 N.pl3     1 NDP500      0.0000 
     14 C8A         8.6700  -32.4690   10.4930 C.2       1 NDP500      0.0000 
     15 N7A         9.6900  -31.6390   10.4560 N.2       1 NDP500      0.0000 
     16 C5A        10.8100  -32.3830   10.6550 C.ar      1 NDP500      0.0000 
     17 C6A        12.1830  -32.0830   10.7290 C.ar      1 NDP500      0.0000 
     18 N6A        12.6010  -30.8190   10.5880 N.pl3     1 NDP500      0.0000 
     19 N1A        13.0670  -33.0840   10.9460 N.ar      1 NDP500      0.0000 
     20 C2A        12.6290  -34.3580   11.0880 C.ar      1 NDP500      0.0000 
     21 N3A        11.3500  -34.7500   11.0360 N.ar      1 NDP500      0.0000 
     22 C4A        10.4810  -33.7030   10.8140 C.ar      1 NDP500      0.0000 
     23 O3          2.7460  -36.5720    7.9840 O.3       1 NDP500      0.0000 
     24 PN          2.2040  -37.7720    7.0610 P.3       1 NDP500      0.0000 
     25 O1N         0.7380  -37.6340    7.0370 O.co2     1 NDP500      0.0000 
     26 O2N         2.8190  -39.0210    7.6400 O.co2     1 NDP500      0.0000 
     27 O5D         2.9280  -37.4950    5.6550 O.3       1 NDP500      0.0000 
     28 C5D         4.3850  -37.5770    5.4580 C.3       1 NDP500      0.0000 
     29 C4D         4.6860  -37.2510    3.9530 C.3       1 NDP500      0.0000 
     30 O4D         3.8670  -38.1250    3.1770 O.3       1 NDP500      0.0000 
     31 C3D         4.2620  -35.8260    3.5430 C.3       1 NDP500      0.0000 
     32 O3D         5.2390  -35.2880    2.6460 O.3       1 NDP500      0.0000 
     33 C2D         2.9190  -35.9990    2.9180 C.3       1 NDP500      0.0000 
     34 O2D         2.6050  -34.9220    2.0570 O.3       1 NDP500      0.0000 
     35 C1D         3.1550  -37.3870    2.1930 C.3       1 NDP500      0.0000 
     36 N1N         1.8650  -38.0510    1.9290 N.pl3     1 NDP500      0.0000 
     37 C2N         1.7030  -38.5140    0.6170 C.2       1 NDP500      0.0000 
     38 C3N         0.4500  -39.1570    0.3160 C.2       1 NDP500      0.0000 
     39 C7N         0.2120  -39.6780   -1.0350 C.2       1 NDP500      0.0000 
     40 O7N        -0.8560  -40.2170   -1.3790 O.2       1 NDP500      0.0000 
     41 N7N         1.1830  -39.6070   -1.9710 N.am      1 NDP500      0.0000 
     42 C4N        -0.5130  -39.2730    1.3310 C.3       1 NDP500      0.0000 
     43 C5N        -0.3300  -38.8130    2.6100 C.2       1 NDP500      0.0000 
     44 C6N         0.8650  -38.1980    2.9160 C.2       1 NDP500      0.0000 
     45 P2B         8.2280  -34.2530   14.5400 P.3       1 NDP500      0.0000 
     46 O1X         7.9440  -35.5330   15.1840 O.co2     1 NDP500      0.0000 
     47 O2X         7.1570  -33.2230   14.6300 O.co2     1 NDP500      0.0000 
     48 O3X         9.5420  -33.6840   15.0040 O.co2     1 NDP500      0.0000 
     49 H           5.0870  -34.5539    9.7597 H         1 NDP500      0.0000 
     50 H           5.3281  -35.7819    8.5051 H         1 NDP500      0.0000 
     51 H           6.5124  -37.2055   10.0617 H         1 NDP500      0.0000 
     52 H           5.5513  -35.6650   12.1998 H         1 NDP500      0.0000 
     53 H           6.9234  -33.9097   11.7661 H         1 NDP500      0.0000 
     54 H           9.0642  -35.8530   11.1105 H         1 NDP500      0.0000 
     55 H           7.7238  -32.2566   10.3876 H         1 NDP500      0.0000 
     56 H          13.4451  -30.5787   11.0672 H         1 NDP500      0.0000 
     57 H          12.0316  -30.2285   10.0161 H         1 NDP500      0.0000 
     58 H          13.3796  -35.1167   11.2571 H         1 NDP500      0.0000 
     59 H           4.7564  -38.5698    5.6580 H         1 NDP500      0.0000 
     60 H           4.9076  -36.8508    6.0606 H         1 NDP500      0.0000 
     61 H           5.7065  -37.3936    3.7600 H         1 NDP500      0.0000 
     62 H           4.1669  -35.2598    4.4436 H         1 NDP500      0.0000 
     63 H           2.2168  -36.1866    3.6933 H         1 NDP500      0.0000 
     64 H           3.7125  -37.2082    1.3378 H         1 NDP500      0.0000 
     65 H           2.4019  -38.4136   -0.0807 H         1 NDP500      0.0000 
     66 H           0.9408  -39.9396   -2.8824 H         1 NDP500      0.0000 
     67 H           2.0580  -39.2281   -1.6695 H         1 NDP500      0.0000 
     68 H          -0.8411  -40.4022    1.3795 H         1 NDP500      0.0000 
     69 H          -1.5218  -38.8341    0.9129 H         1 NDP500      0.0000 
     70 H          -1.0571  -38.9216    3.3185 H         1 NDP500      0.0000 
     71 H           1.0443  -37.8391    3.8636 H         1 NDP500      0.0000 
     72 H           6.3754  -37.3595   13.2615 H         1 NDP500      0.0000 
     73 H           5.8003  -34.6811    3.2087 H         1 NDP500      0.0000 
     74 H           3.4829  -34.4877    1.8553 H         1 NDP500      0.0000 
@<TRIPOS>BOND
     1    2    1 ar   
     2    3    1 ar   
     3    4    1 1    
     4   23    1 1    
     5    5    4 1    
     6    6    5 1    
     7   49    5 1    
     8   50    5 1    
     9    7    6 1    
    10    8    6 1    
    11   51    6 1    
    12   12    7 1    
    13    9    8 1    
    14   10    8 1    
    15   52    8 1    
    16   72    9 1    
    17   11   10 1    
    18   12   10 1    
    19   53   10 1    
    20   45   11 1    
    21   13   12 1    
    22   54   12 1    
    23   14   13 1    
    24   22   13 1    
    25   15   14 2    
    26   55   14 1    
    27   16   15 1    
    28   17   16 ar   
    29   22   16 ar   
    30   18   17 1    
    31   19   17 ar   
    32   56   18 1    
    33   57   18 1    
    34   20   19 ar   
    35   21   20 ar   
    36   58   20 1    
    37   22   21 ar   
    38   24   23 1    
    39   25   24 ar   
    40   26   24 ar   
    41   27   24 1    
    42   28   27 1    
    43   29   28 1    
    44   59   28 1    
    45   60   28 1    
    46   30   29 1    
    47   31   29 1    
    48   61   29 1    
    49   35   30 1    
    50   32   31 1    
    51   33   31 1    
    52   62   31 1    
    53   73   32 1    
    54   34   33 1    
    55   35   33 1    
    56   63   33 1    
    57   74   34 1    
    58   36   35 1    
    59   64   35 1    
    60   37   36 1    
    61   44   36 1    
    62   38   37 2    
    63   65   37 1    
    64   39   38 1    
    65   42   38 1    
    66   40   39 2    
    67   41   39 am   
    68   66   41 1    
    69   67   41 1    
    70   43   42 1    
    71   68   42 1    
    72   69   42 1    
    73   44   43 2    
    74   70   43 1    
    75   71   44 1    
    76   46   45 ar   
    77   47   45 ar   
    78   48   45 ar   
@<TRIPOS>SUBSTRUCTURE
     1 NDP500      1 GROUP   
@<TRIPOS>SET

