#    Name: 1uze_EAL_1_INTS_M
#    Modification time : Tue Mar 25 07:22:20 2014

@<TRIPOS>MOLECULE
1uze_EAL_1_INTS_M
   69     0    12     0     0
SMALL
NO_CHARGES


@<TRIPOS>ATOM
      1 N          39.7815   33.1975   45.8305 N.am      1 SEC2        0.0000 
      2 N          40.1920   34.0940   44.9270 N.am      9 SEL2        0.0000 
      3 N          39.3710   32.3010   46.7340 N.am      5 SEP2        0.0000 
      4 Zn         43.5240   37.5580   47.3880 Zn        3 ZIC7        0.0000 
      5 Zn         43.2850   36.5220   48.1860 Zn       11 ZIL7        0.0000 
      6 Zn         43.7630   38.5940   46.5900 Zn        7 ZIP7        0.0000 
      7 N          44.1395   35.4685   48.1900 N.am      1 SEC2        0.0000 
      8 N          43.2850   36.5220   48.1860 N.am      9 SEL2        0.0000 
      9 N          44.9940   34.4150   48.1940 N.am      5 SEP2        0.0000 
     10 Zn         42.8755   38.1440   46.7495 Zn        3 ZIC7        0.0000 
     11 Zn         41.9880   37.6940   46.9090 Zn       11 ZIL7        0.0000 
     12 N          40.7755   37.8075   46.2040 N.am      1 SEC2        0.0000 
     13 N          41.9880   37.6940   46.9090 N.am      9 SEL2        0.0000 
     14 N          39.5630   37.9210   45.4990 N.am      5 SEP2        0.0000 
     15 NZ         37.8030   32.6935   41.5395 N.4       2 LYC4        0.0000 
     16 NZ         38.8040   33.6840   41.7050 N.4      10 LYL4        0.0000 
     17 NZ         36.8020   31.7030   41.3740 N.4       6 LYP4        0.0000 
     18 N          39.1840   32.8795   40.4260 N.am      1 SEC2        0.0000 
     19 N          38.8040   33.6840   41.7050 N.am      9 SEL2        0.0000 
     20 N          39.5640   32.0750   39.1470 N.am      5 SEP2        0.0000 
     21 N          37.8030   32.6935   41.5395 N.am      1 SEC2        0.0000 
     22 N          36.8020   31.7030   41.3740 N.am      5 SEP2        0.0000 
     23 N          38.2545   34.5225   40.8685 N.am      1 SEC2        0.0000 
     24 N          37.7050   35.3610   40.0320 N.am      5 SEP2        0.0000 
     25 N          40.1190   32.3305   40.6370 N.am      1 SEC2        0.0000 
     26 N          40.6740   32.5860   42.1270 N.am      9 SEL2        0.0000 
     27 CA         44.2275   35.4460   45.7170 C.3       4 GLC5        0.0000 
     28 CA         42.4920   34.1960   45.8130 C.3      12 GLL5        0.0000 
     29 CA         45.9630   36.6960   45.6210 C.3       8 GLP5        0.0000 
     30 CA         40.7750   36.8270   42.9925 C.3       4 GLC5        0.0000 
     31 CA         40.6840   35.0230   42.3630 C.3      12 GLL5        0.0000 
     32 CA         40.8660   38.6310   43.6220 C.3       8 GLP5        0.0000 
     33 CA         40.7385   36.1520   39.5740 C.3       4 GLC5        0.0000 
     34 CA         41.5090   35.5880   41.1790 C.3      12 GLL5        0.0000 
     35 CA         39.9680   36.7160   37.9690 C.3       8 GLP5        0.0000 
     36 CA         44.8485   35.3915   40.9245 C.3       4 GLC5        0.0000 
     37 CA         42.8210   35.7280   41.5570 C.3      12 GLL5        0.0000 
     38 CA         46.8760   35.0550   40.2920 C.3       8 GLP5        0.0000 
     39 CA         44.5285   36.0020   44.2770 C.3       4 GLC5        0.0000 
     40 CA         43.0940   35.3080   42.9330 C.3      12 GLL5        0.0000 
     41 CA         41.9800   36.9695   43.2775 C.3       4 GLC5        0.0000 
     42 CA         43.7490   31.8390   47.3195 C.3       4 GLC5        0.0000 
     43 CA         43.0740   32.7750   45.7120 C.3      12 GLL5        0.0000 
     44 CA         44.4240   30.9030   48.9270 C.3       8 GLP5        0.0000 
     45 CA         44.9345   31.9680   45.7410 C.3       4 GLC5        0.0000 
     46 CA         46.7950   31.1610   45.7700 C.3       8 GLP5        0.0000 
     47 CA         41.2365   35.0580   50.6840 C.3       4 GLC5        0.0000 
     48 CA         40.5060   35.7720   48.7790 C.3      12 GLL5        0.0000 
     49 CA         41.9670   34.3440   52.5890 C.3       8 GLP5        0.0000 
     50 CA         37.8745   35.0540   49.0825 C.3       4 GLC5        0.0000 
     51 CA         39.3030   36.6650   49.0290 C.3      12 GLL5        0.0000 
     52 CA         36.4460   33.4430   49.1360 C.3       8 GLP5        0.0000 
     53 CA         37.7180   37.7965   48.5195 C.3       4 GLC5        0.0000 
     54 CA         36.1330   38.9280   48.0100 C.3       8 GLP5        0.0000 
     55 CA         41.0870   32.7163   46.9117 C.3       4 GLC5        0.0000 
     56 CA         39.3910   31.9470   48.0610 C.3       8 GLP5        0.0000 
     57 CA         40.1215   33.7938   48.0965 C.3       4 GLC5        0.0000 
     58 CA         41.1980   35.5090   47.4850 C.3      12 GLL5        0.0000 
     59 CA         41.5455   37.3665   41.8355 C.3       4 GLC5        0.0000 
     60 CA         40.9260   39.0750   42.3030 C.3       8 GLP5        0.0000 
     61 CA         36.8332   36.8757   50.3145 C.3       4 GLC5        0.0000 
     62 CA         38.7470   36.7910   50.4110 C.3      12 GLL5        0.0000 
     63 CA         35.0310   37.5560   49.7950 C.3       8 GLP5        0.0000 
     64 CA         40.1072   35.0083   52.2575 C.3       4 GLC5        0.0000 
     65 CA         38.5240   35.6000   51.2570 C.3      12 GLL5        0.0000 
     66 CA         36.4158   36.9845   51.3240 C.3       4 GLC5        0.0000 
     67 CA         37.9710   35.7450   52.5950 C.3      12 GLL5        0.0000 
     68 CA         36.5797   37.8790   50.6975 C.3       4 GLC5        0.0000 
     69 CA         37.8500   38.2740   52.2740 C.3      12 GLL5        0.0000 
@<TRIPOS>BOND
@<TRIPOS>SUBSTRUCTURE
     1 SEC2        1 GROUP        1 X    SEC  0     ROOT SEC X 2
     2 LYC4       15 GROUP        1 X    LYC  0     **** LYC X 4
     3 ZIC7        4 GROUP        1 X    ZIC  0     **** ZIC X 5
     4 GLC5       27 GROUP        1 X    GLC  0     **** GLC X 6
     5 SEP2        3 GROUP        1 Y    SEP  0     ROOT SEP Y 9
     6 LYP4       17 GROUP        1 Y    LYP  0     **** LYP Y 11
     7 ZIP7        6 GROUP        1 Y    ZIP  0     **** ZIP Y 12
     8 GLP5       29 GROUP        1 Y    GLP  0     **** GLP Y 13
     9 SEL2        2 GROUP        1 Z    SEL  0     ROOT SEL Z 16
    10 LYL4       16 GROUP        1 Z    LYL  0     **** LYL Z 18
    11 ZIL7        5 GROUP        1 Z    ZIL  0     **** ZIL Z 19
    12 GLL5       28 GROUP        1 Z    GLL  0     **** GLL Z 20
@<TRIPOS>SET

