#    Name: 1uze_EAL_1_ligand
#    Modification time : Tue Mar 25 07:22:20 2014

@<TRIPOS>MOLECULE
1uze_EAL_1_ligand
   46    47     1     0     0
SMALL
NO_CHARGES


@<TRIPOS>ATOM
      1 O1         40.1920   34.0940   44.9270 O.2       1 EAL3002     0.0000 
      2 O2         43.2850   36.5220   48.1860 O.co2     1 EAL3002     0.0000 
      3 O3         41.9880   37.6940   46.9090 O.co2     1 EAL3002     0.0000 
      4 O4         38.8040   33.6840   41.7050 O.co2     1 EAL3002     0.0000 
      5 O5         40.6740   32.5860   42.1270 O.co2     1 EAL3002     0.0000 
      6 N1         41.7710   34.4720   47.1180 N.4       1 EAL3002     0.0000 
      7 N2         41.7570   34.8740   43.4350 N.am      1 EAL3002     0.0000 
      8 C1         41.4150   34.3910   44.6760 C.2       1 EAL3002     0.0000 
      9 C2         42.4920   34.1960   45.8130 C.3       1 EAL3002     0.0000 
     10 C3         42.2070   36.6640   47.5300 C.2       1 EAL3002     0.0000 
     11 C4         41.1980   35.5090   47.4850 C.3       1 EAL3002     0.0000 
     12 C5         40.6840   35.0230   42.3630 C.3       1 EAL3002     0.0000 
     13 C6         41.5090   35.5880   41.1790 C.3       1 EAL3002     0.0000 
     14 C7         42.8210   35.7280   41.5570 C.3       1 EAL3002     0.0000 
     15 C8         43.0940   35.3080   42.9330 C.3       1 EAL3002     0.0000 
     16 C9         40.0410   33.6030   42.0400 C.2       1 EAL3002     0.0000 
     17 C10        43.0740   32.7750   45.7120 C.3       1 EAL3002     0.0000 
     18 C14        40.5060   35.7720   48.7790 C.3       1 EAL3002     0.0000 
     19 C15        39.3030   36.6650   49.0290 C.3       1 EAL3002     0.0000 
     20 C16        38.7470   36.7910   50.4110 C.ar      1 EAL3002     0.0000 
     21 C17        38.5240   35.6000   51.2570 C.ar      1 EAL3002     0.0000 
     22 C18        37.9710   35.7450   52.5950 C.ar      1 EAL3002     0.0000 
     23 C19        37.6300   37.0810   53.1110 C.ar      1 EAL3002     0.0000 
     24 C20        37.8500   38.2740   52.2740 C.ar      1 EAL3002     0.0000 
     25 C21        38.4070   38.1300   50.9260 C.ar      1 EAL3002     0.0000 
     26 H          43.2514   34.9223   45.6500 H         1 EAL3002     0.0000 
     27 H          40.4628   35.9470   46.6997 H         1 EAL3002     0.0000 
     28 H          39.9692   35.7039   42.6611 H         1 EAL3002     0.0000 
     29 H          41.0308   36.5381   40.8940 H         1 EAL3002     0.0000 
     30 H          41.3663   34.8885   40.3406 H         1 EAL3002     0.0000 
     31 H          43.1711   36.7940   41.4458 H         1 EAL3002     0.0000 
     32 H          43.5104   35.1505   40.8768 H         1 EAL3002     0.0000 
     33 H          43.7735   34.4813   42.9525 H         1 EAL3002     0.0000 
     34 H          43.4514   36.1290   43.5193 H         1 EAL3002     0.0000 
     35 H          41.3260   36.1020   49.5518 H         1 EAL3002     0.0000 
     36 H          40.2453   34.7298   49.2527 H         1 EAL3002     0.0000 
     37 H          38.4734   36.3310   48.3327 H         1 EAL3002     0.0000 
     38 H          39.5544   37.7004   48.6428 H         1 EAL3002     0.0000 
     39 H          38.7583   34.6913   50.8980 H         1 EAL3002     0.0000 
     40 H          37.8190   34.9377   53.1729 H         1 EAL3002     0.0000 
     41 H          37.2482   37.1800   54.0313 H         1 EAL3002     0.0000 
     42 H          37.6178   39.1812   52.6295 H         1 EAL3002     0.0000 
     43 H          38.5577   38.9368   50.3532 H         1 EAL3002     0.0000 
     44 H          43.5412   32.6261   44.8405 H         1 EAL3002     0.0000 
     45 H          43.7395   32.5939   46.4361 H         1 EAL3002     0.0000 
     46 H          42.3626   32.0761   45.7863 H         1 EAL3002     0.0000 
@<TRIPOS>BOND
     1    8    1 2    
     2   10    2 ar   
     3   10    3 ar   
     4   16    4 ar   
     5   16    5 ar   
     6    9    6 1    
     7   11    6 1    
     8    8    7 am   
     9   12    7 1    
    10   15    7 1    
    11    9    8 1    
    12   17    9 1    
    13   26    9 1    
    14   11   10 1    
    15   18   11 1    
    16   27   11 1    
    17   13   12 1    
    18   16   12 1    
    19   28   12 1    
    20   14   13 1    
    21   29   13 1    
    22   30   13 1    
    23   15   14 1    
    24   31   14 1    
    25   32   14 1    
    26   33   15 1    
    27   34   15 1    
    28   44   17 1    
    29   45   17 1    
    30   46   17 1    
    31   19   18 1    
    32   35   18 1    
    33   36   18 1    
    34   20   19 1    
    35   37   19 1    
    36   38   19 1    
    37   21   20 ar   
    38   25   20 ar   
    39   22   21 ar   
    40   39   21 1    
    41   23   22 ar   
    42   40   22 1    
    43   24   23 ar   
    44   41   23 1    
    45   25   24 ar   
    46   42   24 1    
    47   43   25 1    
@<TRIPOS>SUBSTRUCTURE
     1 EAL3002     1 GROUP   
@<TRIPOS>SET

