#    Name: 1QSN_1_CAVITY_N1_ALL.mol2
#    Modification time : Tue Mar 11 04:24:26 2014

@<TRIPOS>MOLECULE
1QSN_1_CAVITY_N1_ALL.mol2
  121     0     5     0     0
SMALL
NO_CHARGES


@<TRIPOS>ATOM
      1 CA         49.8061   28.0980   56.8592 C.3       4 GLY6        0.0000 
      2 N          47.2761   27.5578   61.1086 N.2       2 ALA2        0.0000 
      3 N          48.6351   26.7459   59.6965 N.2       2 ALA2        0.0000 
      4 N          47.4248   27.6284   59.6176 N.2       2 ALA2        0.0000 
      5 N          48.7838   26.8165   58.2056 N.2       2 ALA2        0.0000 
      6 DU         47.5735   27.6991   58.1267 H         5 CUB7        0.0000 
      7 CA         48.9325   26.8871   56.7147 C.3       4 GLY6        0.0000 
      8 DU         47.7222   27.7697   56.6357 H         5 CUB7        0.0000 
      9 O          49.0813   26.9578   55.2237 O.2       2 ALA2        0.0000 
     10 DU         47.8710   27.8403   55.1448 H         5 CUB7        0.0000 
     11 CA         49.2300   27.0284   53.7328 C.3       4 GLY6        0.0000 
     12 DU         48.0197   27.9110   53.6539 H         5 CUB7        0.0000 
     13 O          50.5890   26.2165   52.3208 O.2       2 ALA2        0.0000 
     14 CA         49.3787   27.0990   52.2418 C.3       4 GLY6        0.0000 
     15 DU         48.1684   27.9816   52.1629 H         5 CUB7        0.0000 
     16 O          49.5274   27.1697   50.7509 O.2       2 ALA2        0.0000 
     17 N          47.3154   25.3232   64.0249 N.2       2 ALA2        0.0000 
     18 N          47.4641   25.3938   62.5339 N.2       2 ALA2        0.0000 
     19 O          47.6129   25.4644   61.0430 O.2       2 ALA2        0.0000 
     20 N          46.4026   26.3470   60.9641 N.2       2 ALA2        0.0000 
     21 O          47.7616   25.5351   59.5520 O.2       2 ALA2        0.0000 
     22 N          46.5513   26.4176   59.4731 N.2       2 ALA2        0.0000 
     23 O          45.3410   27.3002   59.3942 O.2       2 ALA2        0.0000 
     24 O          47.9103   25.6057   58.0611 O.2       2 ALA2        0.0000 
     25 DU         46.7000   26.4883   57.9822 H         5 CUB7        0.0000 
     26 CZ         45.4897   27.3708   57.9033 C.ar      3 PHE5        0.0000 
     27 CA         49.2693   24.7937   56.6491 C.3       4 GLY6        0.0000 
     28 DU         48.0590   25.6763   56.5702 H         5 CUB7        0.0000 
     29 DU         46.8487   26.5589   56.4913 H         5 CUB7        0.0000 
     30 CZ         45.6384   27.4415   56.4123 C.ar      3 PHE5        0.0000 
     31 CA         50.6283   23.9818   55.2371 C.3       4 GLY6        0.0000 
     32 O          49.4180   24.8644   55.1581 O.2       2 ALA2        0.0000 
     33 DU         48.2077   25.7470   55.0792 H         5 CUB7        0.0000 
     34 CZ         46.9974   26.6295   55.0003 C.ar      3 PHE5        0.0000 
     35 CZ         45.7871   27.5121   54.9214 C.ar      3 PHE5        0.0000 
     36 O          50.7771   24.0524   53.7461 O.2       2 ALA2        0.0000 
     37 O          49.5668   24.9350   53.6672 O.2       2 ALA2        0.0000 
     38 DU         48.3564   25.8176   53.5883 H         5 CUB7        0.0000 
     39 CZ         47.1461   26.7002   53.5094 C.ar      3 PHE5        0.0000 
     40 CZ         45.9358   27.5827   53.4305 C.ar      3 PHE5        0.0000 
     41 O          49.7155   25.0056   52.1763 O.2       2 ALA2        0.0000 
     42 CA         48.5052   25.8882   52.0974 C.3       4 GLY6        0.0000 
     43 OG         47.2949   26.7708   52.0184 O.2       1 SER1        0.0000 
     44 OG         46.0846   27.6534   51.9395 O.2       1 SER1        0.0000 
     45 CA         48.6539   25.9589   50.6064 C.3       4 GLY6        0.0000 
     46 N          46.4419   24.1123   63.8804 N.2       2 ALA2        0.0000 
     47 N          45.2316   24.9949   63.8014 N.2       2 ALA2        0.0000 
     48 N          46.5906   24.1830   62.3894 N.2       2 ALA2        0.0000 
     49 N          45.3803   25.0656   62.3105 N.2       2 ALA2        0.0000 
     50 N          44.1700   25.9481   62.2316 N.2       2 ALA2        0.0000 
     51 O          46.7393   24.2536   60.8985 O.2       2 ALA2        0.0000 
     52 N          45.5290   25.1362   60.8196 N.2       2 ALA2        0.0000 
     53 O          46.8880   24.3242   59.4075 O.2       2 ALA2        0.0000 
     54 CZ         45.6777   25.2068   59.3286 C.ar      3 PHE5        0.0000 
     55 CZ         44.4674   26.0894   59.2497 C.ar      3 PHE5        0.0000 
     56 O          48.2471   23.5123   57.9955 O.2       2 ALA2        0.0000 
     57 O          47.0368   24.3949   57.9166 O.2       2 ALA2        0.0000 
     58 DU         45.8265   25.2774   57.8377 H         5 CUB7        0.0000 
     59 CZ         44.6162   26.1600   57.7588 C.ar      3 PHE5        0.0000 
     60 CA         48.3958   23.5829   56.5046 C.3       4 GLY6        0.0000 
     61 DU         47.1855   24.4655   56.4257 H         5 CUB7        0.0000 
     62 CZ         45.9752   25.3481   56.3468 C.ar      3 PHE5        0.0000 
     63 CZ         44.7649   26.2307   56.2678 C.ar      3 PHE5        0.0000 
     64 CA         49.7548   22.7710   55.0926 C.3       4 GLY6        0.0000 
     65 CA         48.5445   23.6536   55.0136 C.3       4 GLY6        0.0000 
     66 DU         47.3342   24.5361   54.9347 H         5 CUB7        0.0000 
     67 CZ         46.1239   25.4187   54.8558 C.ar      3 PHE5        0.0000 
     68 O          49.9035   22.8416   53.6016 O.2       2 ALA2        0.0000 
     69 O          48.6932   23.7242   53.5227 O.2       2 ALA2        0.0000 
     70 CA         47.4829   24.6068   53.4438 C.3       4 GLY6        0.0000 
     71 OG         46.2726   25.4893   53.3649 O.2       1 SER1        0.0000 
     72 O          47.6316   24.6774   51.9529 O.2       2 ALA2        0.0000 
     73 OG         46.4213   25.5600   51.8739 O.2       1 SER1        0.0000 
     74 N          45.7171   22.9722   62.2449 N.2       2 ALA2        0.0000 
     75 N          44.5068   23.8547   62.1660 N.2       2 ALA2        0.0000 
     76 CZ         43.2965   24.7373   62.0871 C.ar      3 PHE5        0.0000 
     77 N          47.0761   22.1602   60.8329 N.2       2 ALA2        0.0000 
     78 N          45.8658   23.0428   60.7540 N.2       2 ALA2        0.0000 
     79 CZ         44.6555   23.9254   60.6751 C.ar      3 PHE5        0.0000 
     80 O          47.2248   22.2309   59.3420 O.2       2 ALA2        0.0000 
     81 O          46.0145   23.1134   59.2630 O.2       2 ALA2        0.0000 
     82 CZ         44.8042   23.9960   59.1841 C.ar      3 PHE5        0.0000 
     83 CZ         43.5939   24.8786   59.1052 C.ar      3 PHE5        0.0000 
     84 O          47.3735   22.3015   57.8510 O.2       2 ALA2        0.0000 
     85 DU         46.1632   23.1841   57.7721 H         5 CUB7        0.0000 
     86 DU         44.9529   24.0666   57.6932 H         5 CUB7        0.0000 
     87 CZ         43.7426   24.9492   57.6143 C.ar      3 PHE5        0.0000 
     88 CZ         42.5323   25.8318   57.5354 C.ar      3 PHE5        0.0000 
     89 CA         47.5223   22.3721   56.3601 C.3       4 GLY6        0.0000 
     90 DU         46.3120   23.2547   56.2812 H         5 CUB7        0.0000 
     91 CZ         45.1017   24.1373   56.2023 C.ar      3 PHE5        0.0000 
     92 CA         47.6710   22.4427   54.8692 C.3       4 GLY6        0.0000 
     93 OG         46.4607   23.3253   54.7902 O.2       1 SER1        0.0000 
     94 CA         43.6333   22.6439   62.0215 C.3       4 GLY6        0.0000 
     95 N          44.9923   21.8320   60.6095 N.2       2 ALA2        0.0000 
     96 N          43.7820   22.7146   60.5306 N.2       2 ALA2        0.0000 
     97 CZ         42.5717   23.5971   60.4517 C.ar      3 PHE5        0.0000 
     98 N          45.1410   21.9026   59.1186 N.2       2 ALA2        0.0000 
     99 N          43.9307   22.7852   59.0396 N.2       2 ALA2        0.0000 
    100 CZ         42.7204   23.6678   58.9607 C.ar      3 PHE5        0.0000 
    101 CZ         41.5101   24.5503   58.8818 C.ar      3 PHE5        0.0000 
    102 CA         45.2897   21.9732   57.6276 C.3       4 GLY6        0.0000 
    103 N          44.0794   22.8558   57.5487 N.2       2 ALA2        0.0000 
    104 CZ         42.8691   23.7384   57.4698 C.ar      3 PHE5        0.0000 
    105 CZ         41.6588   24.6210   57.3909 C.ar      3 PHE5        0.0000 
    106 CA         46.6487   21.1613   56.2156 C.3       4 GLY6        0.0000 
    107 CA         45.4384   22.0439   56.1367 C.3       4 GLY6        0.0000 
    108 OG         44.2281   22.9265   56.0578 O.2       1 SER1        0.0000 
    109 CA         45.5872   22.1145   54.6457 C.3       4 GLY6        0.0000 
    110 CA         41.5494   22.3157   61.7981 C.3       4 GLY6        0.0000 
    111 N          41.6981   22.3863   60.3072 N.2       2 ALA2        0.0000 
    112 CA         40.4878   23.2689   60.2283 C.3       4 GLY6        0.0000 
    113 N          41.8469   22.4569   58.8162 N.2       2 ALA2        0.0000 
    114 CZ         40.6366   23.3395   58.7373 C.ar      3 PHE5        0.0000 
    115 CA         43.2059   21.6450   57.4042 C.3       4 GLY6        0.0000 
    116 CA         41.9956   22.5276   57.3253 C.3       4 GLY6        0.0000 
    117 CZ         40.7853   23.4102   57.2464 C.ar      3 PHE5        0.0000 
    118 N          40.8246   21.1755   60.1627 N.2       2 ALA2        0.0000 
    119 CA         39.6143   22.0581   60.0838 C.3       4 GLY6        0.0000 
    120 N          40.9733   21.2461   58.6717 N.2       2 ALA2        0.0000 
    121 CA         39.7630   22.1287   58.5928 C.3       4 GLY6        0.0000 
@<TRIPOS>BOND
@<TRIPOS>SUBSTRUCTURE
     1 SER1       43 GROUP   
     2 ALA2        2 GROUP   
     3 PHE5       26 GROUP   
     4 GLY6        1 GROUP   
     5 CUB7        6 GROUP   
@<TRIPOS>SET

