#    Name: 1qsn_COA_1_INTS_M
#    Modification time : Mon Mar 24 23:54:24 2014

@<TRIPOS>MOLECULE
1qsn_COA_1_INTS_M
   73     0     9     0     0
SMALL
NO_CHARGES


@<TRIPOS>ATOM
      1 CA         50.5760   28.4125   57.4205 C.3       3 GLC5        0.0000 
      2 CA         48.8570   28.2790   58.5820 C.3       9 GLL5        0.0000 
      3 CA         52.2950   28.5460   56.2590 C.3       6 GLP5        0.0000 
      4 O          50.3645   26.4310   60.5160 O.2       1 ALC1        0.0000 
      5 O          49.6410   27.5670   60.7950 O.2       7 ALL1        0.0000 
      6 O          51.0880   25.2950   60.2370 O.2       4 ALP1        0.0000 
      7 CA         50.6250   30.1015   54.3440 C.3       3 GLC5        0.0000 
      8 CA         48.5740   30.4560   54.5980 C.3       9 GLL5        0.0000 
      9 CA         52.6760   29.7470   54.0900 C.3       6 GLP5        0.0000 
     10 N          50.9170   25.6315   51.1925 N.am      2 SEC2        0.0000 
     11 N          49.9510   26.1290   52.1270 N.am      8 SEL2        0.0000 
     12 N          51.8830   25.1340   50.2580 N.am      5 SEP2        0.0000 
     13 N          47.1885   24.1760   50.4115 N.am      2 SEC2        0.0000 
     14 N          47.8410   25.5610   50.7560 N.am      8 SEL2        0.0000 
     15 N          46.5360   22.7910   50.0670 N.am      5 SEP2        0.0000 
     16 N          46.8100   25.5205   50.0275 N.am      2 SEC2        0.0000 
     17 N          45.7790   25.4800   49.2990 N.am      5 SEP2        0.0000 
     18 N          50.8995   25.6180   55.1155 N.am      2 SEC2        0.0000 
     19 N          49.5520   25.1260   55.2760 N.am      8 SEL2        0.0000 
     20 N          52.2470   26.1100   54.9550 N.am      5 SEP2        0.0000 
     21 N          49.2590   22.4025   52.7905 N.am      2 SEC2        0.0000 
     22 N          49.9430   23.1670   53.8830 N.am      8 SEL2        0.0000 
     23 N          48.5750   21.6380   51.6980 N.am      5 SEP2        0.0000 
     24 CA         46.8285   22.8090   53.7590 C.3       3 GLC5        0.0000 
     25 CA         46.4880   24.0970   55.4710 C.3       9 GLL5        0.0000 
     26 CA         47.1690   21.5210   52.0470 C.3       6 GLP5        0.0000 
     27 CA         44.1775   20.8075   56.1375 C.3       3 GLC5        0.0000 
     28 CA         45.7600   21.9350   56.3420 C.3       9 GLL5        0.0000 
     29 CA         42.5950   19.6800   55.9330 C.3       6 GLP5        0.0000 
     30 CA         45.8870   20.4130   57.4940 C.3       3 GLC5        0.0000 
     31 CA         46.0140   18.8910   58.6460 C.3       6 GLP5        0.0000 
     32 CA         47.3570   21.1020   55.8255 C.3       3 GLC5        0.0000 
     33 CA         48.9540   20.2690   55.3090 C.3       6 GLP5        0.0000 
     34 CA         49.1405   23.6950   58.1820 C.3       3 GLC5        0.0000 
     35 CA         46.9530   23.7090   57.9260 C.3       9 GLL5        0.0000 
     36 CA         51.3280   23.6810   58.4380 C.3       6 GLP5        0.0000 
     37 N          47.6625   20.5975   58.7330 N.am      2 SEC2        0.0000 
     38 N          47.0680   21.6680   59.3520 N.am      8 SEL2        0.0000 
     39 N          48.2570   19.5270   58.1140 N.am      5 SEP2        0.0000 
     40 N          48.4600   22.5450   59.8375 N.am      2 SEC2        0.0000 
     41 N          49.8520   23.4220   60.3230 N.am      5 SEP2        0.0000 
     42 CA         43.3355   21.2940   62.4530 C.3       3 GLC5        0.0000 
     43 CA         44.5320   22.0130   61.2620 C.3       9 GLL5        0.0000 
     44 CA         42.1390   20.5750   63.6440 C.3       6 GLP5        0.0000 
     45 CA         45.3385   20.3040   60.7080 C.3       3 GLC5        0.0000 
     46 CA         46.1450   18.5950   60.1540 C.3       6 GLP5        0.0000 
     47 O          42.9720   20.7760   59.6375 O.2       1 ALC1        0.0000 
     48 O          42.5180   22.0340   60.0520 O.2       7 ALL1        0.0000 
     49 O          43.4260   19.5180   59.2230 O.2       4 ALP1        0.0000 
     50 CA         41.6515   24.5225   59.9480 C.3       3 GLC5        0.0000 
     51 CA         41.1320   22.4260   59.5470 C.3       9 GLL5        0.0000 
     52 CA         42.1710   26.6190   60.3490 C.3       6 GLP5        0.0000 
     53 CA         39.6310   22.2945   57.9230 C.3       3 GLC5        0.0000 
     54 CA         38.1300   22.1630   56.2990 C.3       6 GLP5        0.0000 
     55 CA         40.8385   23.3455   61.4615 C.3       3 GLC5        0.0000 
     56 CA         40.5450   24.2650   63.3760 C.3       6 GLP5        0.0000 
     57 CA         39.6845   23.2845   61.6780 C.3       3 GLC5        0.0000 
     58 CA         40.1500   21.9540   60.6120 C.3       9 GLL5        0.0000 
     59 CA         39.2190   24.6150   62.7440 C.3       6 GLP5        0.0000 
     60 CA         40.0650   18.0130   60.4255 C.3       3 GLC5        0.0000 
     61 CA         40.1060   20.1180   60.8610 C.3       9 GLL5        0.0000 
     62 CA         40.0240   15.9080   59.9900 C.3       6 GLP5        0.0000 
     63 CA         41.2765   18.9885   59.3340 C.3       3 GLC5        0.0000 
     64 CA         42.4470   17.8590   57.8070 C.3       6 GLP5        0.0000 
     65 CA         38.9510   20.3665   59.9370 C.3       3 GLC5        0.0000 
     66 CA         37.7960   20.6150   59.0130 C.3       6 GLP5        0.0000 
     67 CA         44.1268   24.4315   55.2140 C.3       3 GLC5        0.0000 
     68 CA         44.5050   24.0210   57.1330 C.3       9 GLL5        0.0000 
     69 CA         42.9030   24.9720   53.8060 C.3       6 GLP5        0.0000 
     70 CA         46.2300   21.3785   62.3932 C.3       3 GLC5        0.0000 
     71 CA         47.3920   20.2150   63.4340 C.3       6 GLP5        0.0000 
     72 CA         39.2185   21.4025   59.5463 C.3       3 GLC5        0.0000 
     73 CA         41.1335   20.8055   62.1902 C.3       3 GLC5        0.0000 
@<TRIPOS>BOND
@<TRIPOS>SUBSTRUCTURE
     1 ALC1        4 GROUP        1 X    ALC  0     ROOT ALC X 1
     2 SEC2       10 GROUP        1 X    SEC  0     **** SEC X 2
     3 GLC5        1 GROUP        1 X    GLC  0     **** GLC X 6
     4 ALP1        6 GROUP        1 Y    ALP  0     ROOT ALP Y 8
     5 SEP2       12 GROUP        1 Y    SEP  0     **** SEP Y 9
     6 GLP5        3 GROUP        1 Y    GLP  0     **** GLP Y 13
     7 ALL1        5 GROUP        1 Z    ALL  0     ROOT ALL Z 15
     8 SEL2       11 GROUP        1 Z    SEL  0     **** SEL Z 16
     9 GLL5        2 GROUP        1 Z    GLL  0     **** GLL Z 20
@<TRIPOS>SET

