#    Name: 1qsn_COA_1_ligand
#    Modification time : Mon Mar 24 23:54:24 2014

@<TRIPOS>MOLECULE
1qsn_COA_1_ligand
   79    81     1     0     0
SMALL
NO_CHARGES


@<TRIPOS>ATOM
      1 N1A        48.5380   29.6270   60.5890 N.ar      1 COA401      0.0000 
      2 C2A        47.8970   30.5770   59.7840 C.ar      1 COA401      0.0000 
      3 N3A        47.6900   30.4910   58.4500 N.ar      1 COA401      0.0000 
      4 C4A        48.1780   29.3550   57.9130 C.ar      1 COA401      0.0000 
      5 C5A        48.8570   28.2790   58.5820 C.ar      1 COA401      0.0000 
      6 C6A        49.0470   28.4500   60.0570 C.ar      1 COA401      0.0000 
      7 N6A        49.6410   27.5670   60.7950 N.pl3     1 COA401      0.0000 
      8 N7A        49.2100   27.2880   57.7270 N.2       1 COA401      0.0000 
      9 C8A        48.7630   27.7150   56.5180 C.2       1 COA401      0.0000 
     10 N9A        48.1330   28.9550   56.5700 N.pl3     1 COA401      0.0000 
     11 C1B        47.5290   29.7340   55.4270 C.3       1 COA401      0.0000 
     12 C2B        48.5740   30.4560   54.5980 C.3       1 COA401      0.0000 
     13 O2B        49.0350   31.5910   55.3140 O.3       1 COA401      0.0000 
     14 C3B        47.7890   30.7960   53.3170 C.3       1 COA401      0.0000 
     15 O3B        46.9800   31.8940   53.4500 O.3       1 COA401      0.0000 
     16 P3B        46.6720   32.6110   51.9710 P.3       1 COA401      0.0000 
     17 O7A        48.0810   33.1460   51.4300 O.co2     1 COA401      0.0000 
     18 O8A        45.7430   33.8950   52.1730 O.co2     1 COA401      0.0000 
     19 O9A        46.0600   31.5140   50.9940 O.co2     1 COA401      0.0000 
     20 C4B        47.0830   29.4560   53.0620 C.3       1 COA401      0.0000 
     21 O4B        46.9580   28.8220   54.4330 O.3       1 COA401      0.0000 
     22 C5B        47.8200   28.5080   52.1180 C.3       1 COA401      0.0000 
     23 O5B        47.7550   27.2090   52.7550 O.3       1 COA401      0.0000 
     24 P1A        48.4640   25.9260   52.0790 P.3       1 COA401      0.0000 
     25 O1A        49.9510   26.1290   52.1270 O.co2     1 COA401      0.0000 
     26 O2A        47.8410   25.5610   50.7560 O.co2     1 COA401      0.0000 
     27 O3A        48.0850   24.9310   53.1600 O.3       1 COA401      0.0000 
     28 P2A        48.9030   24.1690   54.3340 P.3       1 COA401      0.0000 
     29 O4A        49.5520   25.1260   55.2760 O.co2     1 COA401      0.0000 
     30 O5A        49.9430   23.1670   53.8830 O.co2     1 COA401      0.0000 
     31 O6A        47.6250   23.3750   54.9850 O.3       1 COA401      0.0000 
     32 CBP        45.9040   23.4250   56.7510 C.3       1 COA401      0.0000 
     33 CCP        46.4880   24.0970   55.4710 C.3       1 COA401      0.0000 
     34 CDP        44.5050   24.0210   57.1330 C.3       1 COA401      0.0000 
     35 CEP        45.7600   21.9350   56.3420 C.3       1 COA401      0.0000 
     36 CAP        46.9530   23.7090   57.9260 C.3       1 COA401      0.0000 
     37 OAP        47.0070   25.1340   58.2430 O.3       1 COA401      0.0000 
     38 C9P        46.6540   22.9470   59.2110 C.2       1 COA401      0.0000 
     39 O9P        47.0680   21.6680   59.3520 O.2       1 COA401      0.0000 
     40 N8P        45.9760   23.6110   60.1280 N.am      1 COA401      0.0000 
     41 C7P        45.6040   23.0710   61.4430 C.3       1 COA401      0.0000 
     42 C6P        44.5320   22.0130   61.2620 C.3       1 COA401      0.0000 
     43 C5P        43.2020   22.6520   60.9930 C.2       1 COA401      0.0000 
     44 O5P        42.7820   23.6920   61.6260 O.2       1 COA401      0.0000 
     45 N4P        42.5180   22.0340   60.0520 N.am      1 COA401      0.0000 
     46 C3P        41.1320   22.4260   59.5470 C.3       1 COA401      0.0000 
     47 C2P        40.1500   21.9540   60.6120 C.3       1 COA401      0.0000 
     48 S1P        40.1060   20.1180   60.8610 S.3       1 COA401      0.0000 
     49 H          47.5400   31.4570   60.2949 H         1 COA401      0.0000 
     50 H          49.3714   27.5449   61.7577 H         1 COA401      0.0000 
     51 H          50.3143   26.9891   60.3338 H         1 COA401      0.0000 
     52 H          48.8660   27.2092   55.6754 H         1 COA401      0.0000 
     53 H          46.8068   30.4212   55.7517 H         1 COA401      0.0000 
     54 H          49.3281   29.7552   54.3484 H         1 COA401      0.0000 
     55 H          48.5518   30.8792   52.5362 H         1 COA401      0.0000 
     56 H          46.0932   29.6529   52.6984 H         1 COA401      0.0000 
     57 H          48.8344   28.8503   52.0145 H         1 COA401      0.0000 
     58 H          47.3148   28.5114   51.1684 H         1 COA401      0.0000 
     59 H          45.6773   24.1350   54.7314 H         1 COA401      0.0000 
     60 H          46.7408   25.1312   55.7397 H         1 COA401      0.0000 
     61 H          47.9294   23.3843   57.5569 H         1 COA401      0.0000 
     62 H          45.6498   24.6071   59.9618 H         1 COA401      0.0000 
     63 H          45.2131   23.8592   62.0859 H         1 COA401      0.0000 
     64 H          46.4662   22.6162   61.9299 H         1 COA401      0.0000 
     65 H          44.4737   21.4050   62.1670 H         1 COA401      0.0000 
     66 H          44.8066   21.3653   60.4270 H         1 COA401      0.0000 
     67 H          42.8969   21.1750   59.5491 H         1 COA401      0.0000 
     68 H          40.9313   21.9263   58.6233 H         1 COA401      0.0000 
     69 H          41.0732   23.4889   59.4467 H         1 COA401      0.0000 
     70 H          39.1160   22.1599   60.3789 H         1 COA401      0.0000 
     71 H          40.3843   22.2963   61.6089 H         1 COA401      0.0000 
     72 H          44.5565   25.0032   57.3136 H         1 COA401      0.0000 
     73 H          43.8344   23.8921   56.4025 H         1 COA401      0.0000 
     74 H          44.1299   23.5912   57.9543 H         1 COA401      0.0000 
     75 H          46.6395   21.5332   56.0871 H         1 COA401      0.0000 
     76 H          45.3888   21.3798   57.0863 H         1 COA401      0.0000 
     77 H          45.1483   21.8223   55.5590 H         1 COA401      0.0000 
     78 H          48.3101   32.2725   55.2132 H         1 COA401      0.0000 
     79 H          47.6686   25.5175   57.5986 H         1 COA401      0.0000 
@<TRIPOS>BOND
     1    2    1 ar   
     2    6    1 ar   
     3    3    2 ar   
     4   49    2 1    
     5    4    3 ar   
     6    5    4 ar   
     7   10    4 1    
     8    6    5 ar   
     9    8    5 1    
    10    7    6 1    
    11   50    7 1    
    12   51    7 1    
    13    9    8 2    
    14   10    9 1    
    15   52    9 1    
    16   11   10 1    
    17   12   11 1    
    18   21   11 1    
    19   53   11 1    
    20   13   12 1    
    21   14   12 1    
    22   54   12 1    
    23   78   13 1    
    24   15   14 1    
    25   20   14 1    
    26   55   14 1    
    27   16   15 1    
    28   17   16 ar   
    29   18   16 ar   
    30   19   16 ar   
    31   21   20 1    
    32   22   20 1    
    33   56   20 1    
    34   23   22 1    
    35   57   22 1    
    36   58   22 1    
    37   24   23 1    
    38   25   24 ar   
    39   26   24 ar   
    40   27   24 1    
    41   28   27 1    
    42   29   28 ar   
    43   30   28 ar   
    44   31   28 1    
    45   33   31 1    
    46   33   32 1    
    47   34   32 1    
    48   35   32 1    
    49   36   32 1    
    50   59   33 1    
    51   60   33 1    
    52   72   34 1    
    53   73   34 1    
    54   74   34 1    
    55   75   35 1    
    56   76   35 1    
    57   77   35 1    
    58   37   36 1    
    59   38   36 1    
    60   61   36 1    
    61   79   37 1    
    62   39   38 2    
    63   40   38 am   
    64   41   40 1    
    65   62   40 1    
    66   42   41 1    
    67   63   41 1    
    68   64   41 1    
    69   43   42 1    
    70   65   42 1    
    71   66   42 1    
    72   44   43 2    
    73   45   43 am   
    74   46   45 1    
    75   67   45 1    
    76   47   46 1    
    77   68   46 1    
    78   69   46 1    
    79   48   47 1    
    80   70   47 1    
    81   71   47 1    
@<TRIPOS>SUBSTRUCTURE
     1 COA401      1 GROUP   
@<TRIPOS>SET

