#    Name: 1XTS_1_CAVITY_N1_6.mol2
#    Modification time : Mon Mar 10 19:16:45 2014

@<TRIPOS>MOLECULE
1XTS_1_CAVITY_N1_6.mol2
   95     0     7     0     0
SMALL
NO_CHARGES


@<TRIPOS>ATOM
      1 OD1       -15.6875   88.0550  -63.3747 O.3       3 ASP3        0.0000 
      2 CA        -16.7341   88.7199  -62.5305 C.3       6 GLY6        0.0000 
      3 CA        -16.5893   87.6394  -61.5001 C.3       6 GLY6        0.0000 
      4 CZ        -17.9254   90.4652  -62.7167 C.ar      5 PHE5        0.0000 
      5 DU        -17.7807   89.3847  -61.6863 H         7 CUB7        0.0000 
      6 CA        -17.6359   88.3043  -60.6559 C.3       6 GLY6        0.0000 
      7 CZ        -18.9720   91.1300  -61.8725 C.ar      5 PHE5        0.0000 
      8 DU        -18.8272   90.0496  -60.8421 H         7 CUB7        0.0000 
      9 CA        -18.6825   88.9692  -59.8117 C.3       6 GLY6        0.0000 
     10 N         -20.0186   91.7949  -61.0283 N.2       2 ALA2        0.0000 
     11 DU        -19.8738   90.7145  -59.9979 H         7 CUB7        0.0000 
     12 DU        -19.7291   89.6340  -58.9675 H         7 CUB7        0.0000 
     13 N         -21.0651   92.4598  -60.1841 N.2       2 ALA2        0.0000 
     14 DU        -20.9204   91.3793  -59.1537 H         7 CUB7        0.0000 
     15 CA        -22.1117   93.1246  -59.3399 C.3       6 GLY6        0.0000 
     16 NZ        -17.7989   87.9195  -63.2202 N.2       4 LYS4        0.0000 
     17 CA        -17.6541   86.8391  -62.1898 C.3       6 GLY6        0.0000 
     18 CZ        -18.8454   88.5844  -62.3760 C.ar      5 PHE5        0.0000 
     19 CA        -18.7007   87.5039  -61.3456 C.3       6 GLY6        0.0000 
     20 CZ        -20.0368   90.3297  -62.5622 C.ar      5 PHE5        0.0000 
     21 DU        -19.8920   89.2492  -61.5318 H         7 CUB7        0.0000 
     22 CA        -19.7473   88.1688  -60.5014 C.3       6 GLY6        0.0000 
     23 CA        -19.6025   87.0883  -59.4710 C.3       6 GLY6        0.0000 
     24 N         -21.2281   92.0750  -62.7484 N.2       2 ALA2        0.0000 
     25 DU        -21.0833   90.9945  -61.7180 H         7 CUB7        0.0000 
     26 DU        -20.9386   89.9141  -60.6876 H         7 CUB7        0.0000 
     27 OD1       -20.7938   88.8336  -59.6572 O.3       3 ASP3        0.0000 
     28 OD1       -20.6491   87.7532  -58.6268 O.3       3 ASP3        0.0000 
     29 N         -22.2746   92.7398  -61.9042 N.2       2 ALA2        0.0000 
     30 DU        -22.1299   91.6594  -60.8738 H         7 CUB7        0.0000 
     31 DU        -21.9851   90.5789  -59.8434 H         7 CUB7        0.0000 
     32 OD1       -21.8404   89.4985  -58.8130 O.3       3 ASP3        0.0000 
     33 OD1       -21.6956   88.4181  -57.7826 O.3       3 ASP3        0.0000 
     34 N         -23.3212   93.4047  -61.0600 N.2       2 ALA2        0.0000 
     35 CA        -23.1765   92.3242  -60.0296 C.3       6 GLY6        0.0000 
     36 OG        -23.0317   91.2438  -58.9992 O.2       1 SER1        0.0000 
     37 NZ        -18.8636   87.1191  -63.9098 N.2       4 LYS4        0.0000 
     38 NZ        -18.7189   86.0387  -62.8794 N.2       4 LYS4        0.0000 
     39 CZ        -19.9102   87.7840  -63.0656 C.ar      5 PHE5        0.0000 
     40 CA        -19.7655   86.7035  -62.0353 C.3       6 GLY6        0.0000 
     41 CZ        -21.1015   89.5293  -63.2518 C.ar      5 PHE5        0.0000 
     42 CA        -20.9568   88.4488  -62.2215 C.3       6 GLY6        0.0000 
     43 OG        -22.2928   91.2746  -63.4380 O.2       1 SER1        0.0000 
     44 OG        -22.1481   90.1941  -62.4077 O.2       1 SER1        0.0000 
     45 CA        -22.0033   89.1137  -61.3773 C.3       6 GLY6        0.0000 
     46 OG        -23.3394   91.9394  -62.5939 O.2       1 SER1        0.0000 
     47 OG        -23.1947   90.8590  -61.5635 O.2       1 SER1        0.0000 
     48 N         -23.0499   89.7786  -60.5331 N.2       2 ALA2        0.0000 
     49 N         -24.6755   94.7652  -63.8105 N.2       2 ALA2        0.0000 
     50 N         -24.5307   93.6847  -62.7801 N.2       2 ALA2        0.0000 
     51 CZ        -24.3860   92.6043  -61.7497 C.ar      5 PHE5        0.0000 
     52 CZ        -24.2412   91.5239  -60.7193 C.ar      5 PHE5        0.0000 
     53 OG        -24.0965   90.4434  -59.6889 O.2       1 SER1        0.0000 
     54 CA        -26.0116   97.5909  -65.0270 C.3       6 GLY6        0.0000 
     55 O         -25.8668   96.5105  -63.9967 O.2       2 ALA2        0.0000 
     56 O         -25.7221   95.4300  -62.9663 O.2       2 ALA2        0.0000 
     57 CZ        -25.5773   94.3496  -61.9359 C.ar      5 PHE5        0.0000 
     58 CZ        -25.2878   92.1887  -59.8751 C.ar      5 PHE5        0.0000 
     59 CA        -27.0581   98.2558  -64.1829 C.3       6 GLY6        0.0000 
     60 N         -26.9134   97.1754  -63.1525 N.2       2 ALA2        0.0000 
     61 NZ        -19.9284   86.3187  -64.5995 N.2       4 LYS4        0.0000 
     62 CZ        -21.1197   88.0640  -64.7857 C.ar      5 PHE5        0.0000 
     63 CA        -20.9750   86.9836  -63.7553 C.3       6 GLY6        0.0000 
     64 CZ        -22.1663   88.7289  -63.9415 C.ar      5 PHE5        0.0000 
     65 CA        -22.0215   87.6485  -62.9111 C.3       6 GLY6        0.0000 
     66 OG        -23.2129   89.3938  -63.0973 O.2       1 SER1        0.0000 
     67 CA        -24.2594   90.0586  -62.2532 C.3       6 GLY6        0.0000 
     68 N         -24.1147   88.9782  -61.2228 N.2       2 ALA2        0.0000 
     69 CA        -26.0298   96.1257  -66.5609 C.3       6 GLY6        0.0000 
     70 CA        -25.8850   95.0452  -65.5305 C.3       6 GLY6        0.0000 
     71 OG        -25.7403   93.9648  -64.5001 O.2       1 SER1        0.0000 
     72 OG        -25.5955   92.8844  -63.4697 O.2       1 SER1        0.0000 
     73 OG        -25.4508   91.8039  -62.4394 O.2       1 SER1        0.0000 
     74 N         -25.3060   90.7235  -61.4090 N.2       2 ALA2        0.0000 
     75 CA        -27.0763   96.7905  -65.7167 C.3       6 GLY6        0.0000 
     76 CA        -26.9316   95.7101  -64.6863 C.3       6 GLY6        0.0000 
     77 CA        -26.7868   94.6297  -63.6559 C.3       6 GLY6        0.0000 
     78 OD1       -26.6421   93.5492  -62.6256 O.3       3 ASP3        0.0000 
     79 CZ        -26.4973   92.4688  -61.5952 C.ar      5 PHE5        0.0000 
     80 CA        -26.3526   91.3884  -60.5648 C.3       6 GLY6        0.0000 
     81 N         -28.1229   97.4554  -64.8725 N.2       2 ALA2        0.0000 
     82 N         -27.9782   96.3750  -63.8422 N.2       2 ALA2        0.0000 
     83 CA        -22.1845   87.2637  -65.4754 C.3       6 GLY6        0.0000 
     84 N         -22.0397   86.1832  -64.4450 N.2       2 ALA2        0.0000 
     85 CA        -27.0945   95.3253  -67.2506 C.3       6 GLY6        0.0000 
     86 O         -26.6603   92.0840  -64.1594 O.2       2 ALA2        0.0000 
     87 CA        -26.5155   91.0035  -63.1290 C.3       6 GLY6        0.0000 
     88 CA        -28.1411   95.9902  -66.4064 C.3       6 GLY6        0.0000 
     89 CA        -27.7069   92.7488  -63.3152 C.3       6 GLY6        0.0000 
     90 OD1       -27.5621   91.6684  -62.2849 O.3       3 ASP3        0.0000 
     91 O         -27.4173   90.5880  -61.2545 O.2       2 ALA2        0.0000 
     92 OG        -29.1877   96.6550  -65.5622 O.2       1 SER1        0.0000 
     93 O         -28.4639   91.2528  -60.4103 O.2       2 ALA2        0.0000 
     94 O         -28.6269   90.8680  -62.9745 O.2       2 ALA2        0.0000 
     95 OD1       -29.6734   91.5329  -62.1303 O.3       3 ASP3        0.0000 
@<TRIPOS>BOND
@<TRIPOS>SUBSTRUCTURE
     1 SER1       36 GROUP   
     2 ALA2       10 GROUP   
     3 ASP3        1 GROUP   
     4 LYS4       16 GROUP   
     5 PHE5        4 GROUP   
     6 GLY6        2 GROUP   
     7 CUB7        5 GROUP   
@<TRIPOS>SET

