#    Name: 1xts_GTP_1_INTS_M
#    Modification time : Mon Apr  7 15:27:45 2014

@<TRIPOS>MOLECULE
1xts_GTP_1_INTS_M
   76     0    15     0     0
SMALL
NO_CHARGES


@<TRIPOS>ATOM
      1 N         -29.5385   93.0140  -57.7520 N.am      2 SEC2        0.0000 
      2 N         -30.6750   92.7950  -58.6370 N.am     12 SEL2        0.0000 
      3 N         -28.4020   93.2330  -56.8670 N.am      7 SEP2        0.0000 
      4 NZ        -31.7705   89.5000  -60.4705 N.4       3 LYC4        0.0000 
      5 NZ        -31.4980   90.7300  -59.9330 N.4      13 LYL4        0.0000 
      6 NZ        -32.0430   88.2700  -61.0080 N.4       8 LYP4        0.0000 
      7 N         -30.1025   90.1635  -59.0465 N.am      2 SEC2        0.0000 
      8 N         -31.4980   90.7300  -59.9330 N.am     12 SEL2        0.0000 
      9 N         -28.7070   89.5970  -58.1600 N.am      7 SEP2        0.0000 
     10 N         -31.7705   89.5000  -60.4705 N.am      2 SEC2        0.0000 
     11 N         -32.0430   88.2700  -61.0080 N.am      7 SEP2        0.0000 
     12 Zn        -30.5270   93.5250  -61.7610 Zn        4 ZIC7        0.0000 
     13 Zn        -31.3230   93.0010  -61.1160 Zn       14 ZIL7        0.0000 
     14 Zn        -29.7310   94.0490  -62.4060 Zn        9 ZIP7        0.0000 
     15 N         -31.5335   94.4870  -60.8580 N.am      2 SEC2        0.0000 
     16 N         -31.3230   93.0010  -61.1160 N.am     12 SEL2        0.0000 
     17 N         -31.7440   95.9730  -60.6000 N.am      7 SEP2        0.0000 
     18 N         -28.9460   90.6625  -59.3015 N.am      2 SEC2        0.0000 
     19 N         -29.1850   91.7280  -60.4430 N.am     12 SEL2        0.0000 
     20 Zn        -29.5485   92.8000  -62.6725 Zn        4 ZIC7        0.0000 
     21 Zn        -29.3660   91.5510  -62.9390 Zn       14 ZIL7        0.0000 
     22 N         -29.3180   91.1955  -64.3065 N.am      2 SEC2        0.0000 
     23 N         -29.3660   91.5510  -62.9390 N.am     12 SEL2        0.0000 
     24 N         -29.2700   90.8400  -65.6740 N.am      7 SEP2        0.0000 
     25 N         -30.5085   92.1170  -63.1945 N.am      2 SEC2        0.0000 
     26 N         -31.6510   92.6830  -63.4500 N.am      7 SEP2        0.0000 
     27 NZ        -30.8490   88.8870  -61.2340 N.4       3 LYC4        0.0000 
     28 NZ        -29.6550   89.5040  -61.4600 N.4      13 LYL4        0.0000 
     29 N         -29.2210   88.9795  -62.8865 N.am      2 SEC2        0.0000 
     30 N         -29.6550   89.5040  -61.4600 N.am     12 SEL2        0.0000 
     31 N         -28.7870   88.4550  -64.3130 N.am      7 SEP2        0.0000 
     32 N         -28.3205   88.6905  -61.8545 N.am      2 SEC2        0.0000 
     33 N         -26.9860   87.8770  -62.2490 N.am      7 SEP2        0.0000 
     34 N         -30.8490   88.8870  -61.2340 N.am      2 SEC2        0.0000 
     35 N         -26.5405   91.4265  -65.3140 N.am      2 SEC2        0.0000 
     36 N         -26.4540   91.3360  -63.9240 N.am     12 SEL2        0.0000 
     37 N         -26.6270   91.5170  -66.7040 N.am      7 SEP2        0.0000 
     38 N         -25.3535   91.4095  -64.5525 N.am      2 SEC2        0.0000 
     39 N         -24.2530   91.4830  -65.1810 N.am      7 SEP2        0.0000 
     40 N         -24.5925   91.2955  -63.5590 N.am      2 SEC2        0.0000 
     41 N         -24.9320   91.1080  -61.9370 N.am     12 SEL2        0.0000 
     42 CA        -25.9195   90.4245  -59.4860 C.3       5 GLC5        0.0000 
     43 CA        -24.5650   91.2960  -60.5660 C.3      15 GLL5        0.0000 
     44 CA        -27.2740   89.5530  -58.4060 C.3      10 GLP5        0.0000 
     45 CA        -25.2630   92.9240  -59.9010 C.3       5 GLC5        0.0000 
     46 CA        -25.9610   94.5520  -59.2360 C.3      10 GLP5        0.0000 
     47 CA        -22.9525   93.7980  -60.0880 C.3       5 GLC5        0.0000 
     48 CA        -22.3250   92.2050  -61.2100 C.3      15 GLL5        0.0000 
     49 CA        -23.5800   95.3910  -58.9660 C.3      10 GLP5        0.0000 
     50 O         -21.0065   93.0580  -64.4420 O.2       1 ALC1        0.0000 
     51 O         -20.9760   92.0330  -63.2070 O.2      11 ALL1        0.0000 
     52 O         -21.0370   94.0830  -65.6770 O.2       6 ALP1        0.0000 
     53 CA        -22.3435   88.2670  -61.1965 C.3       5 GLC5        0.0000 
     54 CA        -21.6750   90.0970  -61.9300 C.3      15 GLL5        0.0000 
     55 CA        -23.0120   86.4370  -60.4630 C.3      10 GLP5        0.0000 
     56 CA        -21.6560   85.9860  -63.0695 C.3       5 GLC5        0.0000 
     57 CA        -21.2340   87.3300  -64.2430 C.3      15 GLL5        0.0000 
     58 CA        -22.0780   84.6420  -61.8960 C.3      10 GLP5        0.0000 
     59 CA        -21.9065   87.7195  -66.0230 C.3       5 GLC5        0.0000 
     60 CA        -22.5790   88.1090  -67.8030 C.3      10 GLP5        0.0000 
     61 N         -19.7650   85.0015  -66.8015 N.am      2 SEC2        0.0000 
     62 N         -20.8190   85.6000  -65.6590 N.am     12 SEL2        0.0000 
     63 N         -18.7110   84.4030  -67.9440 N.am      7 SEP2        0.0000 
     64 N         -21.2625   85.7410  -66.9650 N.am      2 SEC2        0.0000 
     65 N         -21.7060   85.8820  -68.2710 N.am      7 SEP2        0.0000 
     66 O         -17.8190   85.6485  -64.3895 O.2       1 ALC1        0.0000 
     67 O         -19.0750   86.2810  -64.3400 O.2      11 ALL1        0.0000 
     68 O         -16.5630   85.0160  -64.4390 O.2       6 ALP1        0.0000 
     69 O         -18.6540   85.1990  -64.9460 O.2       1 ALC1        0.0000 
     70 O         -18.2330   84.1170  -65.5520 O.2       6 ALP1        0.0000 
     71 O         -16.9630   86.0700  -63.6945 O.2       1 ALC1        0.0000 
     72 O         -17.3630   87.1240  -62.9500 O.2      11 ALL1        0.0000 
     73 CA        -21.8740   87.3155  -61.8680 C.3       5 GLC5        0.0000 
     74 CA        -20.7360   88.1940  -63.2730 C.3      15 GLL5        0.0000 
     75 CA        -20.5008   90.7737  -63.8090 C.3       5 GLC5        0.0000 
     76 CA        -19.1220   90.7740  -65.3950 C.3      10 GLP5        0.0000 
@<TRIPOS>BOND
@<TRIPOS>SUBSTRUCTURE
     1 ALC1       50 GROUP        1 X    ALC  0     ROOT ALC X 1
     2 SEC2        1 GROUP        1 X    SEC  0     **** SEC X 2
     3 LYC4        4 GROUP        1 X    LYC  0     **** LYC X 4
     4 ZIC7       12 GROUP        1 X    ZIC  0     **** ZIC X 5
     5 GLC5       42 GROUP        1 X    GLC  0     **** GLC X 6
     6 ALP1       52 GROUP        1 Y    ALP  0     ROOT ALP Y 8
     7 SEP2        3 GROUP        1 Y    SEP  0     **** SEP Y 9
     8 LYP4        6 GROUP        1 Y    LYP  0     **** LYP Y 11
     9 ZIP7       14 GROUP        1 Y    ZIP  0     **** ZIP Y 12
    10 GLP5       44 GROUP        1 Y    GLP  0     **** GLP Y 13
    11 ALL1       51 GROUP        1 Z    ALL  0     ROOT ALL Z 15
    12 SEL2        2 GROUP        1 Z    SEL  0     **** SEL Z 16
    13 LYL4        5 GROUP        1 Z    LYL  0     **** LYL Z 18
    14 ZIL7       13 GROUP        1 Z    ZIL  0     **** ZIL Z 19
    15 GLL5       43 GROUP        1 Z    GLL  0     **** GLL Z 20
@<TRIPOS>SET

