#    Name: 1xts_GTP_1_ligand
#    Modification time : Mon Apr  7 15:27:45 2014

@<TRIPOS>MOLECULE
1xts_GTP_1_ligand
   44    46     1     0     0
SMALL
NO_CHARGES


@<TRIPOS>ATOM
      1 PG        -30.6680   92.1090  -59.9490 P.3       1 GTP179      0.0000 
      2 O1G       -30.6750   92.7950  -58.6370 O.co2     1 GTP179      0.0000 
      3 O2G       -31.4980   90.7300  -59.9330 O.co2     1 GTP179      0.0000 
      4 O3G       -31.3230   93.0010  -61.1160 O.co2     1 GTP179      0.0000 
      5 O3B       -29.1850   91.7280  -60.4430 O.3       1 GTP179      0.0000 
      6 PB        -28.9720   90.7880  -61.7330 P.3       1 GTP179      0.0000 
      7 O1B       -29.3660   91.5510  -62.9390 O.co2     1 GTP179      0.0000 
      8 O2B       -29.6550   89.5040  -61.4600 O.co2     1 GTP179      0.0000 
      9 O3A       -27.3810   90.5330  -61.7530 O.3       1 GTP179      0.0000 
     10 PA        -26.3790   91.5740  -62.4650 P.3       1 GTP179      0.0000 
     11 O1A       -26.6700   92.9330  -61.9540 O.co2     1 GTP179      0.0000 
     12 O2A       -26.4540   91.3360  -63.9240 O.co2     1 GTP179      0.0000 
     13 O5'       -24.9320   91.1080  -61.9370 O.3       1 GTP179      0.0000 
     14 C5'       -24.5650   91.2960  -60.5660 C.3       1 GTP179      0.0000 
     15 C4'       -23.0530   91.1480  -60.3760 C.3       1 GTP179      0.0000 
     16 O4'       -22.6500   89.8680  -60.8980 O.3       1 GTP179      0.0000 
     17 C3'       -22.3250   92.2050  -61.2100 C.3       1 GTP179      0.0000 
     18 O3'       -21.0800   92.5500  -60.5950 O.3       1 GTP179      0.0000 
     19 C2'       -22.0840   91.4500  -62.5160 C.3       1 GTP179      0.0000 
     20 O2'       -20.9760   92.0330  -63.2070 O.3       1 GTP179      0.0000 
     21 C1'       -21.6750   90.0970  -61.9300 C.3       1 GTP179      0.0000 
     22 N9        -21.7270   89.0180  -62.9450 N.pl3     1 GTP179      0.0000 
     23 C8        -22.7920   88.6910  -63.6740 C.2       1 GTP179      0.0000 
     24 N7        -22.5020   87.6620  -64.4660 N.2       1 GTP179      0.0000 
     25 C5        -21.2340   87.3300  -64.2430 C.2       1 GTP179      0.0000 
     26 C6        -20.4010   86.3600  -64.7850 C.2       1 GTP179      0.0000 
     27 O6        -20.8190   85.6000  -65.6590 O.2       1 GTP179      0.0000 
     28 N1        -19.0750   86.2810  -64.3400 N.am      1 GTP179      0.0000 
     29 C2        -18.6250   87.1790  -63.3640 C.2       1 GTP179      0.0000 
     30 N2        -17.3630   87.1240  -62.9500 N.pl3     1 GTP179      0.0000 
     31 N3        -19.4620   88.1000  -62.8610 N.2       1 GTP179      0.0000 
     32 C4        -20.7360   88.1940  -63.2730 C.2       1 GTP179      0.0000 
     33 H         -25.0564   90.5606  -59.9107 H         1 GTP179      0.0000 
     34 H         -24.8497   92.2958  -60.2040 H         1 GTP179      0.0000 
     35 H         -22.8026   91.2637  -59.3645 H         1 GTP179      0.0000 
     36 H         -22.9697   93.0003  -61.3884 H         1 GTP179      0.0000 
     37 H         -22.9569   91.3568  -63.0303 H         1 GTP179      0.0000 
     38 H         -20.7028   90.1974  -61.5137 H         1 GTP179      0.0000 
     39 H         -23.6635   89.1432  -63.6328 H         1 GTP179      0.0000 
     40 H         -18.4441   85.5769  -64.7228 H         1 GTP179      0.0000 
     41 H         -16.7840   86.4395  -63.3930 H         1 GTP179      0.0000 
     42 H         -17.1065   87.7721  -62.2329 H         1 GTP179      0.0000 
     43 H         -20.3867   92.3604  -61.2903 H         1 GTP179      0.0000 
     44 H         -21.3862   92.6119  -63.9117 H         1 GTP179      0.0000 
@<TRIPOS>BOND
     1    2    1 ar   
     2    3    1 ar   
     3    4    1 ar   
     4    5    1 1    
     5    6    5 1    
     6    7    6 ar   
     7    8    6 ar   
     8    9    6 1    
     9   10    9 1    
    10   11   10 ar   
    11   12   10 ar   
    12   13   10 1    
    13   14   13 1    
    14   15   14 1    
    15   33   14 1    
    16   34   14 1    
    17   16   15 1    
    18   17   15 1    
    19   35   15 1    
    20   21   16 1    
    21   18   17 1    
    22   19   17 1    
    23   36   17 1    
    24   43   18 1    
    25   20   19 1    
    26   21   19 1    
    27   37   19 1    
    28   44   20 1    
    29   22   21 1    
    30   38   21 1    
    31   23   22 1    
    32   32   22 1    
    33   24   23 2    
    34   39   23 1    
    35   25   24 1    
    36   26   25 1    
    37   32   25 2    
    38   27   26 2    
    39   28   26 am   
    40   29   28 1    
    41   40   28 1    
    42   30   29 1    
    43   31   29 2    
    44   41   30 1    
    45   42   30 1    
    46   32   31 1    
@<TRIPOS>SUBSTRUCTURE
     1 GTP179      1 GROUP   
@<TRIPOS>SET

