#    Name: 4efs_E37_1_INTS_M
#    Modification time : Mon Mar 24 17:42:51 2014

@<TRIPOS>MOLECULE
4efs_E37_1_INTS_M
   71     0     9     0     0
SMALL
NO_CHARGES


@<TRIPOS>ATOM
      1 CA        -11.7330  -27.6185    3.2965 C.3       3 GLC5        0.0000 
      2 CA        -10.1860  -27.0720    1.9680 C.3       9 GLL5        0.0000 
      3 CA        -13.2800  -28.1650    4.6250 C.3       6 GLP5        0.0000 
      4 CA        -11.9685  -24.2310   -0.1950 C.3       3 GLC5        0.0000 
      5 CA        -10.3330  -25.3640    0.2220 C.3       9 GLL5        0.0000 
      6 CA        -13.6040  -23.0980   -0.6120 C.3       6 GLP5        0.0000 
      7 Zn         -7.8280  -23.7330    0.0005 Zn        2 ZIC7        0.0000 
      8 Zn         -9.0960  -23.4750    0.3600 Zn        8 ZIL7        0.0000 
      9 Zn         -6.5600  -23.9910   -0.3590 Zn        5 ZIP7        0.0000 
     10 N          -9.3590  -22.5945    1.3270 N.am      1 SEC2        0.0000 
     11 N          -9.0960  -23.4750    0.3600 N.am      7 SEL2        0.0000 
     12 N          -9.6220  -21.7140    2.2940 N.am      4 SEP2        0.0000 
     13 Zn         -7.3315  -24.7495   -0.2145 Zn        2 ZIC7        0.0000 
     14 Zn         -8.1030  -25.5080   -0.0700 Zn        8 ZIL7        0.0000 
     15 N         -11.3710  -25.8545    4.9805 N.am      1 SEC2        0.0000 
     16 N         -10.1410  -25.5560    4.1930 N.am      7 SEL2        0.0000 
     17 N         -12.6010  -26.1530    5.7680 N.am      4 SEP2        0.0000 
     18 N         -11.5270  -24.6100    4.4560 N.am      1 SEC2        0.0000 
     19 N         -12.9130  -23.6640    4.7190 N.am      4 SEP2        0.0000 
     20 CA         -6.3445  -24.7100    7.2505 C.3       3 GLC5        0.0000 
     21 CA         -6.9000  -23.3640    5.7280 C.3       9 GLL5        0.0000 
     22 CA         -5.7890  -26.0560    8.7730 C.3       6 GLP5        0.0000 
     23 CA         -4.1635  -22.5485    4.1820 C.3       3 GLC5        0.0000 
     24 CA         -3.2180  -23.6510    5.7820 C.3       9 GLL5        0.0000 
     25 CA         -5.1090  -21.4460    2.5820 C.3       6 GLP5        0.0000 
     26 CA         -5.9865  -20.7625    7.2700 C.3       3 GLC5        0.0000 
     27 CA         -4.5670  -22.1230    7.2220 C.3       9 GLL5        0.0000 
     28 CA         -7.4060  -19.4020    7.3180 C.3       6 GLP5        0.0000 
     29 CA          1.9415  -22.4185    9.6080 C.3       3 GLC5        0.0000 
     30 CA          1.4210  -22.4890    7.6450 C.3       9 GLL5        0.0000 
     31 CA          2.4620  -22.3480   11.5710 C.3       6 GLP5        0.0000 
     32 CA          3.9585  -23.9220    6.2465 C.3       3 GLC5        0.0000 
     33 CA          1.9430  -23.6260    6.9480 C.3       9 GLL5        0.0000 
     34 CA          5.9740  -24.2180    5.5450 C.3       6 GLP5        0.0000 
     35 CA         -4.9865  -26.7065    4.6110 C.3       3 GLC5        0.0000 
     36 CA         -6.5880  -25.3740    3.8490 C.3       9 GLL5        0.0000 
     37 CA         -3.9410  -28.3400    5.0830 C.3       6 GLP5        0.0000 
     38 CA         -4.9798  -25.2030    6.4610 C.3       3 GLC5        0.0000 
     39 CA         -5.6330  -23.7420    5.3350 C.3       9 GLL5        0.0000 
     40 CA         -4.4050  -26.1490    8.0400 C.3       6 GLP5        0.0000 
     41 CA         -8.3878  -24.5165    6.9902 C.3       3 GLC5        0.0000 
     42 CA         -9.3230  -25.3710    8.5430 C.3       6 GLP5        0.0000 
     43 CA         -8.5128  -22.1255    6.1138 C.3       3 GLC5        0.0000 
     44 CA         -8.0050  -23.9600    5.1470 C.3       9 GLL5        0.0000 
     45 CA         -9.5730  -20.5890    6.7900 C.3       6 GLP5        0.0000 
     46 CA         -5.6681  -22.6283    3.9435 C.3       3 GLC5        0.0000 
     47 CA         -6.8763  -23.2689    3.2215 C.3       3 GLC5        0.0000 
     48 CA         -6.1380  -21.9750    1.8560 C.3       6 GLP5        0.0000 
     49 CA         -4.8015  -21.4763    5.0645 C.3       3 GLC5        0.0000 
     50 CA         -4.5370  -23.2040    5.9760 C.3       9 GLL5        0.0000 
     51 CA         -5.0510  -20.2890    3.5300 C.3       6 GLP5        0.0000 
     52 CA         -1.8533  -20.8470    6.1428 C.3       3 GLC5        0.0000 
     53 CA         -2.2160  -22.8650    6.8080 C.3       9 GLL5        0.0000 
     54 CA         -1.1180  -19.2560    5.0650 C.3       6 GLP5        0.0000 
     55 CA         -3.8465  -20.5560    8.7312 C.3       3 GLC5        0.0000 
     56 CA         -2.9610  -22.0110    7.6330 C.3       9 GLL5        0.0000 
     57 CA         -3.9290  -19.0450   10.0350 C.3       6 GLP5        0.0000 
     58 CA          0.1210  -21.7578    5.6050 C.3       3 GLC5        0.0000 
     59 CA         -0.7210  -23.0830    6.8700 C.3       9 GLL5        0.0000 
     60 CA          0.5850  -20.8580    3.9780 C.3       6 GLP5        0.0000 
     61 CA         -0.2990  -24.2152    8.6175 C.3       3 GLC5        0.0000 
     62 CA         -0.2550  -25.7730   10.0030 C.3       6 GLP5        0.0000 
     63 CA          1.1335  -21.9578    5.6372 C.3       3 GLC5        0.0000 
     64 CA          0.7135  -24.4153    8.6498 C.3       3 GLC5        0.0000 
     65 CA          0.4948  -22.5798    5.1128 C.3       3 GLC5        0.0000 
     66 CA          1.0580  -24.4700    6.2400 C.3       9 GLL5        0.0000 
     67 CA          0.6392  -25.2572    4.5578 C.3       3 GLC5        0.0000 
     68 CA         -0.2490  -24.1330    6.2550 C.3       9 GLL5        0.0000 
     69 CA          0.8740  -26.2130    2.8680 C.3       6 GLP5        0.0000 
     70 CA          0.0748  -25.0373    8.1253 C.3       3 GLC5        0.0000 
     71 CA         -3.9052  -24.3778    7.4627 C.3       3 GLC5        0.0000 
@<TRIPOS>BOND
@<TRIPOS>SUBSTRUCTURE
     1 SEC2       10 GROUP        1 X    SEC  0     ROOT SEC X 2
     2 ZIC7        7 GROUP        1 X    ZIC  0     **** ZIC X 5
     3 GLC5        1 GROUP        1 X    GLC  0     **** GLC X 6
     4 SEP2       12 GROUP        1 Y    SEP  0     ROOT SEP Y 9
     5 ZIP7        9 GROUP        1 Y    ZIP  0     **** ZIP Y 12
     6 GLP5        3 GROUP        1 Y    GLP  0     **** GLP Y 13
     7 SEL2       11 GROUP        1 Z    SEL  0     ROOT SEL Z 16
     8 ZIL7        8 GROUP        1 Z    ZIL  0     **** ZIL Z 19
     9 GLL5        2 GROUP        1 Z    GLL  0     **** GLL Z 20
@<TRIPOS>SET

