#    Name: 4efs_E37_1_ligand
#    Modification time : Mon Mar 24 17:42:51 2014

@<TRIPOS>MOLECULE
4efs_E37_1_ligand
   48    50     1     0     0
SMALL
NO_CHARGES


@<TRIPOS>ATOM
      1 O1        -10.8930  -29.3390    1.7520 O.2       1 E37306      0.0000 
      2 C6        -10.2010  -28.5480    2.3380 C.2       1 E37306      0.0000 
      3 N1         -9.3960  -29.0360    3.4060 N.am      1 E37306      0.0000 
      4 C7        -10.1860  -27.0720    1.9680 C.3       1 E37306      0.0000 
      5 C8        -10.2370  -26.8430    0.4900 C.3       1 E37306      0.0000 
      6 C9        -10.3330  -25.3640    0.2220 C.3       1 E37306      0.0000 
      7 C10        -8.9860  -24.6910    0.1580 C.2       1 E37306      0.0000 
      8 O4E        -9.0960  -23.4750    0.3600 O.co2     1 E37306      0.0000 
      9 O4         -8.1030  -25.5080   -0.0700 O.co2     1 E37306      0.0000 
     10 N2         -8.9920  -26.4170    2.4530 N.am      1 E37306      0.0000 
     11 C11        -9.0820  -25.6230    3.6290 C.2       1 E37306      0.0000 
     12 O2        -10.1410  -25.5560    4.1930 O.2       1 E37306      0.0000 
     13 C27        -7.8600  -24.9570    4.2050 C.ar      1 E37306      0.0000 
     14 C28        -6.5880  -25.3740    3.8490 C.ar      1 E37306      0.0000 
     15 C15        -5.4760  -24.7720    4.4290 C.ar      1 E37306      0.0000 
     16 C16        -5.6330  -23.7420    5.3350 C.ar      1 E37306      0.0000 
     17 C17        -6.9000  -23.3640    5.7280 C.ar      1 E37306      0.0000 
     18 C14        -8.0050  -23.9600    5.1470 C.ar      1 E37306      0.0000 
     19 C18        -4.5370  -23.2040    5.9760 C.2       1 E37306      0.0000 
     20 C19        -3.2180  -23.6510    5.7820 C.2       1 E37306      0.0000 
     21 C20        -2.2160  -22.8650    6.8080 C.2       1 E37306      0.0000 
     22 C29        -2.9610  -22.0110    7.6330 C.2       1 E37306      0.0000 
     23 S7         -4.5670  -22.1230    7.2220 S.3       1 E37306      0.0000 
     24 C21        -0.7210  -23.0830    6.8700 C.ar      1 E37306      0.0000 
     25 C22         0.0350  -22.2320    7.5940 C.ar      1 E37306      0.0000 
     26 C23         1.4210  -22.4890    7.6450 C.ar      1 E37306      0.0000 
     27 C24         1.9430  -23.6260    6.9480 C.ar      1 E37306      0.0000 
     28 C25         1.0580  -24.4700    6.2400 C.ar      1 E37306      0.0000 
     29 C26        -0.2490  -24.1330    6.2550 C.ar      1 E37306      0.0000 
     30 H          -8.8645  -28.3513    3.9048 H         1 E37306      0.0000 
     31 H          -9.4299  -30.0223    3.5674 H         1 E37306      0.0000 
     32 H         -11.0622  -26.5960    2.4133 H         1 E37306      0.0000 
     33 H         -11.1052  -27.3445    0.0685 H         1 E37306      0.0000 
     34 H          -9.3370  -27.2378    0.0241 H         1 E37306      0.0000 
     35 H         -10.9372  -24.8904    1.0130 H         1 E37306      0.0000 
     36 H         -10.8645  -25.2015   -0.7299 H         1 E37306      0.0000 
     37 H          -8.1234  -26.5271    1.9624 H         1 E37306      0.0000 
     38 H          -6.4633  -26.1252    3.1591 H         1 E37306      0.0000 
     39 H          -4.5301  -25.1005    4.1776 H         1 E37306      0.0000 
     40 H          -7.0248  -22.6414    6.4506 H         1 E37306      0.0000 
     41 H          -8.9561  -23.6512    5.4252 H         1 E37306      0.0000 
     42 H          -2.8548  -24.2676    5.2141 H         1 E37306      0.0000 
     43 H          -2.7421  -21.4443    8.3072 H         1 E37306      0.0000 
     44 H          -0.3470  -21.4363    8.0891 H         1 E37306      0.0000 
     45 H           2.0449  -21.8853    8.1633 H         1 E37306      0.0000 
     46 H           2.9376  -23.8159    6.9675 H         1 E37306      0.0000 
     47 H           1.4166  -25.2802    5.7551 H         1 E37306      0.0000 
     48 H          -0.9254  -24.7785    5.7243 H         1 E37306      0.0000 
@<TRIPOS>BOND
     1    2    1 2    
     2    3    2 am   
     3    4    2 1    
     4   30    3 1    
     5   31    3 1    
     6    5    4 1    
     7   10    4 1    
     8   32    4 1    
     9    6    5 1    
    10   33    5 1    
    11   34    5 1    
    12    7    6 1    
    13   35    6 1    
    14   36    6 1    
    15    8    7 ar   
    16    9    7 ar   
    17   11   10 am   
    18   37   10 1    
    19   12   11 2    
    20   13   11 1    
    21   14   13 ar   
    22   18   13 ar   
    23   15   14 ar   
    24   38   14 1    
    25   16   15 ar   
    26   39   15 1    
    27   17   16 ar   
    28   19   16 1    
    29   18   17 ar   
    30   40   17 1    
    31   41   18 1    
    32   20   19 2    
    33   23   19 1    
    34   21   20 1    
    35   42   20 1    
    36   22   21 2    
    37   24   21 1    
    38   23   22 1    
    39   43   22 1    
    40   25   24 ar   
    41   29   24 ar   
    42   26   25 ar   
    43   44   25 1    
    44   27   26 ar   
    45   45   26 1    
    46   28   27 ar   
    47   46   27 1    
    48   29   28 ar   
    49   47   28 1    
    50   48   29 1    
@<TRIPOS>SUBSTRUCTURE
     1 E37306      1 GROUP   
@<TRIPOS>SET

