#    Name: 3fne_8PC_4_INTS_M
#    Modification time : Tue Mar 25 06:09:07 2014

@<TRIPOS>MOLECULE
3fne_8PC_4_INTS_M
   62     0     9     0     0
SMALL
NO_CHARGES


@<TRIPOS>ATOM
      1 CA         47.2255   36.2000   37.1940 C.3       3 GLC5        0.0000 
      2 CA         45.7010   35.3060   37.9040 C.3       9 GLL5        0.0000 
      3 CA         48.7500   37.0940   36.4840 C.3       6 GLP5        0.0000 
      4 CA         45.1745   36.5220   36.3980 C.3       3 GLC5        0.0000 
      5 CA         44.6480   37.7380   34.8920 C.3       6 GLP5        0.0000 
      6 CA         47.4710   31.0560   34.6690 C.3       3 GLC5        0.0000 
      7 CA         47.2250   30.4770   36.3960 C.3       9 GLL5        0.0000 
      8 CA         47.7170   31.6350   32.9420 C.3       6 GLP5        0.0000 
      9 CA         47.3070   30.3950   38.2140 C.3       3 GLC5        0.0000 
     10 CA         47.3890   30.3130   40.0320 C.3       6 GLP5        0.0000 
     11 CA         48.8985   30.0055   36.4015 C.3       3 GLC5        0.0000 
     12 CA         50.5720   29.5340   36.4070 C.3       6 GLP5        0.0000 
     13 CA         44.9725   27.7330   40.1750 C.3       3 GLC5        0.0000 
     14 CA         43.2220   28.5210   39.0240 C.3       9 GLL5        0.0000 
     15 CA         46.7230   26.9450   41.3260 C.3       6 GLP5        0.0000 
     16 CA         43.5230   29.0585   40.7815 C.3       3 GLC5        0.0000 
     17 CA         43.8240   29.5960   42.5390 C.3       6 GLP5        0.0000 
     18 CA         40.1675   27.2505   35.5985 C.3       3 GLC5        0.0000 
     19 CA         41.1560   28.0410   37.2210 C.3       9 GLL5        0.0000 
     20 CA         39.1790   26.4600   33.9760 C.3       6 GLP5        0.0000 
     21 N          43.5060   28.9400   34.8220 N.am      2 SEC2        0.0000 
     22 N          42.4440   29.0860   35.4970 N.am      8 SEL2        0.0000 
     23 N          44.5680   28.7940   34.1470 N.am      5 SEP2        0.0000 
     24 O          41.4055   29.3465   34.8895 O.2       1 ALC1        0.0000 
     25 O          42.4440   29.0860   35.4970 O.2       7 ALL1        0.0000 
     26 O          40.3670   29.6070   34.2820 O.2       4 ALP1        0.0000 
     27 CA         38.7495   25.8015   37.9875 C.3       3 GLC5        0.0000 
     28 CA         39.7540   26.9370   38.9970 C.3       9 GLL5        0.0000 
     29 CA         37.7450   24.6660   36.9780 C.3       6 GLP5        0.0000 
     30 CA         39.2060   25.2880   40.1645 C.3       3 GLC5        0.0000 
     31 CA         38.6580   23.6390   41.3320 C.3       6 GLP5        0.0000 
     32 CA         40.9580   25.6430   37.8670 C.3       3 GLC5        0.0000 
     33 CA         42.1620   24.3490   36.7370 C.3       6 GLP5        0.0000 
     34 CA         39.9595   28.1925   42.2895 C.3       3 GLC5        0.0000 
     35 CA         37.8490   28.6400   41.7070 C.3       9 GLL5        0.0000 
     36 CA         42.0700   27.7450   42.8720 C.3       6 GLP5        0.0000 
     37 CA         46.5177   34.1595   35.9108 C.3       3 GLC5        0.0000 
     38 CA         45.2260   33.6020   37.7420 C.3       9 GLL5        0.0000 
     39 CA         47.3270   35.1280   34.3380 C.3       6 GLP5        0.0000 
     40 CA         46.7203   31.2130   38.5907 C.3       3 GLC5        0.0000 
     41 CA         46.1910   32.7800   37.2250 C.3       9 GLL5        0.0000 
     42 CA         44.5530   31.5680   35.2170 C.3       3 GLC5        0.0000 
     43 CA         45.9120   31.4460   37.0740 C.3       9 GLL5        0.0000 
     44 CA         43.8080   31.9600   33.1830 C.3       6 GLP5        0.0000 
     45 CA         45.3715   29.4890   35.9275 C.3       3 GLC5        0.0000 
     46 CA         45.4450   27.8020   34.6040 C.3       6 GLP5        0.0000 
     47 CA         45.7903   30.8197   38.8625 C.3       3 GLC5        0.0000 
     48 CA         44.6840   30.9060   37.4280 C.3       9 GLL5        0.0000 
     49 CA         42.2680   33.3785   38.0312 C.3       3 GLC5        0.0000 
     50 CA         43.6990   31.7470   37.9580 C.3       9 GLL5        0.0000 
     51 CA         40.6970   34.3330   38.0250 C.3       6 GLP5        0.0000 
     52 CA         44.1382   28.3032   35.9235 C.3       3 GLC5        0.0000 
     53 CA         43.3480   28.9210   37.6930 C.3       9 GLL5        0.0000 
     54 CA         41.8033   27.7563   40.9368 C.3       3 GLC5        0.0000 
     55 CA         42.0560   27.8900   39.4510 C.3       9 GLL5        0.0000 
     56 CA         36.9592   30.3250   42.5673 C.3       3 GLC5        0.0000 
     57 CA         36.4580   31.5480   43.7800 C.3       6 GLP5        0.0000 
     58 CA         36.8062   30.6715   38.0812 C.3       3 GLC5        0.0000 
     59 CA         37.1680   29.6370   39.6190 C.3       9 GLL5        0.0000 
     60 CA         36.0070   32.1380   36.8660 C.3       6 GLP5        0.0000 
     61 CA         35.7466   28.0682   40.6594 C.3       3 GLC5        0.0000 
     62 CA         34.1790   26.7670   40.8320 C.3       6 GLP5        0.0000 
@<TRIPOS>BOND
@<TRIPOS>SUBSTRUCTURE
     1 ALC1       24 GROUP        1 X    ALC  0     ROOT ALC X 1
     2 SEC2       21 GROUP        1 X    SEC  0     **** SEC X 2
     3 GLC5        1 GROUP        1 X    GLC  0     **** GLC X 6
     4 ALP1       26 GROUP        1 Y    ALP  0     ROOT ALP Y 8
     5 SEP2       23 GROUP        1 Y    SEP  0     **** SEP Y 9
     6 GLP5        3 GROUP        1 Y    GLP  0     **** GLP Y 13
     7 ALL1       25 GROUP        1 Z    ALL  0     ROOT ALL Z 15
     8 SEL2       22 GROUP        1 Z    SEL  0     **** SEL Z 16
     9 GLL5        2 GROUP        1 Z    GLL  0     **** GLL Z 20
@<TRIPOS>SET

