#    Name: 3fne_8PC_4_ligand
#    Modification time : Tue Mar 25 06:09:07 2014

@<TRIPOS>MOLECULE
3fne_8PC_4_ligand
   36    38     1     0     0
SMALL
NO_CHARGES


@<TRIPOS>ATOM
      1 CL1        45.7010   35.3060   37.9040 Cl        1 8PC430      0.0000 
      2 C17        45.2260   33.6020   37.7420 C.ar      1 8PC430      0.0000 
      3 C16        46.1910   32.7800   37.2250 C.ar      1 8PC430      0.0000 
      4 C15        45.9120   31.4460   37.0740 C.ar      1 8PC430      0.0000 
      5 CL2        47.2250   30.4770   36.3960 Cl        1 8PC430      0.0000 
      6 C14        44.6840   30.9060   37.4280 C.ar      1 8PC430      0.0000 
      7 C19        43.6990   31.7470   37.9580 C.ar      1 8PC430      0.0000 
      8 C22        43.9790   33.1010   38.1170 C.ar      1 8PC430      0.0000 
      9 O13        44.4810   29.5550   37.2550 O.3       1 8PC430      0.0000 
     10 C2         43.3480   28.9210   37.6930 C.ar      1 8PC430      0.0000 
     11 C3         43.2220   28.5210   39.0240 C.ar      1 8PC430      0.0000 
     12 C4         42.0560   27.8900   39.4510 C.ar      1 8PC430      0.0000 
     13 C5         41.0170   27.6450   38.5520 C.ar      1 8PC430      0.0000 
     14 C6         41.1560   28.0410   37.2210 C.ar      1 8PC430      0.0000 
     15 C1         42.3150   28.6880   36.7930 C.ar      1 8PC430      0.0000 
     16 O22        42.4440   29.0860   35.4970 O.3       1 8PC430      0.0000 
     17 C7         39.7540   26.9370   38.9970 C.3       1 8PC430      0.0000 
     18 C23        38.8030   27.8670   39.7070 C.ar      1 8PC430      0.0000 
     19 N24        38.6880   27.8060   41.0580 N.ar      1 8PC430      0.0000 
     20 C25        37.8490   28.6400   41.7070 C.ar      1 8PC430      0.0000 
     21 C26        37.0720   29.5640   41.0020 C.ar      1 8PC430      0.0000 
     22 C27        37.1680   29.6370   39.6190 C.ar      1 8PC430      0.0000 
     23 C28        38.0430   28.7730   38.9740 C.ar      1 8PC430      0.0000 
     24 H          47.1082   33.1549   36.9547 H         1 8PC430      0.0000 
     25 H          42.7890   31.3693   38.2232 H         1 8PC430      0.0000 
     26 H          43.2701   33.7314   38.5094 H         1 8PC430      0.0000 
     27 H          43.9873   28.6919   39.6857 H         1 8PC430      0.0000 
     28 H          41.9589   27.6023   40.4347 H         1 8PC430      0.0000 
     29 H          40.3970   27.8539   36.5503 H         1 8PC430      0.0000 
     30 H          40.0225   26.1095   39.6665 H         1 8PC430      0.0000 
     31 H          39.2551   26.5060   38.1193 H         1 8PC430      0.0000 
     32 H          37.7639   28.6120   42.7426 H         1 8PC430      0.0000 
     33 H          36.4325   30.1859   41.5105 H         1 8PC430      0.0000 
     34 H          36.6121   30.3057   39.0919 H         1 8PC430      0.0000 
     35 H          38.1307   28.8021   37.9475 H         1 8PC430      0.0000 
     36 H          41.5585   29.4855   35.2597 H         1 8PC430      0.0000 
@<TRIPOS>BOND
     1    2    1 1    
     2    3    2 ar   
     3    8    2 ar   
     4    4    3 ar   
     5   24    3 1    
     6    5    4 1    
     7    6    4 ar   
     8    7    6 ar   
     9    9    6 1    
    10    8    7 ar   
    11   25    7 1    
    12   26    8 1    
    13   10    9 1    
    14   11   10 ar   
    15   15   10 ar   
    16   12   11 ar   
    17   27   11 1    
    18   13   12 ar   
    19   28   12 1    
    20   14   13 ar   
    21   17   13 1    
    22   15   14 ar   
    23   29   14 1    
    24   16   15 1    
    25   36   16 1    
    26   18   17 1    
    27   30   17 1    
    28   31   17 1    
    29   19   18 ar   
    30   23   18 ar   
    31   20   19 ar   
    32   21   20 ar   
    33   32   20 1    
    34   22   21 ar   
    35   33   21 1    
    36   23   22 ar   
    37   34   22 1    
    38   35   23 1    
@<TRIPOS>SUBSTRUCTURE
     1 8PC430      1 GROUP   
@<TRIPOS>SET

