#    Name: 2EWS_1_CAVITY_N1_ALL.mol2
#    Modification time : Tue Mar 11 11:19:56 2014

@<TRIPOS>MOLECULE
2EWS_1_CAVITY_N1_ALL.mol2
   93     0     7     0     0
SMALL
NO_CHARGES


@<TRIPOS>ATOM
      1 O          17.7307   21.8865    3.1610 O.2       2 ALA2        0.0000 
      2 CA         18.8250   21.2949    2.3229 C.3       6 GLY6        0.0000 
      3 O          18.3689   22.1119    1.1505 O.2       2 ALA2        0.0000 
      4 O          19.4632   21.5203    0.3124 O.2       2 ALA2        0.0000 
      5 CA         18.6495   22.9967    3.5771 C.3       6 GLY6        0.0000 
      6 DU         19.7439   22.4050    2.7390 H         7 CUB7        0.0000 
      7 NZ         20.8382   21.8134    1.9009 N.2       4 LYS4        0.0000 
      8 O          18.1934   23.8137    2.4048 O.2       2 ALA2        0.0000 
      9 O          19.2877   23.2221    1.5667 O.2       2 ALA2        0.0000 
     10 NZ         20.3821   22.6305    0.7286 N.2       4 LYS4        0.0000 
     11 O          17.7373   24.6307    1.2325 O.2       2 ALA2        0.0000 
     12 O          18.8316   24.0391    0.3944 O.2       2 ALA2        0.0000 
     13 OG         18.3754   24.8561   -0.7780 O.2       1 SER1        0.0000 
     14 CA         19.5684   24.1068    3.9933 C.3       6 GLY6        0.0000 
     15 DU         20.6628   23.5152    3.1552 H         7 CUB7        0.0000 
     16 NZ         21.7571   22.9236    2.3171 N.2       4 LYS4        0.0000 
     17 CA         19.1123   24.9238    2.8210 C.3       6 GLY6        0.0000 
     18 DU         20.2066   24.3322    1.9829 H         7 CUB7        0.0000 
     19 NZ         21.3010   23.7406    1.1448 N.2       4 LYS4        0.0000 
     20 NZ         22.3953   23.1490    0.3067 N.2       4 LYS4        0.0000 
     21 OG         18.6561   25.7409    1.6486 O.2       1 SER1        0.0000 
     22 DU         19.7505   25.1493    0.8105 H         7 CUB7        0.0000 
     23 OD1        20.8448   24.5577   -0.0276 O.3       3 ASP3        0.0000 
     24 NZ         21.9392   23.9661   -0.8657 N.2       4 LYS4        0.0000 
     25 OG         19.2943   25.9663   -0.3618 O.2       1 SER1        0.0000 
     26 OD1        20.3887   25.3747   -1.1999 O.3       3 ASP3        0.0000 
     27 OD1        21.4830   24.7831   -2.0380 O.3       3 ASP3        0.0000 
     28 OD1        19.9325   26.1917   -2.3723 O.3       3 ASP3        0.0000 
     29 OD1        21.0269   25.6001   -3.2104 O.3       3 ASP3        0.0000 
     30 CA         20.4873   25.2170    4.4095 C.3       6 GLY6        0.0000 
     31 CA         21.5817   24.6254    3.5714 C.3       6 GLY6        0.0000 
     32 DU         22.6760   24.0338    2.7333 H         7 CUB7        0.0000 
     33 NZ         23.7703   23.4421    1.8952 N.2       4 LYS4        0.0000 
     34 CA         20.0312   26.0340    3.2371 C.3       6 GLY6        0.0000 
     35 DU         21.1255   25.4424    2.3990 H         7 CUB7        0.0000 
     36 DU         22.2198   24.8508    1.5609 H         7 CUB7        0.0000 
     37 NZ         23.3142   24.2592    0.7228 N.2       4 LYS4        0.0000 
     38 NZ         24.4085   23.6676   -0.1153 N.2       4 LYS4        0.0000 
     39 CA         19.5750   26.8510    2.0648 C.3       6 GLY6        0.0000 
     40 DU         20.6694   26.2594    1.2267 H         7 CUB7        0.0000 
     41 DU         21.7637   25.6678    0.3886 H         7 CUB7        0.0000 
     42 NZ         22.8580   25.0762   -0.4495 N.2       4 LYS4        0.0000 
     43 NZ         23.9524   24.4846   -1.2876 N.2       4 LYS4        0.0000 
     44 NZ         25.0467   23.8930   -2.1257 N.2       4 LYS4        0.0000 
     45 O          20.2132   27.0765    0.0544 O.2       2 ALA2        0.0000 
     46 DU         21.3076   26.4849   -0.7837 H         7 CUB7        0.0000 
     47 OD1        22.4019   25.8932   -1.6218 O.3       3 ASP3        0.0000 
     48 O          23.4962   25.3016   -2.4600 O.2       2 ALA2        0.0000 
     49 O          20.8514   27.3019   -1.9561 O.2       2 ALA2        0.0000 
     50 N          21.9458   26.7103   -2.7942 N.2       2 ALA2        0.0000 
     51 CA         21.4062   26.3271    4.8257 C.3       6 GLY6        0.0000 
     52 DU         22.5005   25.7355    3.9876 H         7 CUB7        0.0000 
     53 CZ         24.6892   24.5523    2.3113 C.ar      5 PHE5        0.0000 
     54 CZ         25.7836   23.9607    1.4732 C.ar      5 PHE5        0.0000 
     55 CA         20.9501   27.1442    3.6533 C.3       6 GLY6        0.0000 
     56 DU         22.0444   26.5526    2.8152 H         7 CUB7        0.0000 
     57 DU         24.2331   25.3693    1.1390 H         7 CUB7        0.0000 
     58 CZ         25.3274   24.7777    0.3009 C.ar      5 PHE5        0.0000 
     59 N          20.4939   27.9612    2.4810 N.2       2 ALA2        0.0000 
     60 O          21.5882   27.3696    1.6429 O.2       2 ALA2        0.0000 
     61 DU         22.6826   26.7780    0.8048 H         7 CUB7        0.0000 
     62 CA         23.7769   26.1864   -0.0333 C.3       6 GLY6        0.0000 
     63 CA         24.8713   25.5948   -0.8714 C.3       6 GLY6        0.0000 
     64 O          21.1321   28.1866    0.4705 O.2       2 ALA2        0.0000 
     65 N          22.2264   27.5950   -0.3676 N.2       2 ALA2        0.0000 
     66 CA         23.3208   27.0034   -1.2057 C.3       6 GLY6        0.0000 
     67 CA         24.4151   26.4118   -2.0438 C.3       6 GLY6        0.0000 
     68 N          22.8646   27.8204   -2.3780 N.2       2 ALA2        0.0000 
     69 CA         22.3251   27.4373    5.2418 C.3       6 GLY6        0.0000 
     70 DU         23.4194   26.8457    4.4037 H         7 CUB7        0.0000 
     71 DU         24.5138   26.2541    3.5656 H         7 CUB7        0.0000 
     72 O          25.6081   25.6625    2.7275 O.2       2 ALA2        0.0000 
     73 CA         21.8689   28.2543    4.0695 C.3       6 GLY6        0.0000 
     74 DU         22.9633   27.6627    3.2314 H         7 CUB7        0.0000 
     75 DU         24.0576   27.0711    2.3933 H         7 CUB7        0.0000 
     76 CA         25.1520   26.4795    1.5552 C.3       6 GLY6        0.0000 
     77 OG         26.2463   25.8879    0.7171 O.2       1 SER1        0.0000 
     78 N          22.5071   28.4797    2.0590 N.2       2 ALA2        0.0000 
     79 DU         23.6015   27.8881    1.2209 H         7 CUB7        0.0000 
     80 CA         24.6958   27.2965    0.3828 C.3       6 GLY6        0.0000 
     81 O          23.1453   28.7052    0.0486 O.2       2 ALA2        0.0000 
     82 O          24.2397   28.1136   -0.7895 O.2       2 ALA2        0.0000 
     83 CA         23.2440   28.5474    5.6580 C.3       6 GLY6        0.0000 
     84 DU         24.3383   27.9558    4.8199 H         7 CUB7        0.0000 
     85 O          25.4326   27.3642    3.9818 O.2       2 ALA2        0.0000 
     86 CA         23.8822   28.7729    3.6476 C.3       6 GLY6        0.0000 
     87 O          24.9765   28.1813    2.8095 O.2       2 ALA2        0.0000 
     88 N          23.4260   29.5899    2.4752 N.2       2 ALA2        0.0000 
     89 N          24.5204   28.9983    1.6371 N.2       2 ALA2        0.0000 
     90 CA         25.6147   28.4067    0.7990 C.3       6 GLY6        0.0000 
     91 O          25.2572   29.0660    5.2361 O.2       2 ALA2        0.0000 
     92 N          24.8011   29.8830    4.0637 N.2       2 ALA2        0.0000 
     93 O          25.8954   29.2914    3.2256 O.2       2 ALA2        0.0000 
@<TRIPOS>BOND
@<TRIPOS>SUBSTRUCTURE
     1 SER1       13 GROUP   
     2 ALA2        1 GROUP   
     3 ASP3       23 GROUP   
     4 LYS4        7 GROUP   
     5 PHE5       53 GROUP   
     6 GLY6        2 GROUP   
     7 CUB7        6 GROUP   
@<TRIPOS>SET

