#    Name: 2ews_ANP_1_INTS_M
#    Modification time : Tue Mar 25 12:10:01 2014

@<TRIPOS>MOLECULE
2ews_ANP_1_INTS_M
   79     0    15     0     0
SMALL
NO_CHARGES


@<TRIPOS>ATOM
      1 N          17.2680   22.9235    0.1710 N.am      2 SEC2        0.0000 
      2 N          18.6610   23.2060    0.0600 N.am     12 SEL2        0.0000 
      3 N          15.8750   22.6410    0.2820 N.am      7 SEP2        0.0000 
      4 Zn         20.1190   23.7550   -2.3780 Zn        4 ZIC7        0.0000 
      5 Zn         20.3230   24.1550   -1.3870 Zn       14 ZIL7        0.0000 
      6 Zn         19.9150   23.3550   -3.3690 Zn        9 ZIP7        0.0000 
      7 NZ         17.1430   23.1205   -4.4970 N.4       3 LYC4        0.0000 
      8 NZ         17.7180   23.6320   -3.3500 N.4      13 LYL4        0.0000 
      9 NZ         16.5680   22.6090   -5.6440 N.4       8 LYP4        0.0000 
     10 Zn         18.8165   23.4935   -3.3595 Zn        4 ZIC7        0.0000 
     11 Zn         17.7180   23.6320   -3.3500 Zn       14 ZIL7        0.0000 
     12 N          17.1430   23.1205   -4.4970 N.am      2 SEC2        0.0000 
     13 N          17.7180   23.6320   -3.3500 N.am     12 SEL2        0.0000 
     14 N          16.5680   22.6090   -5.6440 N.am      7 SEP2        0.0000 
     15 NZ         16.1165   23.6460   -4.1145 N.4       3 LYC4        0.0000 
     16 NZ         15.6650   24.6830   -2.5850 N.4      13 LYL4        0.0000 
     17 N          14.7605   24.5020   -1.5805 N.am      2 SEC2        0.0000 
     18 N          15.6650   24.6830   -2.5850 N.am     12 SEL2        0.0000 
     19 N          13.8560   24.3210   -0.5760 N.am      7 SEP2        0.0000 
     20 N          14.3600   24.2790   -2.9585 N.am      2 SEC2        0.0000 
     21 N          13.0550   23.8750   -3.3320 N.am      7 SEP2        0.0000 
     22 N          18.3540   26.8990   -7.4915 N.am      2 SEC2        0.0000 
     23 N          18.5210   26.1740   -6.1390 N.am     12 SEL2        0.0000 
     24 N          18.1870   27.6240   -8.8440 N.am      7 SEP2        0.0000 
     25 N          17.3730   25.9340   -7.3550 N.am      2 SEC2        0.0000 
     26 N          16.2250   25.6940   -8.5710 N.am      7 SEP2        0.0000 
     27 NZ         16.3550   23.9425   -5.7255 N.4       3 LYC4        0.0000 
     28 NZ         16.1420   25.2760   -5.8070 N.4      13 LYL4        0.0000 
     29 N          16.3550   23.9425   -5.7255 N.am      2 SEC2        0.0000 
     30 N          16.1420   25.2760   -5.8070 N.am     12 SEL2        0.0000 
     31 N          16.1835   25.4850   -7.1890 N.am      2 SEC2        0.0000 
     32 N          17.8950   27.4595   -2.9725 N.am      2 SEC2        0.0000 
     33 N          17.4840   26.0520   -3.7800 N.am     12 SEL2        0.0000 
     34 N          18.3060   28.8670   -2.1650 N.am      7 SEP2        0.0000 
     35 CA         14.2915   27.2725   -3.2065 C.3       5 GLC5        0.0000 
     36 CA         15.4000   28.0970   -4.7860 C.3      15 GLL5        0.0000 
     37 CA         13.1830   26.4480   -1.6270 C.3      10 GLP5        0.0000 
     38 CA         13.9455   26.7205   -5.4145 C.3       5 GLC5        0.0000 
     39 CA         12.4910   25.3440   -6.0430 C.3      10 GLP5        0.0000 
     40 CA         17.4350   28.4170   -4.5380 C.3       5 GLC5        0.0000 
     41 CA         19.4700   28.7370   -4.2900 C.3      10 GLP5        0.0000 
     42 CA         15.9140   30.5635   -6.8280 C.3       5 GLC5        0.0000 
     43 CA         15.0090   29.5140   -5.2090 C.3      15 GLL5        0.0000 
     44 CA         16.8190   31.6130   -8.4470 C.3      10 GLP5        0.0000 
     45 CA         12.8710   28.6480   -3.2720 C.3       5 GLC5        0.0000 
     46 CA         13.7730   30.0210   -4.5170 C.3      15 GLL5        0.0000 
     47 CA         11.9690   27.2750   -2.0270 C.3      10 GLP5        0.0000 
     48 O          12.8305   30.9460   -2.9710 O.2       1 ALC1        0.0000 
     49 O          14.1130   30.6520   -3.2790 O.2      11 ALL1        0.0000 
     50 O          11.5480   31.2400   -2.6630 O.2       6 ALP1        0.0000 
     51 CA         12.1710   32.2145   -4.4445 C.3       5 GLC5        0.0000 
     52 CA         13.1940   30.8980   -5.5660 C.3      15 GLL5        0.0000 
     53 CA         11.1480   33.5310   -3.3230 C.3      10 GLP5        0.0000 
     54 O          14.0785   33.0960   -4.1945 O.2       1 ALC1        0.0000 
     55 O          13.7740   32.2250   -5.4620 O.2      11 ALL1        0.0000 
     56 O          14.3830   33.9670   -2.9270 O.2       6 ALP1        0.0000 
     57 CA         14.7085   28.6635   -7.7285 C.3       5 GLC5        0.0000 
     58 CA         13.5820   30.2670   -6.8540 C.3      15 GLL5        0.0000 
     59 CA         15.8350   27.0600   -8.6030 C.3      10 GLP5        0.0000 
     60 CA         15.2005   30.9400   -7.6505 C.3       5 GLC5        0.0000 
     61 CA         10.1150   26.7780   -6.9215 C.3       5 GLC5        0.0000 
     62 CA          9.2450   28.1130   -8.0040 C.3      15 GLL5        0.0000 
     63 CA         10.9850   25.4430   -5.8390 C.3      10 GLP5        0.0000 
     64 CA          8.2965   26.6190   -6.8565 C.3       5 GLC5        0.0000 
     65 CA          7.3480   25.1250   -5.7090 C.3      10 GLP5        0.0000 
     66 CA          8.4395   30.0125   -7.7100 C.3       5 GLC5        0.0000 
     67 CA          7.6340   31.9120   -7.4160 C.3      10 GLP5        0.0000 
     68 CA         10.2445   27.2475   -5.8040 C.3       5 GLC5        0.0000 
     69 CA          9.5040   29.0520   -5.7690 C.3      15 GLL5        0.0000 
     70 CA          8.4260   27.0885   -5.7390 C.3       5 GLC5        0.0000 
     71 CA          8.5690   30.4820   -6.5925 C.3       5 GLC5        0.0000 
     72 CA         15.5198   27.9327   -6.8003 C.3       5 GLC5        0.0000 
     73 CA         15.1227   31.8004   -4.5488 C.3       5 GLC5        0.0000 
     74 CA         16.4530   33.2680   -3.8830 C.3      10 GLP5        0.0000 
     75 CA         12.3530   31.7028   -7.0175 C.3       5 GLC5        0.0000 
     76 CA         11.3180   32.8230   -7.8250 C.3      10 GLP5        0.0000 
     77 CA         11.9000   27.3135   -7.5745 C.3       5 GLC5        0.0000 
     78 CA         11.2640   29.2070   -7.1690 C.3      15 GLL5        0.0000 
     79 CA         12.8570   25.7430   -7.4620 C.3      10 GLP5        0.0000 
@<TRIPOS>BOND
@<TRIPOS>SUBSTRUCTURE
     1 ALC1       48 GROUP        1 X    ALC  0     ROOT ALC X 1
     2 SEC2        1 GROUP        1 X    SEC  0     **** SEC X 2
     3 LYC4        7 GROUP        1 X    LYC  0     **** LYC X 4
     4 ZIC7        4 GROUP        1 X    ZIC  0     **** ZIC X 5
     5 GLC5       35 GROUP        1 X    GLC  0     **** GLC X 6
     6 ALP1       50 GROUP        1 Y    ALP  0     ROOT ALP Y 8
     7 SEP2        3 GROUP        1 Y    SEP  0     **** SEP Y 9
     8 LYP4        9 GROUP        1 Y    LYP  0     **** LYP Y 11
     9 ZIP7        6 GROUP        1 Y    ZIP  0     **** ZIP Y 12
    10 GLP5       37 GROUP        1 Y    GLP  0     **** GLP Y 13
    11 ALL1       49 GROUP        1 Z    ALL  0     ROOT ALL Z 15
    12 SEL2        2 GROUP        1 Z    SEL  0     **** SEL Z 16
    13 LYL4        8 GROUP        1 Z    LYL  0     **** LYL Z 18
    14 ZIL7        5 GROUP        1 Z    ZIL  0     **** ZIL Z 19
    15 GLL5       36 GROUP        1 Z    GLL  0     **** GLL Z 20
@<TRIPOS>SET

