#    Name: 2ews_ANP_1_ligand
#    Modification time : Tue Mar 25 12:10:02 2014

@<TRIPOS>MOLECULE
2ews_ANP_1_ligand
   42    44     1     0     0
SMALL
NO_CHARGES


@<TRIPOS>ATOM
      1 PG         19.1260   24.5240   -0.4790 P.3       1 ANP1001     0.0000 
      2 O1G        19.5070   25.4890    0.6100 O.co2     1 ANP1001     0.0000 
      3 O2G        18.6610   23.2060    0.0600 O.co2     1 ANP1001     0.0000 
      4 O3G        20.3230   24.1550   -1.3870 O.co2     1 ANP1001     0.0000 
      5 PB         17.1640   24.8150   -2.7860 P.3       1 ANP1001     0.0000 
      6 O1B        17.7180   23.6320   -3.3500 O.co2     1 ANP1001     0.0000 
      7 O2B        15.6650   24.6830   -2.5850 O.co2     1 ANP1001     0.0000 
      8 N3B        17.8700   25.2100   -1.3140 N.4       1 ANP1001     0.0000 
      9 PA         17.1730   26.2570   -5.3440 P.3       1 ANP1001     0.0000 
     10 O1A        18.5210   26.1740   -6.1390 O.co2     1 ANP1001     0.0000 
     11 O2A        16.1420   25.2760   -5.8070 O.co2     1 ANP1001     0.0000 
     12 O3A        17.4840   26.0520   -3.7800 O.3       1 ANP1001     0.0000 
     13 O5'        16.6320   27.7660   -5.4630 O.3       1 ANP1001     0.0000 
     14 C5'        15.4000   28.0970   -4.7860 C.3       1 ANP1001     0.0000 
     15 C4'        15.0090   29.5140   -5.2090 C.3       1 ANP1001     0.0000 
     16 O4'        14.6320   29.4450   -6.5960 O.3       1 ANP1001     0.0000 
     17 C3'        13.7730   30.0210   -4.5170 C.3       1 ANP1001     0.0000 
     18 O3'        14.1130   30.6520   -3.2790 O.3       1 ANP1001     0.0000 
     19 C2'        13.1940   30.8980   -5.5660 C.3       1 ANP1001     0.0000 
     20 O2'        13.7740   32.2250   -5.4620 O.3       1 ANP1001     0.0000 
     21 C1'        13.5820   30.2670   -6.8540 C.3       1 ANP1001     0.0000 
     22 N9         12.5270   29.5350   -7.6100 N.pl3     1 ANP1001     0.0000 
     23 C8         12.5850   29.0810   -8.8600 C.2       1 ANP1001     0.0000 
     24 N7         11.4750   28.4930   -9.2730 N.2       1 ANP1001     0.0000 
     25 C5         10.6220   28.5610   -8.2050 C.ar      1 ANP1001     0.0000 
     26 C6          9.2450   28.1130   -8.0040 C.ar      1 ANP1001     0.0000 
     27 N6          8.4450   27.5050   -8.7970 N.pl3     1 ANP1001     0.0000 
     28 N1          8.7920   28.4060   -6.7540 N.ar      1 ANP1001     0.0000 
     29 C2          9.5040   29.0520   -5.7690 C.ar      1 ANP1001     0.0000 
     30 N3         10.7450   29.4670   -5.9340 N.ar      1 ANP1001     0.0000 
     31 C4         11.2640   29.2070   -7.1690 C.ar      1 ANP1001     0.0000 
     32 H          15.5204   28.0866   -3.7080 H         1 ANP1001     0.0000 
     33 H          14.5958   27.4257   -5.0675 H         1 ANP1001     0.0000 
     34 H          15.8110   30.1759   -5.0684 H         1 ANP1001     0.0000 
     35 H          13.1229   29.1670   -4.3898 H         1 ANP1001     0.0000 
     36 H          12.1409   30.9126   -5.4763 H         1 ANP1001     0.0000 
     37 H          13.9437   31.1019   -7.5195 H         1 ANP1001     0.0000 
     38 H          13.4076   29.1794   -9.4390 H         1 ANP1001     0.0000 
     39 H           9.0096   29.2124   -4.8411 H         1 ANP1001     0.0000 
     40 H          13.2378   30.8199   -2.8254 H         1 ANP1001     0.0000 
     41 H          14.2549   32.2292   -4.5852 H         1 ANP1001     0.0000 
     42 H           7.5925   27.4114   -8.2828 H         1 ANP1001     0.0000 
@<TRIPOS>BOND
     1    2    1 ar   
     2    3    1 ar   
     3    4    1 ar   
     4    8    1 1    
     5    6    5 ar   
     6    7    5 ar   
     7    8    5 1    
     8   12    5 1    
     9   10    9 ar   
    10   11    9 ar   
    11   12    9 1    
    12   13    9 1    
    13   14   13 1    
    14   15   14 1    
    15   32   14 1    
    16   33   14 1    
    17   16   15 1    
    18   17   15 1    
    19   34   15 1    
    20   21   16 1    
    21   18   17 1    
    22   19   17 1    
    23   35   17 1    
    24   40   18 1    
    25   20   19 1    
    26   21   19 1    
    27   36   19 1    
    28   41   20 1    
    29   22   21 1    
    30   37   21 1    
    31   23   22 1    
    32   31   22 1    
    33   24   23 2    
    34   38   23 1    
    35   25   24 1    
    36   26   25 ar   
    37   31   25 ar   
    38   27   26 1    
    39   28   26 ar   
    40   42   27 1    
    41   29   28 ar   
    42   30   29 ar   
    43   39   29 1    
    44   31   30 ar   
@<TRIPOS>SUBSTRUCTURE
     1 ANP1001     1 GROUP   
@<TRIPOS>SET

