#    Name: 2vn0_TDZ_1_INTS_M
#    Modification time : Tue Mar 25 02:10:05 2014

@<TRIPOS>MOLECULE
2vn0_TDZ_1_INTS_M
   71     0     9     0     0
SMALL
NO_CHARGES


@<TRIPOS>ATOM
      1 CA         44.3260   13.9560  -26.2070 C.3       3 GLC5        0.0000 
      2 CA         46.2940   14.1380  -25.3610 C.3       9 GLL5        0.0000 
      3 CA         42.3580   13.7740  -27.0530 C.3       6 GLP5        0.0000 
      4 CA         44.8060   15.3955  -24.8305 C.3       3 GLC5        0.0000 
      5 CA         43.3180   16.6530  -24.3000 C.3       6 GLP5        0.0000 
      6 CA         44.1910   14.5750  -27.5220 C.3       3 GLC5        0.0000 
      7 CA         46.0240   15.3760  -27.9910 C.3       9 GLL5        0.0000 
      8 CA         46.0175   17.2975  -28.2465 C.3       3 GLC5        0.0000 
      9 CA         46.0110   19.2190  -28.5020 C.3       6 GLP5        0.0000 
     10 O          47.1280   14.3625  -30.2790 O.2       1 ALC1        0.0000 
     11 O          45.9280   13.6760  -30.2500 O.2       7 ALL1        0.0000 
     12 O          48.3280   15.0490  -30.3080 O.2       4 ALP1        0.0000 
     13 CA         45.9155   10.0675  -32.1625 C.3       3 GLC5        0.0000 
     14 CA         46.1260   10.8430  -30.2130 C.3       9 GLL5        0.0000 
     15 CA         45.7050    9.2920  -34.1120 C.3       6 GLP5        0.0000 
     16 CA         48.2525   10.8950  -30.1765 C.3       3 GLC5        0.0000 
     17 CA         50.3790   10.9470  -30.1400 C.3       6 GLP5        0.0000 
     18 CA         46.0115    7.7705  -28.4540 C.3       3 GLC5        0.0000 
     19 CA         46.4890    9.5880  -27.5870 C.3       9 GLL5        0.0000 
     20 CA         45.5340    5.9530  -29.3210 C.3       6 GLP5        0.0000 
     21 CA         46.8135    8.2665  -26.3705 C.3       3 GLC5        0.0000 
     22 CA         47.1380    6.9450  -25.1540 C.3       6 GLP5        0.0000 
     23 CA         43.8375   12.3180  -25.9680 C.3       3 GLC5        0.0000 
     24 CA         44.7760   11.9480  -24.1790 C.3       9 GLL5        0.0000 
     25 CA         42.8990   12.6880  -27.7570 C.3       6 GLP5        0.0000 
     26 CA         42.9325   11.8045  -23.9290 C.3       3 GLC5        0.0000 
     27 CA         41.0890   11.6610  -23.6790 C.3       6 GLP5        0.0000 
     28 CA         50.4410    6.8430  -24.8045 C.3       3 GLC5        0.0000 
     29 CA         50.1770    9.0370  -24.7010 C.3       9 GLL5        0.0000 
     30 CA         50.7050    4.6490  -24.9080 C.3       6 GLP5        0.0000 
     31 CA         53.5695    9.0150  -26.1795 C.3       3 GLC5        0.0000 
     32 CA         51.5910    9.4880  -26.7810 C.3       9 GLL5        0.0000 
     33 CA         55.5480    8.5420  -25.5780 C.3       6 GLP5        0.0000 
     34 CA         52.1415    6.5100  -27.0325 C.3       3 GLC5        0.0000 
     35 CA         51.2990    8.0590  -27.2460 C.3       9 GLL5        0.0000 
     36 CA         52.9840    4.9610  -26.8190 C.3       6 GLP5        0.0000 
     37 CA         50.1345    6.2070  -26.3195 C.3       3 GLC5        0.0000 
     38 CA         49.5640    7.7650  -27.7310 C.3       9 GLL5        0.0000 
     39 CA         48.3510    7.3550  -26.4425 C.3       3 GLC5        0.0000 
     40 CA         49.9715    9.3560  -28.9355 C.3       3 GLC5        0.0000 
     41 N          48.3040    5.6015  -29.6870 N.am      2 SEC2        0.0000 
     42 N          49.1700    6.7470  -30.1350 N.am      8 SEL2        0.0000 
     43 N          47.4380    4.4560  -29.2390 N.am      5 SEP2        0.0000 
     44 N          54.1610    7.2045  -29.2370 N.am      2 SEC2        0.0000 
     45 N          53.2480    7.9410  -28.6750 N.am      8 SEL2        0.0000 
     46 N          55.0740    6.4680  -29.7990 N.am      5 SEP2        0.0000 
     47 CA         48.1260   13.2142  -27.9053 C.3       3 GLC5        0.0000 
     48 CA         46.3110   13.2750  -26.6240 C.3       9 GLL5        0.0000 
     49 CA         50.0280   12.8640  -28.5590 C.3       6 GLP5        0.0000 
     50 CA         48.0802   12.6278  -28.7745 C.3       3 GLC5        0.0000 
     51 CA         46.1890   11.7000  -28.9460 C.3       9 GLL5        0.0000 
     52 CA         44.5536   14.3595  -29.6797 C.3       3 GLC5        0.0000 
     53 CA         46.0760   13.0830  -29.0340 C.3       9 GLL5        0.0000 
     54 CA         43.0290   14.8700  -30.8750 C.3       6 GLP5        0.0000 
     55 CA         44.3941   11.1046  -29.3727 C.3       3 GLC5        0.0000 
     56 CA         42.6590   10.5920  -29.1440 C.3       6 GLP5        0.0000 
     57 CA         44.6457    9.8977  -27.8895 C.3       3 GLC5        0.0000 
     58 CA         46.3680   11.1090  -27.7030 C.3       9 GLL5        0.0000 
     59 CA         42.8630    9.4470  -28.1340 C.3       6 GLP5        0.0000 
     60 CA         48.2150   12.1820  -27.8433 C.3       3 GLC5        0.0000 
     61 CA         45.6222    9.7229  -23.8111 C.3       3 GLC5        0.0000 
     62 CA         46.3060   11.9290  -24.1960 C.3       9 GLL5        0.0000 
     63 CA         45.0830    7.8940  -24.0450 C.3       6 GLP5        0.0000 
     64 CA         45.1742   12.8811  -22.3297 C.3       3 GLC5        0.0000 
     65 CA         46.7820   11.1650  -22.9670 C.3       9 GLL5        0.0000 
     66 CA         44.1180   14.0320  -21.0850 C.3       6 GLP5        0.0000 
     67 CA         48.4468    8.1037  -24.6750 C.3       3 GLC5        0.0000 
     68 CA         49.3340    9.4880  -23.6910 C.3       9 GLL5        0.0000 
     69 CA         50.1901   11.7978  -26.9309 C.3       3 GLC5        0.0000 
     70 CA         49.5690   11.7430  -24.4880 C.3       9 GLL5        0.0000 
     71 CA         50.9120    9.8603  -28.5767 C.3       3 GLC5        0.0000 
@<TRIPOS>BOND
@<TRIPOS>SUBSTRUCTURE
     1 ALC1       10 GROUP        1 X    ALC  0     ROOT ALC X 1
     2 SEC2       41 GROUP        1 X    SEC  0     **** SEC X 2
     3 GLC5        1 GROUP        1 X    GLC  0     **** GLC X 6
     4 ALP1       12 GROUP        1 Y    ALP  0     ROOT ALP Y 8
     5 SEP2       43 GROUP        1 Y    SEP  0     **** SEP Y 9
     6 GLP5        3 GROUP        1 Y    GLP  0     **** GLP Y 13
     7 ALL1       11 GROUP        1 Z    ALL  0     ROOT ALL Z 15
     8 SEL2       42 GROUP        1 Z    SEL  0     **** SEL Z 16
     9 GLL5        2 GROUP        1 Z    GLL  0     **** GLL Z 20
@<TRIPOS>SET

