#    Name: 2vn0_TDZ_1_ligand
#    Modification time : Tue Mar 25 02:10:05 2014

@<TRIPOS>MOLECULE
2vn0_TDZ_1_ligand
   58    61     1     0     0
SMALL
NO_CHARGES


@<TRIPOS>ATOM
      1 CAM        46.8570   13.3560  -24.1740 C.3       1 TDZ501      0.0000 
      2 CAL        46.2940   14.1380  -25.3610 C.3       1 TDZ501      0.0000 
      3 CBB        46.3110   13.2750  -26.6240 C.ar      1 TDZ501      0.0000 
      4 CAZ        46.1370   13.8540  -27.8790 C.ar      1 TDZ501      0.0000 
      5 CAC        46.0240   15.3760  -27.9910 C.3       1 TDZ501      0.0000 
      6 CBA        46.0760   13.0830  -29.0340 C.ar      1 TDZ501      0.0000 
      7 OAG        45.9280   13.6760  -30.2500 O.3       1 TDZ501      0.0000 
      8 CAX        46.1890   11.7000  -28.9460 C.ar      1 TDZ501      0.0000 
      9 CAA        46.1260   10.8430  -30.2130 C.3       1 TDZ501      0.0000 
     10 CAY        46.3680   11.1090  -27.7030 C.ar      1 TDZ501      0.0000 
     11 CAB        46.4890    9.5880  -27.5870 C.3       1 TDZ501      0.0000 
     12 CBC        46.4360   11.8910  -26.5520 C.ar      1 TDZ501      0.0000 
     13 OAR        46.7460   11.2630  -25.3840 O.3       1 TDZ501      0.0000 
     14 CBE        46.3060   11.9290  -24.1960 C.3       1 TDZ501      0.0000 
     15 CAD        44.7760   11.9480  -24.1790 C.3       1 TDZ501      0.0000 
     16 CAN        46.7820   11.1650  -22.9670 C.3       1 TDZ501      0.0000 
     17 OAQ        48.1730   11.2880  -22.6200 O.3       1 TDZ501      0.0000 
     18 CAW        49.0240   10.8360  -23.5820 C.ar      1 TDZ501      0.0000 
     19 CAK        49.3340    9.4880  -23.6910 C.ar      1 TDZ501      0.0000 
     20 CAI        50.1770    9.0370  -24.7010 C.ar      1 TDZ501      0.0000 
     21 CAJ        49.5690   11.7430  -24.4880 C.ar      1 TDZ501      0.0000 
     22 CAH        50.4120   11.2930  -25.4970 C.ar      1 TDZ501      0.0000 
     23 CAV        50.7140    9.9450  -25.6130 C.ar      1 TDZ501      0.0000 
     24 CAO        51.5910    9.4880  -26.7810 C.3       1 TDZ501      0.0000 
     25 CBD        51.2990    8.0590  -27.2460 C.3       1 TDZ501      0.0000 
     26 SAS        49.5640    7.7650  -27.7310 S.3       1 TDZ501      0.0000 
     27 CAT        49.9820    7.2060  -29.3310 C.2       1 TDZ501      0.0000 
     28 OAE        49.1700    6.7470  -30.1350 O.2       1 TDZ501      0.0000 
     29 NAP        51.2900    7.3080  -29.5660 N.am      1 TDZ501      0.0000 
     30 CAU        52.0310    7.7890  -28.5640 C.2       1 TDZ501      0.0000 
     31 OAF        53.2480    7.9410  -28.6750 O.2       1 TDZ501      0.0000 
     32 H          46.5621   13.8404  -23.2518 H         1 TDZ501      0.0000 
     33 H          47.9370   13.3248  -24.2436 H         1 TDZ501      0.0000 
     34 H          46.8980   15.0261  -25.5253 H         1 TDZ501      0.0000 
     35 H          45.2718   14.4351  -25.1433 H         1 TDZ501      0.0000 
     36 H          46.5090   10.0831  -23.1217 H         1 TDZ501      0.0000 
     37 H          46.1313   11.4841  -22.1045 H         1 TDZ501      0.0000 
     38 H          48.9367    8.8136  -23.0180 H         1 TDZ501      0.0000 
     39 H          50.4043    8.0390  -24.7764 H         1 TDZ501      0.0000 
     40 H          49.3471   12.7431  -24.4091 H         1 TDZ501      0.0000 
     41 H          50.8159   11.9693  -26.1649 H         1 TDZ501      0.0000 
     42 H          52.6479    9.5573  -26.4826 H         1 TDZ501      0.0000 
     43 H          51.4452   10.1756  -27.6276 H         1 TDZ501      0.0000 
     44 H          51.4856    7.3161  -26.5610 H         1 TDZ501      0.0000 
     45 H          51.7028    7.0349  -30.4589 H         1 TDZ501      0.0000 
     46 H          46.8417   15.8356  -27.6445 H         1 TDZ501      0.0000 
     47 H          45.9016   15.6706  -28.9387 H         1 TDZ501      0.0000 
     48 H          45.2464   15.7299  -27.4713 H         1 TDZ501      0.0000 
     49 H          46.8544   11.0777  -30.8567 H         1 TDZ501      0.0000 
     50 H          46.2192    9.8688  -30.0074 H         1 TDZ501      0.0000 
     51 H          45.2586   10.9588  -30.6969 H         1 TDZ501      0.0000 
     52 H          47.2658    9.2363  -28.1094 H         1 TDZ501      0.0000 
     53 H          46.6174    9.2969  -26.6390 H         1 TDZ501      0.0000 
     54 H          45.6719    9.1233  -27.9282 H         1 TDZ501      0.0000 
     55 H          44.4192   12.3977  -23.3602 H         1 TDZ501      0.0000 
     56 H          44.4018   12.4356  -24.9678 H         1 TDZ501      0.0000 
     57 H          44.3929   11.0245  -24.1966 H         1 TDZ501      0.0000 
     58 H          46.7556   14.2236  -30.3732 H         1 TDZ501      0.0000 
@<TRIPOS>BOND
     1    2    1 1    
     2   14    1 1    
     3   32    1 1    
     4   33    1 1    
     5    3    2 1    
     6   34    2 1    
     7   35    2 1    
     8    4    3 ar   
     9   12    3 ar   
    10    5    4 1    
    11    6    4 ar   
    12   46    5 1    
    13   47    5 1    
    14   48    5 1    
    15    7    6 1    
    16    8    6 ar   
    17   58    7 1    
    18    9    8 1    
    19   10    8 ar   
    20   49    9 1    
    21   50    9 1    
    22   51    9 1    
    23   11   10 1    
    24   12   10 ar   
    25   52   11 1    
    26   53   11 1    
    27   54   11 1    
    28   13   12 1    
    29   14   13 1    
    30   15   14 1    
    31   16   14 1    
    32   55   15 1    
    33   56   15 1    
    34   57   15 1    
    35   17   16 1    
    36   36   16 1    
    37   37   16 1    
    38   18   17 1    
    39   19   18 ar   
    40   21   18 ar   
    41   20   19 ar   
    42   38   19 1    
    43   23   20 ar   
    44   39   20 1    
    45   22   21 ar   
    46   40   21 1    
    47   23   22 ar   
    48   41   22 1    
    49   24   23 1    
    50   25   24 1    
    51   42   24 1    
    52   43   24 1    
    53   26   25 1    
    54   30   25 1    
    55   44   25 1    
    56   27   26 1    
    57   28   27 2    
    58   29   27 am   
    59   30   29 am   
    60   45   29 1    
    61   31   30 2    
@<TRIPOS>SUBSTRUCTURE
     1 TDZ501      1 GROUP   
@<TRIPOS>SET

