#    Name: 2cnv_SSS_1_INTS_M
#    Modification time : Tue Mar 25 01:13:05 2014

@<TRIPOS>MOLECULE
2cnv_SSS_1_INTS_M
   61     0    12     0     0
SMALL
NO_CHARGES


@<TRIPOS>ATOM
      1 NZ         -7.4360   27.6100   -7.6810 N.4       3 LYC4        0.0000 
      2 NZ         -6.9040   26.2650   -7.5870 N.4      11 LYL4        0.0000 
      3 NZ         -8.4890   29.5430   -6.7060 N.4       7 LYP4        0.0000 
      4 N          -7.4360   27.6100   -7.6810 N.am      2 SEC2        0.0000 
      5 N          -6.9040   26.2650   -7.5870 N.am     10 SEL2        0.0000 
      6 N          -7.9680   28.9550   -7.7750 N.am      6 SEP2        0.0000 
      7 N          -8.3795   23.4000   -6.9365 N.am      2 SEC2        0.0000 
      8 N          -7.3410   24.0430   -6.4850 N.am     10 SEL2        0.0000 
      9 N          -9.4180   22.7570   -7.3880 N.am      6 SEP2        0.0000 
     10 NZ         -9.9565   25.5980   -5.2260 N.4       3 LYC4        0.0000 
     11 NZ         -8.9680   25.9630   -6.1650 N.4      11 LYL4        0.0000 
     12 NZ        -10.8480   24.0410   -3.7150 N.4       7 LYP4        0.0000 
     13 NZ         -8.9010   27.3840   -5.9080 N.4       3 LYC4        0.0000 
     14 N          -9.9565   25.5980   -5.2260 N.am      2 SEC2        0.0000 
     15 N          -8.9680   25.9630   -6.1650 N.am     10 SEL2        0.0000 
     16 N         -10.9450   25.2330   -4.2870 N.am      6 SEP2        0.0000 
     17 N          -9.7700   25.5910   -7.4205 N.am      2 SEC2        0.0000 
     18 N         -10.5720   25.2190   -8.6760 N.am      6 SEP2        0.0000 
     19 N          -8.9010   27.3840   -5.9080 N.am      2 SEC2        0.0000 
     20 N          -8.8340   28.8050   -5.6510 N.am      6 SEP2        0.0000 
     21 CA         -3.8155   26.9560   -1.0390 C.3       4 GLC5        0.0000 
     22 CA         -4.3470   27.7070   -2.9530 C.3      12 GLL5        0.0000 
     23 CA         -3.2840   26.2050    0.8750 C.3       8 GLP5        0.0000 
     24 CA          0.1195   32.8910  -10.4840 C.3       4 GLC5        0.0000 
     25 CA         -0.9500   32.3410   -8.8340 C.3      12 GLL5        0.0000 
     26 CA          1.1890   33.4410  -12.1340 C.3       8 GLP5        0.0000 
     27 CA         -0.7190   34.2205   -8.5330 C.3       4 GLC5        0.0000 
     28 CA         -0.4880   36.1000   -8.2320 C.3       8 GLP5        0.0000 
     29 N           2.2800   30.7770  -10.1115 N.am      2 SEC2        0.0000 
     30 N           0.9440   30.6680  -10.2100 N.am     10 SEL2        0.0000 
     31 N           3.6160   30.8860  -10.0130 N.am      6 SEP2        0.0000 
     32 N           0.9325   29.9260  -11.4005 N.am      2 SEC2        0.0000 
     33 N           0.9210   29.1840  -12.5910 N.am      6 SEP2        0.0000 
     34 N           2.2810   30.1615   -9.2135 N.am      2 SEC2        0.0000 
     35 N           0.9460   29.4370   -8.4140 N.am     10 SEL2        0.0000 
     36 NZ         -3.3500   32.4150  -11.7065 N.4       3 LYC4        0.0000 
     37 NZ         -2.1030   32.7870  -10.8830 N.4      11 LYL4        0.0000 
     38 NZ         -5.0380   33.2250  -12.9390 N.4       7 LYP4        0.0000 
     39 N          -1.1460   32.2545  -12.0255 N.am      2 SEC2        0.0000 
     40 N          -2.1030   32.7870  -10.8830 N.am     10 SEL2        0.0000 
     41 N          -0.1890   31.7220  -13.1680 N.am      6 SEP2        0.0000 
     42 N          -3.2015   33.5505  -11.8050 N.am      2 SEC2        0.0000 
     43 N          -4.3000   34.3140  -12.7270 N.am      6 SEP2        0.0000 
     44 N          -3.3500   32.4150  -11.7065 N.am      2 SEC2        0.0000 
     45 N          -4.5970   32.0430  -12.5300 N.am      6 SEP2        0.0000 
     46 CA         -5.3505   30.2750   -1.4720 C.3       4 GLC5        0.0000 
     47 CA         -5.6090   28.4710   -2.5630 C.3      12 GLL5        0.0000 
     48 CA         -5.0920   32.0790   -0.3810 C.3       8 GLP5        0.0000 
     49 O          -7.3070   29.7255   -2.7490 O.2       1 ALC1        0.0000 
     50 O          -6.0210   29.5010   -3.4550 O.2       9 ALL1        0.0000 
     51 O          -8.5930   29.9500   -2.0430 O.2       5 ALP1        0.0000 
     52 CA         -7.5565   25.8825   -1.3205 C.3       4 GLC5        0.0000 
     53 CA         -6.6870   27.4200   -2.5040 C.3      12 GLL5        0.0000 
     54 CA         -8.4260   24.3450   -0.1370 C.3       8 GLP5        0.0000 
     55 CA         -8.5025   28.1800   -1.6230 C.3       4 GLC5        0.0000 
     56 CA        -10.3180   28.9400   -0.7420 C.3       8 GLP5        0.0000 
     57 O          -7.8630   28.7040   -1.5990 O.2       1 ALC1        0.0000 
     58 O          -7.1330   27.4580   -1.1550 O.2       9 ALL1        0.0000 
     59 CA         -6.1930   24.2130   -2.4068 C.3       4 GLC5        0.0000 
     60 CA         -6.0270   26.0950   -2.8640 C.3      12 GLL5        0.0000 
     61 CA         -5.9680   22.7220   -1.4270 C.3       8 GLP5        0.0000 
@<TRIPOS>BOND
@<TRIPOS>SUBSTRUCTURE
     1 ALC1       49 GROUP        1 X    ALC  0     ROOT ALC X 1
     2 SEC2        4 GROUP        1 X    SEC  0     **** SEC X 2
     3 LYC4        1 GROUP        1 X    LYC  0     **** LYC X 4
     4 GLC5       21 GROUP        1 X    GLC  0     **** GLC X 6
     5 ALP1       51 GROUP        1 Y    ALP  0     ROOT ALP Y 8
     6 SEP2        6 GROUP        1 Y    SEP  0     **** SEP Y 9
     7 LYP4        3 GROUP        1 Y    LYP  0     **** LYP Y 11
     8 GLP5       23 GROUP        1 Y    GLP  0     **** GLP Y 13
     9 ALL1       50 GROUP        1 Z    ALL  0     ROOT ALL Z 15
    10 SEL2        5 GROUP        1 Z    SEL  0     **** SEL Z 16
    11 LYL4        2 GROUP        1 Z    LYL  0     **** LYL Z 18
    12 GLL5       22 GROUP        1 Z    GLL  0     **** GLL Z 20
@<TRIPOS>SET

