#    Name: 2cnv_SSS_1_ligand
#    Modification time : Tue Mar 25 01:13:05 2014

@<TRIPOS>MOLECULE
2cnv_SSS_1_ligand
   45    46     1     0     0
SMALL
NO_CHARGES


@<TRIPOS>ATOM
      1 PA         -7.5580   25.5360   -6.4480 P.3       1 SSS1308     0.0000 
      2 O1A        -6.9040   26.2650   -7.5870 O.co2     1 SSS1308     0.0000 
      3 O2A        -7.3410   24.0430   -6.4850 O.co2     1 SSS1308     0.0000 
      4 O3A        -8.9680   25.9630   -6.1650 O.co2     1 SSS1308     0.0000 
      5 O5'        -6.7480   26.0130   -5.1500 O.3       1 SSS1308     0.0000 
      6 C5'        -6.8090   25.3130   -3.9090 C.3       1 SSS1308     0.0000 
      7 C4'        -6.0270   26.0950   -2.8640 C.3       1 SSS1308     0.0000 
      8 O4'        -4.7480   26.4140   -3.4080 O.3       1 SSS1308     0.0000 
      9 C1'        -4.3470   27.7070   -2.9530 C.3       1 SSS1308     0.0000 
     10 N9         -3.4400   28.3880   -3.9160 N.pl3     1 SSS1308     0.0000 
     11 C4         -3.3830   28.3450   -5.2490 C.2       1 SSS1308     0.0000 
     12 O6         -2.2560   28.4520   -7.9930 O.2       1 SSS1308     0.0000 
     13 N3         -4.2520   27.6450   -6.0440 N.pl3     1 SSS1308     0.0000 
     14 C6         -1.9960   29.3160   -7.1660 C.2       1 SSS1308     0.0000 
     15 N6         -1.3800   30.4610   -7.4730 N.am      1 SSS1308     0.0000 
     16 C61        -0.9660   30.8130   -8.8270 C.3       1 SSS1308     0.0000 
     17 C62         0.3960   30.2700   -9.1680 C.2       1 SSS1308     0.0000 
     18 C63        -0.9500   32.3410   -8.8340 C.3       1 SSS1308     0.0000 
     19 C64        -2.1220   32.8710   -9.6300 C.2       1 SSS1308     0.0000 
     20 O65         0.9440   30.6680  -10.2100 O.co2     1 SSS1308     0.0000 
     21 O66         0.9460   29.4370   -8.4140 O.co2     1 SSS1308     0.0000 
     22 O67        -3.0750   33.3840   -9.0030 O.co2     1 SSS1308     0.0000 
     23 O68        -2.1030   32.7870  -10.8830 O.co2     1 SSS1308     0.0000 
     24 C5         -2.3440   29.1170   -5.7310 C.2       1 SSS1308     0.0000 
     25 N7         -1.7460   29.6290   -4.6340 N.2       1 SSS1308     0.0000 
     26 C8         -2.4150   29.1730   -3.5440 C.2       1 SSS1308     0.0000 
     27 C2'        -5.6090   28.4710   -2.5630 C.3       1 SSS1308     0.0000 
     28 O2'        -6.0210   29.5010   -3.4550 O.3       1 SSS1308     0.0000 
     29 C3'        -6.6870   27.4200   -2.5040 C.3       1 SSS1308     0.0000 
     30 O3'        -7.1330   27.4580   -1.1550 O.3       1 SSS1308     0.0000 
     31 H          -6.3682   24.3151   -3.9831 H         1 SSS1308     0.0000 
     32 H          -7.8370   25.2077   -3.5518 H         1 SSS1308     0.0000 
     33 H          -5.9274   25.5051   -1.9781 H         1 SSS1308     0.0000 
     34 H          -3.7776   27.5600   -1.9924 H         1 SSS1308     0.0000 
     35 H          -5.0043   27.1836   -5.5737 H         1 SSS1308     0.0000 
     36 H          -4.0578   27.6568   -7.0249 H         1 SSS1308     0.0000 
     37 H          -1.1595   31.1787   -6.7366 H         1 SSS1308     0.0000 
     38 H          -1.6918   30.4895   -9.5374 H         1 SSS1308     0.0000 
     39 H          -0.0191   32.6847   -9.2791 H         1 SSS1308     0.0000 
     40 H          -1.0094   32.7018   -7.8097 H         1 SSS1308     0.0000 
     41 H          -2.1776   29.3903   -2.6200 H         1 SSS1308     0.0000 
     42 H          -5.4760   28.8331   -1.5481 H         1 SSS1308     0.0000 
     43 H          -7.4338   27.6607   -3.1977 H         1 SSS1308     0.0000 
     44 H          -6.9127   29.7977   -3.1133 H         1 SSS1308     0.0000 
     45 H          -7.7001   28.2793   -1.0931 H         1 SSS1308     0.0000 
@<TRIPOS>BOND
     1    2    1 ar   
     2    3    1 ar   
     3    4    1 ar   
     4    5    1 1    
     5    6    5 1    
     6    7    6 1    
     7   31    6 1    
     8   32    6 1    
     9    8    7 1    
    10   29    7 1    
    11   33    7 1    
    12    9    8 1    
    13   10    9 1    
    14   27    9 1    
    15   34    9 1    
    16   11   10 1    
    17   26   10 1    
    18   13   11 1    
    19   24   11 2    
    20   14   12 2    
    21   35   13 1    
    22   36   13 1    
    23   15   14 am   
    24   24   14 1    
    25   16   15 1    
    26   37   15 1    
    27   17   16 1    
    28   18   16 1    
    29   38   16 1    
    30   20   17 ar   
    31   21   17 ar   
    32   19   18 1    
    33   39   18 1    
    34   40   18 1    
    35   22   19 ar   
    36   23   19 ar   
    37   25   24 1    
    38   26   25 2    
    39   41   26 1    
    40   28   27 1    
    41   29   27 1    
    42   42   27 1    
    43   44   28 1    
    44   30   29 1    
    45   43   29 1    
    46   45   30 1    
@<TRIPOS>SUBSTRUCTURE
     1 SSS1308     1 GROUP   
@<TRIPOS>SET

