#    Name: 1d7v_NMA_1_INTS_M
#    Modification time : Mon Mar 24 21:33:58 2014

@<TRIPOS>MOLECULE
1d7v_NMA_1_INTS_M
   61     0    12     0     0
SMALL
NO_CHARGES


@<TRIPOS>ATOM
      1 CA         17.8670   53.5485   18.0145 C.3       4 GLC5        0.0000 
      2 CA         17.1330   52.0160   17.9810 C.3      12 GLL5        0.0000 
      3 CA         18.6010   55.0810   18.0480 C.3       8 GLP5        0.0000 
      4 N          22.0685   49.5140   14.9000 N.am      2 SEC2        0.0000 
      5 N          21.8520   48.8540   16.2730 N.am     10 SEL2        0.0000 
      6 N          22.2850   50.1740   13.5270 N.am      6 SEP2        0.0000 
      7 CA         19.7920   50.0910   14.5370 C.3       4 GLC5        0.0000 
      8 CA         19.2900   51.0760   16.4620 C.3      12 GLL5        0.0000 
      9 CA         20.2940   49.1060   12.6120 C.3       8 GLP5        0.0000 
     10 CA         18.9455   53.0785   17.2550 C.3       4 GLC5        0.0000 
     11 CA         20.9130   52.3720   16.6395 C.3       4 GLC5        0.0000 
     12 CA         22.5360   53.6680   16.8170 C.3       8 GLP5        0.0000 
     13 N          17.6585   54.2335   12.9740 N.am      2 SEC2        0.0000 
     14 N          17.5790   53.3420   14.0480 N.am     10 SEL2        0.0000 
     15 N          17.7380   55.1250   11.9000 N.am      6 SEP2        0.0000 
     16 CA         19.3805   50.7895   13.5785 C.3       4 GLC5        0.0000 
     17 CA         18.4670   52.4730   14.5450 C.3      12 GLL5        0.0000 
     18 CA         19.4495   54.2735   14.6540 C.3       4 GLC5        0.0000 
     19 CA         20.4320   56.0740   14.7630 C.3       8 GLP5        0.0000 
     20 CA         16.7900   51.7805   13.4760 C.3       4 GLC5        0.0000 
     21 CA         15.1130   51.0880   12.4070 C.3       8 GLP5        0.0000 
     22 CA         15.2485   56.6165   13.3360 C.3       4 GLC5        0.0000 
     23 CA         15.5870   54.7920   14.0220 C.3      12 GLL5        0.0000 
     24 CA         14.9100   58.4410   12.6500 C.3       8 GLP5        0.0000 
     25 CA         13.8285   53.5525   14.5875 C.3       4 GLC5        0.0000 
     26 CA         12.0700   52.3130   15.1530 C.3       8 GLP5        0.0000 
     27 CA         14.1775   52.8555   15.6115 C.3       4 GLC5        0.0000 
     28 CA         16.2850   53.3980   16.0700 C.3      12 GLL5        0.0000 
     29 O          14.2005   53.1515   17.0150 O.2       1 ALC1        0.0000 
     30 O          15.2220   53.9650   16.7210 O.2       9 ALL1        0.0000 
     31 O          13.1790   52.3380   17.3090 O.2       5 ALP1        0.0000 
     32 NZ         14.1455   50.5340   19.2705 N.4       3 LYC4        0.0000 
     33 NZ         13.6220   51.7360   20.2670 N.4      11 LYL4        0.0000 
     34 NZ         14.6690   49.3320   18.2740 N.4       7 LYP4        0.0000 
     35 NZ         12.5710   53.0680   20.2915 N.4       3 LYC4        0.0000 
     36 NZ         11.2660   54.0620   21.5720 N.4       7 LYP4        0.0000 
     37 N          14.1455   50.5340   19.2705 N.am      2 SEC2        0.0000 
     38 N          13.6220   51.7360   20.2670 N.am     10 SEL2        0.0000 
     39 N          14.6690   49.3320   18.2740 N.am      6 SEP2        0.0000 
     40 N          12.5710   53.0680   20.2915 N.am      2 SEC2        0.0000 
     41 N          11.5200   54.4000   20.3160 N.am      6 SEP2        0.0000 
     42 N          12.8250   52.4465   21.2210 N.am      2 SEC2        0.0000 
     43 N          12.0280   53.1570   22.1750 N.am      6 SEP2        0.0000 
     44 NZ         13.1355   53.9765   20.5730 N.4       3 LYC4        0.0000 
     45 NZ         14.7510   53.5530   20.8300 N.4      11 LYL4        0.0000 
     46 N          14.7200   54.7640   20.2440 N.am      2 SEC2        0.0000 
     47 N          14.7510   53.5530   20.8300 N.am     10 SEL2        0.0000 
     48 N          14.6890   55.9750   19.6580 N.am      6 SEP2        0.0000 
     49 N          13.1355   53.9765   20.5730 N.am      2 SEC2        0.0000 
     50 N          13.3895   53.3550   21.5025 N.am      2 SEC2        0.0000 
     51 CA         15.2965   49.1115   21.4095 C.3       4 GLC5        0.0000 
     52 CA         16.2510   50.5230   20.9490 C.3      12 GLL5        0.0000 
     53 CA         14.3420   47.7000   21.8700 C.3       8 GLP5        0.0000 
     54 CA         15.6369   52.4686   13.8148 C.3       4 GLC5        0.0000 
     55 CA         16.4860   53.8090   14.7280 C.3      12 GLL5        0.0000 
     56 CA         15.9304   51.2579   16.5839 C.3       4 GLC5        0.0000 
     57 CA         14.8690   49.7560   16.8580 C.3       8 GLP5        0.0000 
     58 CA         17.9692   53.5230   20.1958 C.3       4 GLC5        0.0000 
     59 CA         16.0500   51.7750   20.0860 C.3      12 GLL5        0.0000 
     60 CA         19.3600   54.7450   20.1080 C.3       8 GLP5        0.0000 
     61 CA         15.5098   50.4525   18.6878 C.3       4 GLC5        0.0000 
@<TRIPOS>BOND
@<TRIPOS>SUBSTRUCTURE
     1 ALC1       29 GROUP        1 X    ALC  0     ROOT ALC X 1
     2 SEC2        4 GROUP        1 X    SEC  0     **** SEC X 2
     3 LYC4       32 GROUP        1 X    LYC  0     **** LYC X 4
     4 GLC5        1 GROUP        1 X    GLC  0     **** GLC X 6
     5 ALP1       31 GROUP        1 Y    ALP  0     ROOT ALP Y 8
     6 SEP2        6 GROUP        1 Y    SEP  0     **** SEP Y 9
     7 LYP4       34 GROUP        1 Y    LYP  0     **** LYP Y 11
     8 GLP5        3 GROUP        1 Y    GLP  0     **** GLP Y 13
     9 ALL1       30 GROUP        1 Z    ALL  0     ROOT ALL Z 15
    10 SEL2        5 GROUP        1 Z    SEL  0     **** SEL Z 16
    11 LYL4       33 GROUP        1 Z    LYL  0     **** LYL Z 18
    12 GLL5        2 GROUP        1 Z    GLL  0     **** GLL Z 20
@<TRIPOS>SET

