#    Name: 1d7v_NMA_1_ligand
#    Modification time : Mon Mar 24 21:33:58 2014

@<TRIPOS>MOLECULE
1d7v_NMA_1_ligand
   37    37     1     0     0
SMALL
NO_CHARGES


@<TRIPOS>ATOM
      1 C4         17.1560   52.4520   16.6130 C.ar      1 NMA500      0.0000 
      2 C4A        17.1330   52.0160   17.9810 C.3       1 NMA500      0.0000 
      3 P          20.4020   48.7940   16.6810 P.3       1 NMA500      0.0000 
      4 O1P        21.8520   48.8540   16.2730 O.co2     1 NMA500      0.0000 
      5 O2P        20.2950   49.4150   18.1210 O.co2     1 NMA500      0.0000 
      6 O3P        19.7020   47.4930   16.5750 O.co2     1 NMA500      0.0000 
      7 O4P        19.5640   49.8320   15.8150 O.3       1 NMA500      0.0000 
      8 C5A        19.2900   51.0760   16.4620 C.3       1 NMA500      0.0000 
      9 C5         18.2530   52.0090   15.8020 C.ar      1 NMA500      0.0000 
     10 N1         17.5790   53.3420   14.0480 N.ar      1 NMA500      0.0000 
     11 C6         18.4670   52.4730   14.5450 C.ar      1 NMA500      0.0000 
     12 C2         16.4860   53.8090   14.7280 C.ar      1 NMA500      0.0000 
     13 C2A        15.5870   54.7920   14.0220 C.3       1 NMA500      0.0000 
     14 C3         16.2850   53.3980   16.0700 C.ar      1 NMA500      0.0000 
     15 O3         15.2220   53.9650   16.7210 O.3       1 NMA500      0.0000 
     16 N          16.0950   51.6210   18.6090 N.4       1 NMA500      0.0000 
     17 C8         16.0500   51.7750   20.0860 C.3       1 NMA500      0.0000 
     18 C7         14.7490   52.3960   20.4430 C.2       1 NMA500      0.0000 
     19 O7         13.6220   51.7360   20.2670 O.co2     1 NMA500      0.0000 
     20 O8         14.7510   53.5530   20.8300 O.co2     1 NMA500      0.0000 
     21 C9         16.2510   50.5230   20.9490 C.3       1 NMA500      0.0000 
     22 C10        17.1070   52.8270   20.4810 C.3       1 NMA500      0.0000 
     23 H          17.6944   52.8755   18.5865 H         1 NMA500      0.0000 
     24 H          18.0098   51.2126   18.0618 H         1 NMA500      0.0000 
     25 H          20.2334   51.6824   16.5854 H         1 NMA500      0.0000 
     26 H          18.9426   50.9107   17.5226 H         1 NMA500      0.0000 
     27 H          19.2814   52.1639   14.0035 H         1 NMA500      0.0000 
     28 H          16.0774   55.6241   13.7630 H         1 NMA500      0.0000 
     29 H          15.2008   54.4066   13.1840 H         1 NMA500      0.0000 
     30 H          14.8184   55.0718   14.5972 H         1 NMA500      0.0000 
     31 H          17.1398   50.0960   20.7827 H         1 NMA500      0.0000 
     32 H          16.2052   50.7337   21.9255 H         1 NMA500      0.0000 
     33 H          15.5540   49.8298   20.7657 H         1 NMA500      0.0000 
     34 H          18.0281   52.5482   20.2093 H         1 NMA500      0.0000 
     35 H          16.9295   53.7118   20.0501 H         1 NMA500      0.0000 
     36 H          17.1268   52.9808   21.4689 H         1 NMA500      0.0000 
     37 H          14.6315   53.1972   16.9697 H         1 NMA500      0.0000 
@<TRIPOS>BOND
     1    2    1 1    
     2    9    1 ar   
     3   14    1 ar   
     4   16    2 1    
     5   23    2 1    
     6   24    2 1    
     7    4    3 ar   
     8    5    3 ar   
     9    6    3 ar   
    10    7    3 1    
    11    8    7 1    
    12    9    8 1    
    13   25    8 1    
    14   26    8 1    
    15   11    9 ar   
    16   11   10 ar   
    17   12   10 ar   
    18   27   11 1    
    19   13   12 1    
    20   14   12 ar   
    21   28   13 1    
    22   29   13 1    
    23   30   13 1    
    24   15   14 1    
    25   37   15 1    
    26   17   16 1    
    27   18   17 1    
    28   21   17 1    
    29   22   17 1    
    30   19   18 ar   
    31   20   18 ar   
    32   31   21 1    
    33   32   21 1    
    34   33   21 1    
    35   34   22 1    
    36   35   22 1    
    37   36   22 1    
@<TRIPOS>SUBSTRUCTURE
     1 NMA500      1 GROUP   
@<TRIPOS>SET

