#    Name: 1zbd_GTP_1_INTS_M
#    Modification time : Mon Apr  7 16:58:02 2014

@<TRIPOS>MOLECULE
1zbd_GTP_1_INTS_M
   93     0    15     0     0
SMALL
NO_CHARGES


@<TRIPOS>ATOM
      1 NZ         11.4460   14.6790   11.1955 N.4       3 LYC4        0.0000 
      2 NZ         10.3500   13.9510   11.0750 N.4      13 LYL4        0.0000 
      3 NZ         12.5420   15.4070   11.3160 N.4       8 LYP4        0.0000 
      4 N          11.4460   14.6790   11.1955 N.am      2 SEC2        0.0000 
      5 N          10.3500   13.9510   11.0750 N.am     12 SEL2        0.0000 
      6 N          12.5420   15.4070   11.3160 N.am      7 SEP2        0.0000 
      7 N          10.7370   13.4205   12.4295 N.am      2 SEC2        0.0000 
      8 N          11.1240   12.8900   13.7840 N.am      7 SEP2        0.0000 
      9 N           7.4055   14.1325   11.2590 N.am      2 SEC2        0.0000 
     10 N           7.9650   13.0950   10.6680 N.am     12 SEL2        0.0000 
     11 N           6.8460   15.1700   11.8500 N.am      7 SEP2        0.0000 
     12 N           6.9880   12.1155   10.8795 N.am      2 SEC2        0.0000 
     13 N           6.0110   11.1360   11.0910 N.am      7 SEP2        0.0000 
     14 Zn         10.1590   11.9355    8.4315 Zn        4 ZIC7        0.0000 
     15 Zn          9.8980   11.9800    9.6120 Zn       14 ZIL7        0.0000 
     16 Zn         10.4200   11.8910    7.2510 Zn        9 ZIP7        0.0000 
     17 N           9.0305   10.7885    9.3675 N.am      2 SEC2        0.0000 
     18 N           9.8980   11.9800    9.6120 N.am     12 SEL2        0.0000 
     19 N           8.1630    9.5970    9.1230 N.am      7 SEP2        0.0000 
     20 N           8.8040   15.7840    9.3655 N.am      2 SEC2        0.0000 
     21 N           9.2820   14.3580    8.7520 N.am     12 SEL2        0.0000 
     22 N           8.3260   17.2100    9.9790 N.am      7 SEP2        0.0000 
     23 NZ         11.7765   15.7245   10.2310 N.4       3 LYC4        0.0000 
     24 NZ         11.0110   16.0420    9.1460 N.4      13 LYL4        0.0000 
     25 N          11.2600   17.3200    8.0535 N.am      2 SEC2        0.0000 
     26 N          11.0110   16.0420    9.1460 N.am     12 SEL2        0.0000 
     27 N          11.5090   18.5980    6.9610 N.am      7 SEP2        0.0000 
     28 N          12.2460   16.2855    7.9825 N.am      2 SEC2        0.0000 
     29 N          13.4810   16.5290    6.8190 N.am      7 SEP2        0.0000 
     30 NZ         12.0810   14.7695    9.5185 N.4       3 LYC4        0.0000 
     31 NZ         11.6200   14.1320    7.7210 N.4      13 LYL4        0.0000 
     32 Zn         11.0200   13.0115    7.4860 Zn        4 ZIC7        0.0000 
     33 Zn         11.6200   14.1320    7.7210 Zn       14 ZIL7        0.0000 
     34 N          12.6945   14.0010    6.7480 N.am      2 SEC2        0.0000 
     35 N          11.6200   14.1320    7.7210 N.am     12 SEL2        0.0000 
     36 N          13.7690   13.8700    5.7750 N.am      7 SEP2        0.0000 
     37 N          10.8210   17.2715    6.8755 N.am      2 SEC2        0.0000 
     38 N          10.1330   15.9450    6.7900 N.am     12 SEL2        0.0000 
     39 N          11.8070   16.2370    6.8045 N.am      2 SEC2        0.0000 
     40 N          12.0815   14.8805    3.7075 N.am      2 SEC2        0.0000 
     41 N          10.9400   15.3490    4.3840 N.am     12 SEL2        0.0000 
     42 N          13.2230   14.4120    3.0310 N.am      7 SEP2        0.0000 
     43 N          11.0125   15.6740    3.1265 N.am      2 SEC2        0.0000 
     44 N          11.0850   15.9990    1.8690 N.am      7 SEP2        0.0000 
     45 CA          7.7895   17.5780    6.9825 C.3       5 GLC5        0.0000 
     46 CA          7.6640   17.1200    5.1250 C.3      15 GLL5        0.0000 
     47 CA          7.9150   18.0360    8.8400 C.3      10 GLP5        0.0000 
     48 CA          6.4845   15.7355    5.7630 C.3       5 GLC5        0.0000 
     49 CA          5.3050   14.3510    6.4010 C.3      10 GLP5        0.0000 
     50 N           7.9880   20.7065    4.4990 N.am      2 SEC2        0.0000 
     51 N           7.9580   19.3240    3.7840 N.am     12 SEL2        0.0000 
     52 N           8.0180   22.0890    5.2140 N.am      7 SEP2        0.0000 
     53 CA          5.1875   16.2350    3.7390 C.3       5 GLC5        0.0000 
     54 CA          6.6870   17.4600    2.9130 C.3      15 GLL5        0.0000 
     55 CA          3.6880   15.0100    4.5650 C.3      10 GLP5        0.0000 
     56 O           4.6210   17.3165    1.3510 O.2       1 ALC1        0.0000 
     57 O           5.3090   17.7600    2.6510 O.2      11 ALL1        0.0000 
     58 O           3.9330   16.8730    0.0510 O.2       6 ALP1        0.0000 
     59 CA          8.8705   18.1340    0.2885 C.3       5 GLC5        0.0000 
     60 CA          7.7060   17.9020    1.8430 C.3      15 GLL5        0.0000 
     61 CA         10.0350   18.3660   -1.2660 C.3      10 GLP5        0.0000 
     62 O           7.0975   16.4155   -0.3020 O.2       1 ALC1        0.0000 
     63 O           7.2200   17.8500    0.4490 O.2      11 ALL1        0.0000 
     64 O           6.9750   14.9810   -1.0530 O.2       6 ALP1        0.0000 
     65 CA          8.5305   19.2470    0.2890 C.3       5 GLC5        0.0000 
     66 CA          8.0440   19.3240    2.3460 C.3      15 GLL5        0.0000 
     67 CA          9.0170   19.1700   -1.7680 C.3      10 GLP5        0.0000 
     68 CA          8.7445   20.7820    3.5800 C.3       5 GLC5        0.0000 
     69 CA          9.4450   22.2400    4.8140 C.3      10 GLP5        0.0000 
     70 N          12.6640   20.5665    2.9940 N.am      2 SEC2        0.0000 
     71 N          11.6720   19.8240    2.0160 N.am     12 SEL2        0.0000 
     72 N          13.6560   21.3090    3.9720 N.am      7 SEP2        0.0000 
     73 CA         11.1605   22.3870    2.6670 C.3       5 GLC5        0.0000 
     74 CA         11.1450   20.9680    1.4430 C.3      15 GLL5        0.0000 
     75 CA         11.1760   23.8060    3.8910 C.3      10 GLP5        0.0000 
     76 CA         12.8365   20.0175    0.8730 C.3       5 GLC5        0.0000 
     77 CA         14.5280   19.0670    0.3030 C.3      10 GLP5        0.0000 
     78 CA         11.2580   21.2955   -0.6995 C.3       5 GLC5        0.0000 
     79 CA         11.3710   21.6230   -2.8420 C.3      10 GLP5        0.0000 
     80 N          13.5360   23.1845   -0.3880 N.am      2 SEC2        0.0000 
     81 N          12.9650   22.3450    0.7070 N.am     12 SEL2        0.0000 
     82 N          14.1070   24.0240   -1.4830 N.am      7 SEP2        0.0000 
     83 N          13.1760   21.4510   -0.6255 N.am      2 SEC2        0.0000 
     84 N          13.3870   20.5570   -1.9580 N.am      7 SEP2        0.0000 
     85 O          11.4795   24.3415   -0.0135 O.2       1 ALC1        0.0000 
     86 O          10.8880   23.0720    0.3750 O.2      11 ALL1        0.0000 
     87 O          12.0710   25.6110   -0.4020 O.2       6 ALP1        0.0000 
     88 O          10.5855   24.3755   -0.6460 O.2       1 ALC1        0.0000 
     89 O          10.2830   25.6790   -1.6670 O.2       6 ALP1        0.0000 
     90 O           9.5105   24.8150   -0.8660 O.2       1 ALC1        0.0000 
     91 O           8.7380   23.9510   -0.0650 O.2      11 ALL1        0.0000 
     92 CA          9.6020   21.5850    3.1520 C.3       5 GLC5        0.0000 
     93 CA          9.7590   20.9300    1.4900 C.3      15 GLL5        0.0000 
@<TRIPOS>BOND
@<TRIPOS>SUBSTRUCTURE
     1 ALC1       56 GROUP        1 X    ALC  0     ROOT ALC X 1
     2 SEC2        4 GROUP        1 X    SEC  0     **** SEC X 2
     3 LYC4        1 GROUP        1 X    LYC  0     **** LYC X 4
     4 ZIC7       14 GROUP        1 X    ZIC  0     **** ZIC X 5
     5 GLC5       45 GROUP        1 X    GLC  0     **** GLC X 6
     6 ALP1       58 GROUP        1 Y    ALP  0     ROOT ALP Y 8
     7 SEP2        6 GROUP        1 Y    SEP  0     **** SEP Y 9
     8 LYP4        3 GROUP        1 Y    LYP  0     **** LYP Y 11
     9 ZIP7       16 GROUP        1 Y    ZIP  0     **** ZIP Y 12
    10 GLP5       47 GROUP        1 Y    GLP  0     **** GLP Y 13
    11 ALL1       57 GROUP        1 Z    ALL  0     ROOT ALL Z 15
    12 SEL2        5 GROUP        1 Z    SEL  0     **** SEL Z 16
    13 LYL4        2 GROUP        1 Z    LYL  0     **** LYL Z 18
    14 ZIL7       15 GROUP        1 Z    ZIL  0     **** ZIL Z 19
    15 GLL5       46 GROUP        1 Z    GLL  0     **** GLL Z 20
@<TRIPOS>SET

