#    Name: 1zbd_GTP_1_ligand
#    Modification time : Mon Apr  7 16:58:03 2014

@<TRIPOS>MOLECULE
1zbd_GTP_1_ligand
   44    46     1     0     0
SMALL
NO_CHARGES


@<TRIPOS>ATOM
      1 PG          9.3340   13.3850   10.1250 P.3       1 GTP303      0.0000 
      2 O1G        10.3500   13.9510   11.0750 O.co2     1 GTP303      0.0000 
      3 O2G         7.9650   13.0950   10.6680 O.co2     1 GTP303      0.0000 
      4 O3G         9.8980   11.9800    9.6120 O.co2     1 GTP303      0.0000 
      5 O3B         9.2820   14.3580    8.7520 O.3       1 GTP303      0.0000 
      6 PB         10.5840   15.0980    8.1130 P.3       1 GTP303      0.0000 
      7 O1B        11.0110   16.0420    9.1460 O.co2     1 GTP303      0.0000 
      8 O2B        11.6200   14.1320    7.7210 O.co2     1 GTP303      0.0000 
      9 O3A        10.1330   15.9450    6.7900 O.3       1 GTP303      0.0000 
     10 PA          9.7140   15.4000    5.2460 P.3       1 GTP303      0.0000 
     11 O1A        10.9400   15.3490    4.3840 O.co2     1 GTP303      0.0000 
     12 O2A         8.7290   14.2890    5.2540 O.co2     1 GTP303      0.0000 
     13 O5'         8.8680   16.5780    4.5760 O.3       1 GTP303      0.0000 
     14 C5'         7.6640   17.1200    5.1250 C.3       1 GTP303      0.0000 
     15 C4'         7.0900   18.1950    4.1950 C.3       1 GTP303      0.0000 
     16 O4'         7.9580   19.3240    3.7840 O.3       1 GTP303      0.0000 
     17 C3'         6.6870   17.4600    2.9130 C.3       1 GTP303      0.0000 
     18 O3'         5.3090   17.7600    2.6510 O.3       1 GTP303      0.0000 
     19 C2'         7.7060   17.9020    1.8430 C.3       1 GTP303      0.0000 
     20 O2'         7.2200   17.8500    0.4490 O.3       1 GTP303      0.0000 
     21 C1'         8.0440   19.3240    2.3460 C.3       1 GTP303      0.0000 
     22 N9          9.4020   19.7680    2.0920 N.pl3     1 GTP303      0.0000 
     23 C8         10.5870   19.1770    2.3690 C.2       1 GTP303      0.0000 
     24 N7         11.6720   19.8240    2.0160 N.2       1 GTP303      0.0000 
     25 C5         11.1450   20.9680    1.4430 C.2       1 GTP303      0.0000 
     26 C6         11.7870   22.1130    0.8470 C.2       1 GTP303      0.0000 
     27 O6         12.9650   22.3450    0.7070 O.2       1 GTP303      0.0000 
     28 N1         10.8880   23.0720    0.3750 N.am      1 GTP303      0.0000 
     29 C2          9.4900   22.9610    0.4540 C.2       1 GTP303      0.0000 
     30 N2          8.7380   23.9510   -0.0650 N.pl3     1 GTP303      0.0000 
     31 N3          8.8870   21.8810    1.0210 N.2       1 GTP303      0.0000 
     32 C4          9.7590   20.9300    1.4900 C.2       1 GTP303      0.0000 
     33 H           7.8372   17.5860    6.1040 H         1 GTP303      0.0000 
     34 H           6.8936   16.3487    5.2562 H         1 GTP303      0.0000 
     35 H           6.1593   18.5643    4.6237 H         1 GTP303      0.0000 
     36 H           6.8454   16.4057    3.1098 H         1 GTP303      0.0000 
     37 H           8.5954   17.3065    1.9986 H         1 GTP303      0.0000 
     38 H           7.3329   20.0160    1.9481 H         1 GTP303      0.0000 
     39 H          10.6146   18.2616    2.8358 H         1 GTP303      0.0000 
     40 H          11.2844   23.9437   -0.0737 H         1 GTP303      0.0000 
     41 H           7.7478   23.8464    0.0280 H         1 GTP303      0.0000 
     42 H           9.2369   24.7023   -0.4970 H         1 GTP303      0.0000 
     43 H           5.2463   17.8400    1.6562 H         1 GTP303      0.0000 
     44 H           7.2636   16.8836    0.1957 H         1 GTP303      0.0000 
@<TRIPOS>BOND
     1    2    1 ar   
     2    3    1 ar   
     3    4    1 ar   
     4    5    1 1    
     5    6    5 1    
     6    7    6 ar   
     7    8    6 ar   
     8    9    6 1    
     9   10    9 1    
    10   11   10 ar   
    11   12   10 ar   
    12   13   10 1    
    13   14   13 1    
    14   15   14 1    
    15   33   14 1    
    16   34   14 1    
    17   16   15 1    
    18   17   15 1    
    19   35   15 1    
    20   21   16 1    
    21   18   17 1    
    22   19   17 1    
    23   36   17 1    
    24   43   18 1    
    25   20   19 1    
    26   21   19 1    
    27   37   19 1    
    28   44   20 1    
    29   22   21 1    
    30   38   21 1    
    31   23   22 1    
    32   32   22 1    
    33   24   23 2    
    34   39   23 1    
    35   25   24 1    
    36   26   25 1    
    37   32   25 2    
    38   27   26 2    
    39   28   26 am   
    40   29   28 1    
    41   40   28 1    
    42   30   29 1    
    43   31   29 2    
    44   41   30 1    
    45   42   30 1    
    46   32   31 1    
@<TRIPOS>SUBSTRUCTURE
     1 GTP303      1 GROUP   
@<TRIPOS>SET

