#    Name: 1VFT_2_CAVITY_N1_6.mol2
#    Modification time : Mon Mar 10 12:53:23 2014

@<TRIPOS>MOLECULE
1VFT_2_CAVITY_N1_6.mol2
   83     0     7     0     0
SMALL
NO_CHARGES


@<TRIPOS>ATOM
      1 CA         14.0106    1.7225  -20.3340 C.3       6 GLY6        0.0000 
      2 O          12.9592    0.7261  -19.9446 O.2       2 ALA2        0.0000 
      3 O          12.1345    1.8288  -19.3498 O.2       2 ALA2        0.0000 
      4 CZ         11.9079   -0.2704  -19.5551 C.ar      5 PHE5        0.0000 
      5 O          11.0831    0.8324  -18.9603 O.2       2 ALA2        0.0000 
      6 N          10.2584    1.9351  -18.3655 N.2       2 ALA2        0.0000 
      7 O          11.6197    8.0298  -16.4288 O.2       2 ALA2        0.0000 
      8 NZ         10.7950    9.1325  -15.8340 N.2       4 LYS4        0.0000 
      9 O          14.6921    1.5197  -19.0132 O.2       2 ALA2        0.0000 
     10 N          13.8673    2.6225  -18.4184 N.2       2 ALA2        0.0000 
     11 O          11.3931    5.9306  -16.6341 O.2       2 ALA2        0.0000 
     12 O          10.5683    7.0334  -16.0393 O.2       2 ALA2        0.0000 
     13 CA          9.7436    8.1361  -15.4445 C.3       6 GLY6        0.0000 
     14 CZ         13.6407    0.5233  -18.6238 C.ar      5 PHE5        0.0000 
     15 N          12.8159    1.6260  -18.0290 N.2       2 ALA2        0.0000 
     16 N          11.9912    2.7288  -17.4342 N.2       2 ALA2        0.0000 
     17 N          11.1664    3.8315  -16.8394 N.2       2 ALA2        0.0000 
     18 O          10.3417    4.9342  -16.2446 O.2       2 ALA2        0.0000 
     19 O           9.5169    6.0369  -15.6498 O.2       2 ALA2        0.0000 
     20 CZ         11.7646    0.6296  -17.6395 C.ar      5 PHE5        0.0000 
     21 DU         10.9398    1.7323  -17.0447 H         7 CUB7        0.0000 
     22 CA         10.1151    2.8351  -16.4499 C.3       6 GLY6        0.0000 
     23 CA          9.2903    3.9378  -15.8551 C.3       6 GLY6        0.0000 
     24 CA          8.4656    5.0405  -15.2603 C.3       6 GLY6        0.0000 
     25 CA         10.7132   -0.3668  -17.2500 C.3       6 GLY6        0.0000 
     26 CA          9.8884    0.7359  -16.6552 C.3       6 GLY6        0.0000 
     27 O           9.0637    1.8386  -16.0604 O.2       2 ALA2        0.0000 
     28 CZ         13.3526    8.8235  -15.4974 C.ar      5 PHE5        0.0000 
     29 CZ         12.3012    7.8271  -15.1079 C.ar      5 PHE5        0.0000 
     30 NZ         11.4764    8.9298  -14.5132 N.2       4 LYS4        0.0000 
     31 NZ         10.6517   10.0325  -13.9184 N.2       4 LYS4        0.0000 
     32 O          15.3735    1.3170  -17.6924 O.2       2 ALA2        0.0000 
     33 N          14.5488    2.4197  -17.0976 N.2       2 ALA2        0.0000 
     34 OG         13.7240    3.5224  -16.5028 O.2       1 SER1        0.0000 
     35 OG         12.8993    4.6252  -15.9081 O.2       1 SER1        0.0000 
     36 OG         12.0745    5.7279  -15.3133 O.2       1 SER1        0.0000 
     37 OG         11.2498    6.8306  -14.7185 O.2       1 SER1        0.0000 
     38 CZ         14.3221    0.3205  -17.3030 C.ar      5 PHE5        0.0000 
     39 OD1        13.4974    1.4233  -16.7082 O.3       3 ASP3        0.0000 
     40 OD1        12.6726    2.5260  -16.1134 O.3       3 ASP3        0.0000 
     41 DU         11.8479    3.6287  -15.5186 H         7 CUB7        0.0000 
     42 OG         11.0231    4.7315  -14.9238 O.2       1 SER1        0.0000 
     43 OD1        12.4460    0.4268  -16.3187 O.3       3 ASP3        0.0000 
     44 OG         11.6212    1.5296  -15.7239 O.2       1 SER1        0.0000 
     45 OG         10.7965    2.6323  -15.1291 O.2       1 SER1        0.0000 
     46 OG          9.9717    3.7350  -14.5343 O.2       1 SER1        0.0000 
     47 OG         10.5699    0.5331  -15.3344 O.2       1 SER1        0.0000 
     48 CZ         14.0340    8.6207  -14.1766 C.ar      5 PHE5        0.0000 
     49 CZ         13.2093    9.7235  -13.5818 C.ar      5 PHE5        0.0000 
     50 O          17.1064    2.1107  -16.7611 O.2       2 ALA2        0.0000 
     51 O          16.2816    3.2134  -16.1663 O.2       2 ALA2        0.0000 
     52 CZ         13.8074    6.5216  -14.3819 C.ar      5 PHE5        0.0000 
     53 CZ         12.9826    7.6243  -13.7871 C.ar      5 PHE5        0.0000 
     54 CZ         12.1579    8.7270  -13.1923 C.ar      5 PHE5        0.0000 
     55 CZ         11.3331    9.8298  -12.5976 C.ar      5 PHE5        0.0000 
     56 CA         16.0550    1.1142  -16.3716 C.3       6 GLY6        0.0000 
     57 CA         15.2302    2.2169  -15.7768 C.3       6 GLY6        0.0000 
     58 OG         14.4055    3.3197  -15.1820 O.2       1 SER1        0.0000 
     59 OG         13.5807    4.4224  -14.5872 O.2       1 SER1        0.0000 
     60 CZ         12.7560    5.5251  -13.9925 C.ar      5 PHE5        0.0000 
     61 CZ         11.9312    6.6279  -13.3977 C.ar      5 PHE5        0.0000 
     62 OD1        13.3541    2.3232  -14.7926 O.3       3 ASP3        0.0000 
     63 OD1        12.5293    3.4260  -14.1978 O.3       3 ASP3        0.0000 
     64 CZ         14.7154    8.4180  -12.8558 C.ar      5 PHE5        0.0000 
     65 CA         13.8907    9.5207  -12.2610 C.3       6 GLY6        0.0000 
     66 NZ         16.9631    3.0106  -14.8455 N.2       4 LYS4        0.0000 
     67 OG         16.1383    4.1134  -14.2507 O.2       1 SER1        0.0000 
     68 CZ         15.3136    5.2161  -13.6559 C.ar      5 PHE5        0.0000 
     69 CZ         14.4888    6.3188  -13.0611 C.ar      5 PHE5        0.0000 
     70 CZ         13.6641    7.4215  -12.4663 C.ar      5 PHE5        0.0000 
     71 CZ         12.8393    8.5243  -11.8715 C.ar      5 PHE5        0.0000 
     72 CA         15.9117    2.0142  -14.4560 C.3       6 GLY6        0.0000 
     73 OD1        15.0869    3.1169  -13.8612 O.3       3 ASP3        0.0000 
     74 CA         14.2622    4.2196  -13.2664 C.3       6 GLY6        0.0000 
     75 CZ         13.4374    5.3224  -12.6716 C.ar      5 PHE5        0.0000 
     76 CA         13.2108    3.2232  -12.8770 C.3       6 GLY6        0.0000 
     77 CZ         16.4483    9.2116  -11.9245 C.ar      5 PHE5        0.0000 
     78 OG         16.2216    7.1125  -12.1298 O.2       1 SER1        0.0000 
     79 CA         15.3969    8.2152  -11.5350 C.3       6 GLY6        0.0000 
     80 O          15.9950    5.0133  -12.3351 O.2       2 ALA2        0.0000 
     81 OG         15.1703    6.1161  -11.7403 O.2       1 SER1        0.0000 
     82 OG         14.3455    7.2188  -11.1455 O.2       1 SER1        0.0000 
     83 OG         14.1189    5.1196  -11.3508 O.2       1 SER1        0.0000 
@<TRIPOS>BOND
@<TRIPOS>SUBSTRUCTURE
     1 SER1       34 GROUP   
     2 ALA2        2 GROUP   
     3 ASP3       39 GROUP   
     4 LYS4        8 GROUP   
     5 PHE5        4 GROUP   
     6 GLY6        1 GROUP   
     7 CUB7       21 GROUP   
@<TRIPOS>SET

