#    Name: 1vft_DCS_2_INTS_M
#    Modification time : Tue Mar 25 07:49:25 2014

@<TRIPOS>MOLECULE
1vft_DCS_2_INTS_M
   56     0     6     0     0
SMALL
NO_CHARGES


@<TRIPOS>ATOM
      1 N          10.9765    0.6470  -20.7060 N.am      1 SEC2        0.0000 
      2 N          11.5640    1.1550  -19.3820 N.am      5 SEL2        0.0000 
      3 N          10.3890    0.1390  -22.0300 N.am      3 SEP2        0.0000 
      4 CA         14.5415   -0.6090  -19.7640 C.3       2 GLC5        0.0000 
      5 CA         13.8980    1.1900  -20.3920 C.3       6 GLL5        0.0000 
      6 CA         15.1850   -2.4080  -19.1360 C.3       4 GLP5        0.0000 
      7 CA         14.1670    0.6275  -22.1045 C.3       2 GLC5        0.0000 
      8 CA         14.4360    0.0650  -23.8170 C.3       4 GLP5        0.0000 
      9 CA         13.6735    3.0015  -20.9270 C.3       2 GLC5        0.0000 
     10 CA         13.4490    4.8130  -21.4620 C.3       4 GLP5        0.0000 
     11 N          15.7955    3.0135  -18.4180 N.am      1 SEC2        0.0000 
     12 N          14.7230    1.7940  -17.7750 N.am      5 SEL2        0.0000 
     13 N          16.8680    4.2330  -19.0610 N.am      3 SEP2        0.0000 
     14 CA         13.9800    0.7790  -14.5760 C.3       2 GLC5        0.0000 
     15 CA         12.9740    1.9530  -15.5110 C.3       6 GLL5        0.0000 
     16 CA         14.9860   -0.3950  -13.6410 C.3       4 GLP5        0.0000 
     17 CA          9.4680    3.0485  -18.5845 C.3       2 GLC5        0.0000 
     18 CA         10.6770    1.2590  -18.3810 C.3       6 GLL5        0.0000 
     19 CA          8.2590    4.8380  -18.7880 C.3       4 GLP5        0.0000 
     20 CA          9.3105    0.3435  -19.4105 C.3       2 GLC5        0.0000 
     21 CA          7.9440   -0.5720  -20.4400 C.3       4 GLP5        0.0000 
     22 CA          8.6630    0.8315  -14.7580 C.3       2 GLC5        0.0000 
     23 CA         10.0440    1.6370  -16.0750 C.3       6 GLL5        0.0000 
     24 CA          7.2820    0.0260  -13.4410 C.3       4 GLP5        0.0000 
     25 N           6.7370    3.8265  -16.0555 N.am      1 SEC2        0.0000 
     26 N           7.5750    3.1220  -14.9520 N.am      5 SEL2        0.0000 
     27 N           5.8990    4.5310  -17.1590 N.am      3 SEP2        0.0000 
     28 N           6.2745    3.2375  -14.6450 N.am      1 SEC2        0.0000 
     29 N           4.9740    3.3530  -14.3380 N.am      3 SEP2        0.0000 
     30 N           7.0560    1.7920  -14.7810 N.am      1 SEC2        0.0000 
     31 N           6.5370    0.4620  -14.6100 N.am      3 SEP2        0.0000 
     32 N          10.0055    1.7955  -12.9940 N.am      1 SEC2        0.0000 
     33 N           9.3370    2.8200  -13.3200 N.am      5 SEL2        0.0000 
     34 N          10.6740    0.7710  -12.6680 N.am      3 SEP2        0.0000 
     35 N           8.2750    2.2475  -12.4865 N.am      1 SEC2        0.0000 
     36 N           7.2130    1.6750  -11.6530 N.am      3 SEP2        0.0000 
     37 N           9.0795    5.8715  -13.5390 N.am      1 SEC2        0.0000 
     38 N           9.0840    4.9470  -14.4470 N.am      5 SEL2        0.0000 
     39 N           9.0750    6.7960  -12.6310 N.am      3 SEP2        0.0000 
     40 CA         15.0985    5.3110  -15.6370 C.3       2 GLC5        0.0000 
     41 CA         14.9160    3.3140  -14.6510 C.3       6 GLL5        0.0000 
     42 CA         15.2810    7.3080  -16.6230 C.3       4 GLP5        0.0000 
     43 CA         14.9510    1.4595  -14.1460 C.3       2 GLC5        0.0000 
     44 N          17.7010    4.4365  -12.6560 N.am      1 SEC2        0.0000 
     45 N          16.5770    4.4210  -13.6980 N.am      5 SEL2        0.0000 
     46 N          18.8250    4.4520  -11.6140 N.am      3 SEP2        0.0000 
     47 CA         15.6115    6.0415  -14.6690 C.3       2 GLC5        0.0000 
     48 CA         15.2330    4.3700  -13.8330 C.3       6 GLL5        0.0000 
     49 CA         15.9900    7.7130  -15.5050 C.3       4 GLP5        0.0000 
     50 CA         13.6915    3.2328  -19.4770 C.3       2 GLC5        0.0000 
     51 CA         13.4100    1.6030  -17.9750 C.3       6 GLL5        0.0000 
     52 CA         14.2050    5.0050  -20.3540 C.3       4 GLP5        0.0000 
     53 CA          9.6750   -0.2858  -16.8174 C.3       2 GLC5        0.0000 
     54 CA          8.8840   -2.0870  -16.7120 C.3       4 GLP5        0.0000 
     55 CA         16.1662    3.2505  -12.6210 C.3       2 GLC5        0.0000 
     56 CA         17.2580    2.6590  -11.0000 C.3       4 GLP5        0.0000 
@<TRIPOS>BOND
@<TRIPOS>SUBSTRUCTURE
     1 SEC2        1 GROUP        1 X    SEC  0     ROOT SEC X 2
     2 GLC5        4 GROUP        1 X    GLC  0     **** GLC X 6
     3 SEP2        3 GROUP        1 Y    SEP  0     ROOT SEP Y 9
     4 GLP5        6 GROUP        1 Y    GLP  0     **** GLP Y 13
     5 SEL2        2 GROUP        1 Z    SEL  0     ROOT SEL Z 16
     6 GLL5        5 GROUP        1 Z    GLL  0     **** GLL Z 20
@<TRIPOS>SET

