#    Name: 1vft_DCS_2_ligand
#    Modification time : Tue Mar 25 07:49:25 2014

@<TRIPOS>MOLECULE
1vft_DCS_2_ligand
   35    36     1     0     0
SMALL
NO_CHARGES


@<TRIPOS>ATOM
      1 N1         11.5640    1.1550  -19.3820 N.ar      1 DCS1401     0.0000 
      2 C2         12.9460    1.3180  -19.2250 C.ar      1 DCS1401     0.0000 
      3 C2A        13.8980    1.1900  -20.3920 C.3       1 DCS1401     0.0000 
      4 C3         13.4100    1.6030  -17.9750 C.ar      1 DCS1401     0.0000 
      5 O3         14.7230    1.7940  -17.7750 O.3       1 DCS1401     0.0000 
      6 C4         12.4860    1.7120  -16.9000 C.ar      1 DCS1401     0.0000 
      7 C4A        12.9740    1.9530  -15.5110 C.3       1 DCS1401     0.0000 
      8 C5         11.0990    1.5290  -17.1600 C.ar      1 DCS1401     0.0000 
      9 C6         10.6770    1.2590  -18.3810 C.ar      1 DCS1401     0.0000 
     10 C5A        10.0440    1.6370  -16.0750 C.3       1 DCS1401     0.0000 
     11 O4P         9.8930    3.0030  -15.6870 O.3       1 DCS1401     0.0000 
     12 P           8.9210    3.4990  -14.5400 P.3       1 DCS1401     0.0000 
     13 O1P         7.5750    3.1220  -14.9520 O.co2     1 DCS1401     0.0000 
     14 O2P         9.3370    2.8200  -13.3200 O.co2     1 DCS1401     0.0000 
     15 O3P         9.0840    4.9470  -14.4470 O.co2     1 DCS1401     0.0000 
     16 N          13.7680    3.2270  -15.4480 N.4       1 DCS1401     0.0000 
     17 CA         14.9160    3.3140  -14.6510 C.3       1 DCS1401     0.0000 
     18 C          16.1770    2.7160  -14.9890 C.2       1 DCS1401     0.0000 
     19 O          16.3530    1.5890  -15.7320 O.2       1 DCS1401     0.0000 
     20 ND         17.1430    3.3940  -14.4210 N.am      1 DCS1401     0.0000 
     21 OG         16.5770    4.4210  -13.6980 O.3       1 DCS1401     0.0000 
     22 CB         15.2330    4.3700  -13.8330 C.3       1 DCS1401     0.0000 
     23 H          13.6033    1.1179  -15.1900 H         1 DCS1401     0.0000 
     24 H          12.1233    2.0223  -14.8269 H         1 DCS1401     0.0000 
     25 H           9.6584    1.1251  -18.5774 H         1 DCS1401     0.0000 
     26 H          10.3586    1.0099  -15.2321 H         1 DCS1401     0.0000 
     27 H           9.1081    1.2231  -16.4693 H         1 DCS1401     0.0000 
     28 H          14.6148    2.4660  -13.7104 H         1 DCS1401     0.0000 
     29 H          18.0947    3.2347  -14.4747 H         1 DCS1401     0.0000 
     30 H          14.7300    4.2594  -12.8415 H         1 DCS1401     0.0000 
     31 H          14.8315    5.3236  -14.2547 H         1 DCS1401     0.0000 
     32 H          14.8478    1.3331  -20.1139 H         1 DCS1401     0.0000 
     33 H          13.8492    0.2845  -20.8135 H         1 DCS1401     0.0000 
     34 H          13.6987    1.8581  -21.1089 H         1 DCS1401     0.0000 
     35 H          14.8665    1.6072  -16.8031 H         1 DCS1401     0.0000 
@<TRIPOS>BOND
     1    2    1 ar   
     2    9    1 ar   
     3    3    2 1    
     4    4    2 ar   
     5   32    3 1    
     6   33    3 1    
     7   34    3 1    
     8    5    4 1    
     9    6    4 ar   
    10   35    5 1    
    11    7    6 1    
    12    8    6 ar   
    13   16    7 1    
    14   23    7 1    
    15   24    7 1    
    16    9    8 ar   
    17   10    8 1    
    18   25    9 1    
    19   11   10 1    
    20   26   10 1    
    21   27   10 1    
    22   12   11 1    
    23   13   12 ar   
    24   14   12 ar   
    25   15   12 ar   
    26   17   16 1    
    27   18   17 1    
    28   22   17 1    
    29   28   17 1    
    30   19   18 2    
    31   20   18 am   
    32   21   20 1    
    33   29   20 1    
    34   22   21 1    
    35   30   22 1    
    36   31   22 1    
@<TRIPOS>SUBSTRUCTURE
     1 DCS1401     1 GROUP   
@<TRIPOS>SET

