#    Name: 4gkm_683_2_INTS_M
#    Modification time : Mon Mar 24 22:24:58 2014

@<TRIPOS>MOLECULE
4gkm_683_2_INTS_M
   56     0     9     0     0
SMALL
NO_CHARGES


@<TRIPOS>ATOM
      1 NZ        -49.2165  -29.9945   31.7025 N.4       2 LYC4        0.0000 
      2 NZ        -50.6690  -30.9490   32.6130 N.4       8 LYL4        0.0000 
      3 NZ        -47.5370  -29.3290   32.2410 N.4       5 LYP4        0.0000 
      4 N         -51.7825  -30.9325   33.8095 N.am      1 SEC2        0.0000 
      5 N         -50.6690  -30.9490   32.6130 N.am      7 SEL2        0.0000 
      6 N         -52.8960  -30.9160   35.0060 N.am      4 SEP2        0.0000 
      7 NZ        -50.3940  -29.4390   31.0630 N.4       8 LYL4        0.0000 
      8 N         -49.1960  -28.9790   31.1790 N.am      1 SEC2        0.0000 
      9 N         -50.3940  -29.4390   31.0630 N.am      7 SEL2        0.0000 
     10 N         -47.9980  -28.5190   31.2950 N.am      4 SEP2        0.0000 
     11 N         -49.2165  -29.9945   31.7025 N.am      1 SEC2        0.0000 
     12 N         -48.0390  -30.5500   32.3420 N.am      4 SEP2        0.0000 
     13 CA        -53.8520  -28.5990   29.2965 C.3       3 GLC5        0.0000 
     14 CA        -55.3060  -27.7910   30.5850 C.3       9 GLL5        0.0000 
     15 CA        -52.3980  -29.4070   28.0080 C.3       6 GLP5        0.0000 
     16 CA        -55.7570  -26.2550   31.4530 C.3       3 GLC5        0.0000 
     17 CA        -56.2080  -24.7190   32.3210 C.3       6 GLP5        0.0000 
     18 CA        -55.4275  -33.2670   31.9070 C.3       3 GLC5        0.0000 
     19 CA        -54.6470  -31.4760   30.9880 C.3       9 GLL5        0.0000 
     20 CA        -56.2080  -35.0580   32.8260 C.3       6 GLP5        0.0000 
     21 CA        -53.6545  -34.3545   32.7310 C.3       3 GLC5        0.0000 
     22 CA        -52.8210  -33.9940   31.0070 C.3       9 GLL5        0.0000 
     23 CA        -54.4880  -34.7150   34.4550 C.3       6 GLP5        0.0000 
     24 CA        -54.2350  -33.0630   28.1905 C.3       3 GLC5        0.0000 
     25 CA        -53.6510  -34.2030   29.9090 C.3       9 GLL5        0.0000 
     26 CA        -54.8190  -31.9230   26.4720 C.3       6 GLP5        0.0000 
     27 CA        -55.6055  -36.2020   28.5505 C.3       3 GLC5        0.0000 
     28 CA        -53.8710  -35.4880   29.4530 C.3       9 GLL5        0.0000 
     29 CA        -57.3400  -36.9160   27.6480 C.3       6 GLP5        0.0000 
     30 N         -49.7425  -34.5840   33.5710 N.am      1 SEC2        0.0000 
     31 N         -50.9040  -35.7730   33.5120 N.am      7 SEL2        0.0000 
     32 N         -48.5810  -33.3950   33.6300 N.am      4 SEP2        0.0000 
     33 NZ        -49.1200  -33.3940   33.3375 N.4       2 LYC4        0.0000 
     34 NZ        -50.9610  -33.6340   33.0870 N.4       8 LYL4        0.0000 
     35 NZ        -47.2790  -33.1540   33.5880 N.4       5 LYP4        0.0000 
     36 CA        -51.5037  -31.7233   30.2473 C.3       3 GLC5        0.0000 
     37 CA        -53.2820  -31.4830   31.2850 C.3       9 GLL5        0.0000 
     38 CA        -50.0660  -32.5690   29.1650 C.3       6 GLP5        0.0000 
     39 CA        -56.0790  -28.8875   28.9973 C.3       3 GLC5        0.0000 
     40 CA        -55.3080  -30.2860   30.7420 C.3       9 GLL5        0.0000 
     41 CA        -57.0240  -28.4130   27.2700 C.3       6 GLP5        0.0000 
     42 CA        -56.6097  -31.5620   29.8395 C.3       3 GLC5        0.0000 
     43 CA        -58.2420  -32.2430   28.8140 C.3       6 GLP5        0.0000 
     44 CA        -55.8330  -30.6329   32.4224 C.3       3 GLC5        0.0000 
     45 CA        -56.8620  -30.6850   33.9580 C.3       6 GLP5        0.0000 
     46 CA        -54.9845  -34.9517   31.2535 C.3       3 GLC5        0.0000 
     47 CA        -52.7915  -35.2067   28.1615 C.3       3 GLC5        0.0000 
     48 CA        -51.8220  -35.5680   26.6420 C.3       6 GLP5        0.0000 
     49 CA        -52.4430  -36.7687   28.7090 C.3       3 GLC5        0.0000 
     50 CA        -52.4090  -36.3540   31.1600 C.3       9 GLL5        0.0000 
     51 CA        -52.0580  -37.0810   26.8010 C.3       6 GLP5        0.0000 
     52 CA        -53.8217  -35.7744   32.3808 C.3       3 GLC5        0.0000 
     53 CA        -53.2470  -36.5590   30.0740 C.3       9 GLL5        0.0000 
     54 CA        -55.1320  -35.7890   33.6410 C.3       6 GLP5        0.0000 
     55 CA        -51.3907  -33.5749   30.1030 C.3       3 GLC5        0.0000 
     56 CA        -52.1950  -35.0630   31.6240 C.3       9 GLL5        0.0000 
@<TRIPOS>BOND
@<TRIPOS>SUBSTRUCTURE
     1 SEC2        4 GROUP        1 X    SEC  0     ROOT SEC X 2
     2 LYC4        1 GROUP        1 X    LYC  0     **** LYC X 4
     3 GLC5       13 GROUP        1 X    GLC  0     **** GLC X 6
     4 SEP2        6 GROUP        1 Y    SEP  0     ROOT SEP Y 9
     5 LYP4        3 GROUP        1 Y    LYP  0     **** LYP Y 11
     6 GLP5       15 GROUP        1 Y    GLP  0     **** GLP Y 13
     7 SEL2        5 GROUP        1 Z    SEL  0     ROOT SEL Z 16
     8 LYL4        2 GROUP        1 Z    LYL  0     **** LYL Z 18
     9 GLL5       14 GROUP        1 Z    GLL  0     **** GLL Z 20
@<TRIPOS>SET

