#    Name: 4gkm_683_2_ligand
#    Modification time : Mon Mar 24 22:24:58 2014

@<TRIPOS>MOLECULE
4gkm_683_2_ligand
   31    32     1     0     0
SMALL
NO_CHARGES


@<TRIPOS>ATOM
      1 OX1       -50.6690  -30.9490   32.6130 O.co2     1 683404      0.0000 
      2 CY1       -51.1450  -30.2200   31.7060 C.2       1 683404      0.0000 
      3 OX2       -50.3940  -29.4390   31.0630 O.co2     1 683404      0.0000 
      4 CY2       -52.6010  -30.2720   31.3740 C.ar      1 683404      0.0000 
      5 CY3       -53.2670  -29.0780   31.1460 C.ar      1 683404      0.0000 
      6 CY4       -54.6140  -29.0850   30.8290 C.ar      1 683404      0.0000 
      7 C4        -55.3060  -27.7910   30.5850 C.3       1 683404      0.0000 
      8 CY5       -55.3080  -30.2860   30.7420 C.ar      1 683404      0.0000 
      9 CY6       -54.6470  -31.4760   30.9880 C.ar      1 683404      0.0000 
     10 CY0       -53.2820  -31.4830   31.2850 C.ar      1 683404      0.0000 
     11 N1        -52.5560  -32.6910   31.5400 N.pl3     1 683404      0.0000 
     12 CX2       -52.8210  -33.9940   31.0070 C.ar      1 683404      0.0000 
     13 CX3       -53.6510  -34.2030   29.9090 C.ar      1 683404      0.0000 
     14 CX4       -53.8710  -35.4880   29.4530 C.ar      1 683404      0.0000 
     15 CX5       -53.2470  -36.5590   30.0740 C.ar      1 683404      0.0000 
     16 CX6       -52.4090  -36.3540   31.1600 C.ar      1 683404      0.0000 
     17 CX1       -52.1950  -35.0630   31.6240 C.ar      1 683404      0.0000 
     18 CX0       -51.3030  -34.8140   32.7990 C.2       1 683404      0.0000 
     19 OY1       -50.9040  -35.7730   33.5120 O.co2     1 683404      0.0000 
     20 OY2       -50.9610  -33.6340   33.0870 O.co2     1 683404      0.0000 
     21 H         -52.7576  -28.1846   31.2129 H         1 683404      0.0000 
     22 H         -56.3049  -30.2869   30.4965 H         1 683404      0.0000 
     23 H         -55.1619  -32.3705   30.9532 H         1 683404      0.0000 
     24 H         -51.7219  -32.6114   32.2031 H         1 683404      0.0000 
     25 H         -54.0953  -33.4021   29.4437 H         1 683404      0.0000 
     26 H         -54.4978  -35.6530   28.6523 H         1 683404      0.0000 
     27 H         -53.4075  -37.5185   29.7249 H         1 683404      0.0000 
     28 H         -51.9506  -37.1495   31.6173 H         1 683404      0.0000 
     29 H         -55.2675  -27.1926   31.3852 H         1 683404      0.0000 
     30 H         -54.8966  -27.2887   29.8234 H         1 683404      0.0000 
     31 H         -56.2723  -27.9225   30.3636 H         1 683404      0.0000 
@<TRIPOS>BOND
     1    2    1 ar   
     2    3    2 ar   
     3    4    2 1    
     4    5    4 ar   
     5   10    4 ar   
     6    6    5 ar   
     7   21    5 1    
     8    7    6 1    
     9    8    6 ar   
    10   29    7 1    
    11   30    7 1    
    12   31    7 1    
    13    9    8 ar   
    14   22    8 1    
    15   10    9 ar   
    16   23    9 1    
    17   11   10 1    
    18   12   11 1    
    19   24   11 1    
    20   13   12 ar   
    21   17   12 ar   
    22   14   13 ar   
    23   25   13 1    
    24   15   14 ar   
    25   26   14 1    
    26   16   15 ar   
    27   27   15 1    
    28   17   16 ar   
    29   28   16 1    
    30   18   17 1    
    31   19   18 ar   
    32   20   18 ar   
@<TRIPOS>SUBSTRUCTURE
     1 683404      1 GROUP   
@<TRIPOS>SET

