#    Name: 3kkv_B99_1_INTS_M
#    Modification time : Mon Mar 24 19:45:44 2014

@<TRIPOS>MOLECULE
3kkv_B99_1_INTS_M
   80     0     9     0     0
SMALL
NO_CHARGES


@<TRIPOS>ATOM
      1 CA        -30.8040  -12.2740   -6.3355 C.3       3 GLC5        0.0000 
      2 CA        -30.6920  -10.5550   -5.4560 C.3       9 GLL5        0.0000 
      3 CA        -30.9160  -13.9930   -7.2150 C.3       6 GLP5        0.0000 
      4 CA        -32.2470  -11.4685   -6.7385 C.3       3 GLC5        0.0000 
      5 CA        -33.8020  -12.3820   -8.0210 C.3       6 GLP5        0.0000 
      6 CA        -30.2730   -9.8260   -7.0645 C.3       3 GLC5        0.0000 
      7 CA        -29.8540   -9.0970   -8.6730 C.3       6 GLP5        0.0000 
      8 CA        -32.2315  -11.7100   -1.8025 C.3       3 GLC5        0.0000 
      9 CA        -31.9020   -9.9060   -0.6840 C.3       9 GLL5        0.0000 
     10 CA        -32.5610  -13.5140   -2.9210 C.3       6 GLP5        0.0000 
     11 CA        -33.4145   -9.2165    0.1020 C.3       3 GLC5        0.0000 
     12 CA        -34.9270   -8.5270    0.8880 C.3       6 GLP5        0.0000 
     13 CA        -33.0515  -10.9970    0.5625 C.3       3 GLC5        0.0000 
     14 CA        -34.2010  -12.0880    1.8090 C.3       6 GLP5        0.0000 
     15 CA        -31.3450  -10.4790    1.4815 C.3       3 GLC5        0.0000 
     16 CA        -30.5730   -9.9610   -0.3120 C.3       9 GLL5        0.0000 
     17 CA        -32.1170  -10.9970    3.2750 C.3       6 GLP5        0.0000 
     18 CA        -29.0875  -12.2510   -2.9670 C.3       3 GLC5        0.0000 
     19 CA        -29.5960  -10.2910   -2.5140 C.3       9 GLL5        0.0000 
     20 CA        -28.5790  -14.2110   -3.4200 C.3       6 GLP5        0.0000 
     21 CA        -25.0735   -7.7025   -0.0265 C.3       3 GLC5        0.0000 
     22 CA        -24.8460   -8.6290   -2.0450 C.3       9 GLL5        0.0000 
     23 CA        -25.3010   -6.7760    1.9920 C.3       6 GLP5        0.0000 
     24 OD1       -22.9995   -7.1525    0.2050 O.co2     2 ASC3        0.0000 
     25 OD1       -23.0400   -7.1990   -1.2980 O.co2     8 ASL3        0.0000 
     26 OD1       -22.9590   -7.1060    1.7080 O.co2     5 ASP3        0.0000 
     27 CA        -21.9540  -14.1400   -3.3395 C.3       3 GLC5        0.0000 
     28 CA        -23.0810  -13.3880   -1.5660 C.3       9 GLL5        0.0000 
     29 CA        -20.8270  -14.8920   -5.1130 C.3       6 GLP5        0.0000 
     30 CA        -26.1820  -12.0555   -0.6400 C.3       3 GLC5        0.0000 
     31 CA        -25.7600  -10.3100    0.6530 C.3       9 GLL5        0.0000 
     32 CA        -26.6040  -13.8010   -1.9330 C.3       6 GLP5        0.0000 
     33 CA        -25.6000  -12.2005    1.3005 C.3       3 GLC5        0.0000 
     34 CA        -25.4400  -14.0910    1.9480 C.3       6 GLP5        0.0000 
     35 N         -26.0850  -11.6635    2.2625 N.am      1 SEC2        0.0000 
     36 N         -26.6780  -11.1910    1.0480 N.am      7 SEL2        0.0000 
     37 N         -25.4920  -12.1360    3.4770 N.am      4 SEP2        0.0000 
     38 CA        -26.9415  -12.2935    1.8225 C.3       3 GLC5        0.0000 
     39 CA        -27.8560  -11.0870    0.4300 C.3       9 GLL5        0.0000 
     40 CA        -26.0270  -13.5000    3.2150 C.3       6 GLP5        0.0000 
     41 CA        -31.1285  -13.2070   -1.3835 C.3       3 GLC5        0.0000 
     42 CA        -29.6960  -12.9000    0.1540 C.3       9 GLL5        0.0000 
     43 CA        -30.8510  -15.5605    0.1975 C.3       3 GLC5        0.0000 
     44 CA        -30.4300  -13.5760    1.1030 C.3       9 GLL5        0.0000 
     45 CA        -31.2720  -17.5450   -0.7080 C.3       6 GLP5        0.0000 
     46 CA        -31.8460  -12.9650    2.0395 C.3       3 GLC5        0.0000 
     47 CA        -33.2620  -12.3540    2.9760 C.3       6 GLP5        0.0000 
     48 CA        -27.5595  -12.8675    2.7115 C.3       3 GLC5        0.0000 
     49 CA        -29.0920  -12.2350    2.2080 C.3       9 GLL5        0.0000 
     50 CA        -31.7963  -11.9845   -3.8655 C.3       3 GLC5        0.0000 
     51 CA        -31.3710  -10.3550   -4.1640 C.3       9 GLL5        0.0000 
     52 CA        -31.4913   -8.7195   -4.4790 C.3       3 GLC5        0.0000 
     53 CA        -31.9510   -6.9840   -4.1480 C.3       6 GLP5        0.0000 
     54 CA        -30.9383   -8.1323   -0.6950 C.3       3 GLC5        0.0000 
     55 CA        -30.6390   -6.3310   -0.8920 C.3       6 GLP5        0.0000 
     56 CA        -29.0947   -8.3025   -0.4625 C.3       3 GLC5        0.0000 
     57 CA        -29.4820  -10.1420   -1.1450 C.3       9 GLL5        0.0000 
     58 CA        -29.3600   -6.4490   -0.0790 C.3       6 GLP5        0.0000 
     59 CA        -31.4102  -11.8885   -2.8062 C.3       3 GLC5        0.0000 
     60 CA        -31.1052   -8.6235   -3.4197 C.3       3 GLC5        0.0000 
     61 CA        -30.9230  -10.2350   -2.8690 C.3       9 GLL5        0.0000 
     62 CA        -30.4492   -8.2970   -1.7917 C.3       3 GLC5        0.0000 
     63 CA        -27.3102  -12.2147   -0.9958 C.3       3 GLC5        0.0000 
     64 CA        -28.1770  -10.1700   -0.5470 C.3       9 GLL5        0.0000 
     65 CA        -27.9793   -7.8833   -0.3530 C.3       3 GLC5        0.0000 
     66 CA        -27.2100   -9.2730   -0.9390 C.3       9 GLL5        0.0000 
     67 CA        -21.5905  -15.0837    0.3065 C.3       3 GLC5        0.0000 
     68 CA        -22.0430  -12.7280    0.4990 C.3       9 GLL5        0.0000 
     69 CA        -20.8500  -16.9650    0.5170 C.3       6 GLP5        0.0000 
     70 CA        -23.0475  -15.3263   -1.6793 C.3       3 GLC5        0.0000 
     71 CA        -22.6190  -13.6770   -0.3070 C.3       9 GLL5        0.0000 
     72 CA        -23.2450  -17.1200   -2.4220 C.3       6 GLP5        0.0000 
     73 CA        -24.0730  -13.6931    0.6065 C.3       3 GLC5        0.0000 
     74 CA        -24.7665  -13.3166   -1.7296 C.3       3 GLC5        0.0000 
     75 CA        -25.7401   -8.2949    1.0025 C.3       3 GLC5        0.0000 
     76 CA        -27.9348  -13.1342   -0.7100 C.3       3 GLC5        0.0000 
     77 CA        -28.8350  -12.0350    0.8720 C.3       9 GLL5        0.0000 
     78 CA        -28.6274  -14.3089    1.1300 C.3       3 GLC5        0.0000 
     79 CA        -27.4070  -15.5960    1.4520 C.3       6 GLP5        0.0000 
     80 CA        -30.6479  -11.6741    2.3178 C.3       3 GLC5        0.0000 
@<TRIPOS>BOND
@<TRIPOS>SUBSTRUCTURE
     1 SEC2       35 GROUP        1 X    SEC  0     ROOT SEC X 2
     2 ASC3       24 GROUP        1 X    ASC  0     **** ASC X 3
     3 GLC5        1 GROUP        1 X    GLC  0     **** GLC X 6
     4 SEP2       37 GROUP        1 Y    SEP  0     ROOT SEP Y 9
     5 ASP3       26 GROUP        1 Y    ASP  0     **** ASP Y 10
     6 GLP5        3 GROUP        1 Y    GLP  0     **** GLP Y 13
     7 SEL2       36 GROUP        1 Z    SEL  0     ROOT SEL Z 16
     8 ASL3       25 GROUP        1 Z    ASL  0     **** ASL Z 17
     9 GLL5        2 GROUP        1 Z    GLL  0     **** GLL Z 20
@<TRIPOS>SET

