#    Name: 3kkv_B99_1_ligand
#    Modification time : Mon Mar 24 19:45:44 2014

@<TRIPOS>MOLECULE
3kkv_B99_1_ligand
   61    66     1     0     0
SMALL
NO_CHARGES


@<TRIPOS>ATOM
      1 C1        -30.6920  -10.5550   -5.4560 C.3       1 B99351      0.0000 
      2 C2        -31.3710  -10.3550   -4.1640 C.2       1 B99351      0.0000 
      3 N1        -32.7270  -10.2440   -4.0610 N.pl3     1 B99351      0.0000 
      4 N2        -33.1540  -10.0650   -2.7990 N.2       1 B99351      0.0000 
      5 C3        -32.0470  -10.0570   -2.0430 C.ar      1 B99351      0.0000 
      6 C4        -31.9020   -9.9060   -0.6840 C.ar      1 B99351      0.0000 
      7 C5        -30.5730   -9.9610   -0.3120 C.ar      1 B99351      0.0000 
      8 C6        -29.4820  -10.1420   -1.1450 C.ar      1 B99351      0.0000 
      9 C7        -29.5960  -10.2910   -2.5140 C.ar      1 B99351      0.0000 
     10 C8        -30.9230  -10.2350   -2.8690 C.ar      1 B99351      0.0000 
     11 C9        -28.1770  -10.1700   -0.5470 C.ar      1 B99351      0.0000 
     12 C10       -27.2100   -9.2730   -0.9390 C.ar      1 B99351      0.0000 
     13 C11       -25.9870   -9.3620   -0.3150 C.ar      1 B99351      0.0000 
     14 O1        -24.9700   -8.4930   -0.6440 O.3       1 B99351      0.0000 
     15 C12       -24.8460   -8.6290   -2.0450 C.3       1 B99351      0.0000 
     16 C13       -23.5540   -7.9640   -2.4580 C.3       1 B99351      0.0000 
     17 N3        -23.0400   -7.1990   -1.2980 N.4       1 B99351      0.0000 
     18 C14       -22.5030   -9.0060   -2.7410 C.3       1 B99351      0.0000 
     19 C15       -22.1800   -9.7760   -1.5330 C.2       1 B99351      0.0000 
     20 C16       -21.5750   -9.2940   -0.3950 C.2       1 B99351      0.0000 
     21 N4        -21.4610  -10.3350    0.4770 N.pl3     1 B99351      0.0000 
     22 C17       -21.9740  -11.4780   -0.0640 C.ar      1 B99351      0.0000 
     23 C18       -22.0430  -12.7280    0.4990 C.ar      1 B99351      0.0000 
     24 C19       -22.6190  -13.6770   -0.3070 C.ar      1 B99351      0.0000 
     25 C20       -23.0810  -13.3880   -1.5660 C.ar      1 B99351      0.0000 
     26 C21       -23.0080  -12.1320   -2.1160 C.ar      1 B99351      0.0000 
     27 C22       -22.4330  -11.1560   -1.3280 C.ar      1 B99351      0.0000 
     28 C23       -25.7600  -10.3100    0.6530 C.ar      1 B99351      0.0000 
     29 N5        -26.6780  -11.1910    1.0480 N.ar      1 B99351      0.0000 
     30 C24       -27.8560  -11.0870    0.4300 C.ar      1 B99351      0.0000 
     31 C25       -28.8350  -12.0350    0.8720 C.2       1 B99351      0.0000 
     32 C26       -29.6960  -12.9000    0.1540 C.2       1 B99351      0.0000 
     33 C27       -30.4300  -13.5760    1.1030 C.2       1 B99351      0.0000 
     34 O2        -30.0640  -13.1770    2.3520 O.3       1 B99351      0.0000 
     35 C28       -29.0920  -12.2350    2.2080 C.2       1 B99351      0.0000 
     36 H         -33.3326  -10.2923   -4.8506 H         1 B99351      0.0000 
     37 H         -32.6390   -9.7768   -0.0614 H         1 B99351      0.0000 
     38 H         -30.3607   -9.8512    0.7415 H         1 B99351      0.0000 
     39 H         -28.8608  -10.4142   -3.1195 H         1 B99351      0.0000 
     40 H         -27.3902   -8.5793   -1.6538 H         1 B99351      0.0000 
     41 H         -25.6641   -8.1424   -2.5788 H         1 B99351      0.0000 
     42 H         -24.8035   -9.6749   -2.3539 H         1 B99351      0.0000 
     43 H         -23.6913   -7.3441   -3.2836 H         1 B99351      0.0000 
     44 H         -21.6033   -8.5054   -3.1261 H         1 B99351      0.0000 
     45 H         -22.8716   -9.6744   -3.5321 H         1 B99351      0.0000 
     46 H         -21.2914   -8.3976   -0.2511 H         1 B99351      0.0000 
     47 H         -21.0666  -10.2727    1.3669 H         1 B99351      0.0000 
     48 H         -21.7043  -12.9281    1.4129 H         1 B99351      0.0000 
     49 H         -22.7095  -14.6601    0.0527 H         1 B99351      0.0000 
     50 H         -23.5107  -14.1634   -2.1363 H         1 B99351      0.0000 
     51 H         -23.3529  -11.9314   -3.0399 H         1 B99351      0.0000 
     52 H         -24.7941  -10.3275    1.1007 H         1 B99351      0.0000 
     53 H         -29.7393  -12.9786   -0.7729 H         1 B99351      0.0000 
     54 H         -31.1080  -14.2391    0.9016 H         1 B99351      0.0000 
     55 H         -28.6456  -11.7725    2.9299 H         1 B99351      0.0000 
     56 H         -29.6994  -10.6128   -5.3489 H         1 B99351      0.0000 
     57 H         -30.9880  -11.3984   -5.9045 H         1 B99351      0.0000 
     58 H         -30.8751   -9.8051   -6.0918 H         1 B99351      0.0000 
     59 H         -22.4386   -7.7545   -0.7238 H         1 B99351      0.0000 
     60 H         -22.5140   -6.3983   -1.5848 H         1 B99351      0.0000 
     61 H         -23.7808   -6.8689   -0.7131 H         1 B99351      0.0000 
@<TRIPOS>BOND
     1    2    1 1    
     2   56    1 1    
     3   57    1 1    
     4   58    1 1    
     5    3    2 1    
     6   10    2 2    
     7    4    3 1    
     8   36    3 1    
     9    5    4 2    
    10    6    5 ar   
    11   10    5 ar   
    12    7    6 ar   
    13   37    6 1    
    14    8    7 ar   
    15   38    7 1    
    16    9    8 ar   
    17   11    8 1    
    18   10    9 ar   
    19   39    9 1    
    20   12   11 ar   
    21   30   11 ar   
    22   13   12 ar   
    23   40   12 1    
    24   14   13 1    
    25   28   13 ar   
    26   15   14 1    
    27   16   15 1    
    28   41   15 1    
    29   42   15 1    
    30   17   16 1    
    31   18   16 1    
    32   43   16 1    
    33   59   17 1    
    34   60   17 1    
    35   61   17 1    
    36   19   18 1    
    37   44   18 1    
    38   45   18 1    
    39   20   19 2    
    40   27   19 1    
    41   21   20 1    
    42   46   20 1    
    43   22   21 1    
    44   47   21 1    
    45   23   22 ar   
    46   27   22 ar   
    47   24   23 ar   
    48   48   23 1    
    49   25   24 ar   
    50   49   24 1    
    51   26   25 ar   
    52   50   25 1    
    53   27   26 ar   
    54   51   26 1    
    55   29   28 ar   
    56   52   28 1    
    57   30   29 ar   
    58   31   30 1    
    59   32   31 1    
    60   35   31 2    
    61   33   32 2    
    62   53   32 1    
    63   34   33 1    
    64   54   33 1    
    65   35   34 1    
    66   55   35 1    
@<TRIPOS>SUBSTRUCTURE
     1 B99351      1 GROUP   
@<TRIPOS>SET

