#    Name: 4ftm_1HK_1_INTS_M
#    Modification time : Mon Mar 24 20:45:19 2014

@<TRIPOS>MOLECULE
4ftm_1HK_1_INTS_M
   74     0     9     0     0
SMALL
NO_CHARGES


@<TRIPOS>ATOM
      1 N           6.0975   -3.3480   14.3020 N.am      2 SEC2        0.0000 
      2 N           7.3960   -4.2630   14.4740 N.am      8 SEL2        0.0000 
      3 N           4.7990   -2.4330   14.1300 N.am      5 SEP2        0.0000 
      4 N           7.7205   -4.1870   15.9920 N.am      2 SEC2        0.0000 
      5 N           8.0450   -4.1110   17.5100 N.am      5 SEP2        0.0000 
      6 O           6.9125   -5.4285   14.4390 O.2       1 ALC1        0.0000 
      7 O           7.3960   -4.2630   14.4740 O.2       7 ALL1        0.0000 
      8 O           6.4290   -6.5940   14.4040 O.2       4 ALP1        0.0000 
      9 CA         10.2380    0.3770   13.2010 C.3       3 GLC5        0.0000 
     10 CA          8.8240   -0.5460   13.6590 C.3       9 GLL5        0.0000 
     11 CA         11.6520    1.3000   12.7430 C.3       6 GLP5        0.0000 
     12 CA          8.2220   -1.2755   12.0140 C.3       3 GLC5        0.0000 
     13 CA          7.6200   -2.0050   10.3690 C.3       6 GLP5        0.0000 
     14 CA         10.5535   -0.9285   14.9860 C.3       3 GLC5        0.0000 
     15 CA         12.2830   -1.3110   16.3130 C.3       6 GLP5        0.0000 
     16 CA          8.3230   -0.7725   15.4545 C.3       3 GLC5        0.0000 
     17 CA          7.8220   -0.9990   17.2500 C.3       6 GLP5        0.0000 
     18 CA         10.8775   -1.0525   12.0885 C.3       3 GLC5        0.0000 
     19 CA         10.3480   -2.8460   12.8380 C.3       9 GLL5        0.0000 
     20 CA         11.4070    0.7410   11.3390 C.3       6 GLP5        0.0000 
     21 CA         12.0275   -1.1475   11.0745 C.3       3 GLC5        0.0000 
     22 CA         12.6480   -3.0360   10.8100 C.3       9 GLL5        0.0000 
     23 CA         14.3765   -5.9625    9.5820 C.3       3 GLC5        0.0000 
     24 CA         15.6110   -5.0040   10.8750 C.3       9 GLL5        0.0000 
     25 CA         13.1420   -6.9210    8.2890 C.3       6 GLP5        0.0000 
     26 N          16.1930   -0.6775    8.4215 N.am      2 SEC2        0.0000 
     27 N          15.6070   -2.0060    8.9810 N.am      8 SEL2        0.0000 
     28 N          16.7790    0.6510    7.8620 N.am      5 SEP2        0.0000 
     29 O          13.6755   -0.8670    8.8425 O.2       1 ALC1        0.0000 
     30 O          14.3030   -1.8990    9.3830 O.2       7 ALL1        0.0000 
     31 O          13.0480    0.1650    8.3020 O.2       4 ALP1        0.0000 
     32 CA         20.0475   -5.2580   12.6545 C.3       3 GLC5        0.0000 
     33 CA         19.4200   -5.4450   10.5520 C.3       9 GLL5        0.0000 
     34 CA         20.6750   -5.0710   14.7570 C.3       6 GLP5        0.0000 
     35 CA         17.9965   -4.1625   12.5215 C.3       3 GLC5        0.0000 
     36 CA         18.1310   -5.7020   10.9910 C.3       9 GLL5        0.0000 
     37 CA         17.8620   -2.6230   14.0520 C.3       6 GLP5        0.0000 
     38 CA          8.2355   -2.7802   12.0098 C.3       3 GLC5        0.0000 
     39 CA          9.1210   -2.9290   13.4920 C.3       9 GLL5        0.0000 
     40 CA          9.5785   -4.0683   15.2398 C.3       3 GLC5        0.0000 
     41 CA         10.3060   -4.5810   16.8290 C.3       6 GLP5        0.0000 
     42 CA          9.7703   -3.7400   11.1490 C.3       3 GLC5        0.0000 
     43 CA          8.8360   -4.0520    9.6220 C.3       6 GLP5        0.0000 
     44 CA         10.5053   -4.0045   14.7525 C.3       3 GLC5        0.0000 
     45 CA          8.9737   -6.8715   12.3747 C.3       3 GLC5        0.0000 
     46 CA          9.2990   -5.3350   13.5030 C.3       9 GLL5        0.0000 
     47 CA          8.0320   -8.4520   11.5550 C.3       6 GLP5        0.0000 
     48 CA          9.3758   -4.6715   11.4082 C.3       3 GLC5        0.0000 
     49 CA         10.1107   -4.9360   15.0117 C.3       3 GLC5        0.0000 
     50 CA         10.5320   -5.2470   12.8860 C.3       9 GLL5        0.0000 
     51 CA         10.6375   -3.7875   10.4170 C.3       3 GLC5        0.0000 
     52 CA         12.2300   -4.0100   11.6140 C.3       9 GLL5        0.0000 
     53 CA         14.1745   -2.6390   11.9730 C.3       3 GLC5        0.0000 
     54 CA         15.9100   -1.7550   12.7340 C.3       6 GLP5        0.0000 
     55 CA         12.3731   -2.7535   13.7000 C.3       3 GLC5        0.0000 
     56 CA         13.2790   -1.7880   15.2550 C.3       6 GLP5        0.0000 
     57 CA         13.8110   -5.1387    9.2605 C.3       3 GLC5        0.0000 
     58 CA         13.9140   -2.9320   10.1760 C.3       9 GLL5        0.0000 
     59 CA         15.1950   -2.5557   11.4830 C.3       3 GLC5        0.0000 
     60 CA         15.0460   -3.7810   10.2880 C.3       9 GLL5        0.0000 
     61 CA         13.5652   -3.3388    8.5237 C.3       3 GLC5        0.0000 
     62 CA         12.9670   -3.2950    6.6570 C.3       6 GLP5        0.0000 
     63 CA         17.6208   -6.2210    9.1017 C.3       3 GLC5        0.0000 
     64 CA         17.0740   -4.9080   10.5620 C.3       9 GLL5        0.0000 
     65 CA         17.6390   -7.1370    7.4270 C.3       6 GLP5        0.0000 
     66 CA         17.3342   -4.4728    7.7980 C.3       3 GLC5        0.0000 
     67 CA         17.3190   -3.8440    9.6970 C.3       9 GLL5        0.0000 
     68 CA         16.7030   -5.2220    6.1300 C.3       6 GLP5        0.0000 
     69 CA         16.3704   -3.0775   11.4709 C.3       3 GLC5        0.0000 
     70 CA         20.6347   -2.9440   10.3247 C.3       3 GLC5        0.0000 
     71 CA         18.6120   -3.6030    9.2350 C.3       9 GLL5        0.0000 
     72 CA         22.1340   -1.8840   11.1970 C.3       6 GLP5        0.0000 
     73 CA         18.5892   -6.0310    8.7690 C.3       3 GLC5        0.0000 
     74 CA         19.6590   -4.4050    9.6700 C.3       9 GLL5        0.0000 
@<TRIPOS>BOND
@<TRIPOS>SUBSTRUCTURE
     1 ALC1        6 GROUP        1 X    ALC  0     ROOT ALC X 1
     2 SEC2        1 GROUP        1 X    SEC  0     **** SEC X 2
     3 GLC5        9 GROUP        1 X    GLC  0     **** GLC X 6
     4 ALP1        8 GROUP        1 Y    ALP  0     ROOT ALP Y 8
     5 SEP2        3 GROUP        1 Y    SEP  0     **** SEP Y 9
     6 GLP5       11 GROUP        1 Y    GLP  0     **** GLP Y 13
     7 ALL1        7 GROUP        1 Z    ALL  0     ROOT ALL Z 15
     8 SEL2        2 GROUP        1 Z    SEL  0     **** SEL Z 16
     9 GLL5       10 GROUP        1 Z    GLL  0     **** GLL Z 20
@<TRIPOS>SET

