#    Name: 4ftm_1HK_1_ligand
#    Modification time : Mon Mar 24 20:45:19 2014

@<TRIPOS>MOLECULE
4ftm_1HK_1_ligand
   41    44     1     0     0
SMALL
NO_CHARGES


@<TRIPOS>ATOM
      1 O1          7.3960   -4.2630   14.4740 O.3       1 1HK301      0.0000 
      2 C1          8.5810   -4.1820   13.8090 C.ar      1 1HK301      0.0000 
      3 C18         9.1210   -2.9290   13.4920 C.ar      1 1HK301      0.0000 
      4 O2          8.3530   -1.8680   13.9020 O.3       1 1HK301      0.0000 
      5 C19         8.8240   -0.5460   13.6590 C.3       1 1HK301      0.0000 
      6 C17        10.3480   -2.8460   12.8380 C.ar      1 1HK301      0.0000 
      7 C4         11.0610   -4.0100   12.5140 C.ar      1 1HK301      0.0000 
      8 C3         10.5320   -5.2470   12.8860 C.ar      1 1HK301      0.0000 
      9 C2          9.2990   -5.3350   13.5030 C.ar      1 1HK301      0.0000 
     10 C5         12.2300   -4.0100   11.6140 C.3       1 1HK301      0.0000 
     11 C6         12.6480   -3.0360   10.8100 C.3       1 1HK301      0.0000 
     12 C7         13.9140   -2.9320   10.1760 C.2       1 1HK301      0.0000 
     13 C9         15.0460   -3.7810   10.2880 C.2       1 1HK301      0.0000 
     14 C10        15.6110   -5.0040   10.8750 C.3       1 1HK301      0.0000 
     15 C11        17.0740   -4.9080   10.5620 C.ar      1 1HK301      0.0000 
     16 C16        17.3190   -3.8440    9.6970 C.ar      1 1HK301      0.0000 
     17 C8         16.0640   -3.1320    9.5340 C.2       1 1HK301      0.0000 
     18 N2         15.6070   -2.0060    8.9810 N.2       1 1HK301      0.0000 
     19 N1         14.3030   -1.8990    9.3830 N.pl3     1 1HK301      0.0000 
     20 C15        18.6120   -3.6030    9.2350 C.ar      1 1HK301      0.0000 
     21 C14        19.6590   -4.4050    9.6700 C.ar      1 1HK301      0.0000 
     22 C13        19.4200   -5.4450   10.5520 C.ar      1 1HK301      0.0000 
     23 C12        18.1310   -5.7020   10.9910 C.ar      1 1HK301      0.0000 
     24 H          10.7379   -1.9269   12.5889 H         1 1HK301      0.0000 
     25 H          11.0759   -6.1068   12.6942 H         1 1HK301      0.0000 
     26 H           8.9038   -6.2584   13.7404 H         1 1HK301      0.0000 
     27 H          12.1294   -5.0287   10.9947 H         1 1HK301      0.0000 
     28 H          13.1357   -4.3816   12.3018 H         1 1HK301      0.0000 
     29 H          12.4659   -1.9824   11.3463 H         1 1HK301      0.0000 
     30 H          11.8376   -2.8684    9.9463 H         1 1HK301      0.0000 
     31 H          15.1999   -5.8755   10.4091 H         1 1HK301      0.0000 
     32 H          15.4703   -5.0177   11.9359 H         1 1HK301      0.0000 
     33 H          13.7134   -1.1509    9.1225 H         1 1HK301      0.0000 
     34 H          18.7869   -2.8359    8.5765 H         1 1HK301      0.0000 
     35 H          20.6168   -4.2237    9.3339 H         1 1HK301      0.0000 
     36 H          20.2019   -6.0296   10.8831 H         1 1HK301      0.0000 
     37 H          17.9535   -6.4846   11.6382 H         1 1HK301      0.0000 
     38 H           9.7025   -0.3767   14.1058 H         1 1HK301      0.0000 
     39 H           8.9531   -0.3713   12.6829 H         1 1HK301      0.0000 
     40 H           8.1848    0.1442   13.9983 H         1 1HK301      0.0000 
     41 H           6.8997   -5.0081   14.0284 H         1 1HK301      0.0000 
@<TRIPOS>BOND
     1    2    1 1    
     2   41    1 1    
     3    3    2 ar   
     4    9    2 ar   
     5    4    3 1    
     6    6    3 ar   
     7    5    4 1    
     8   38    5 1    
     9   39    5 1    
    10   40    5 1    
    11    7    6 ar   
    12   24    6 1    
    13    8    7 ar   
    14   10    7 1    
    15    9    8 ar   
    16   25    8 1    
    17   26    9 1    
    18   11   10 1    
    19   27   10 1    
    20   28   10 1    
    21   12   11 1    
    22   29   11 1    
    23   30   11 1    
    24   13   12 2    
    25   19   12 1    
    26   14   13 1    
    27   17   13 1    
    28   15   14 1    
    29   31   14 1    
    30   32   14 1    
    31   16   15 ar   
    32   23   15 ar   
    33   17   16 1    
    34   20   16 ar   
    35   18   17 2    
    36   19   18 1    
    37   33   19 1    
    38   21   20 ar   
    39   34   20 1    
    40   22   21 ar   
    41   35   21 1    
    42   23   22 ar   
    43   36   22 1    
    44   37   23 1    
@<TRIPOS>SUBSTRUCTURE
     1 1HK301      1 GROUP   
@<TRIPOS>SET

