#    Name: 4hcy_0YN_1_INTS_M
#    Modification time : Tue Mar 25 00:49:33 2014

@<TRIPOS>MOLECULE
4hcy_0YN_1_INTS_M
   39     0     9     0     0
SMALL
NO_CHARGES


@<TRIPOS>ATOM
      1 CA         60.4590   18.1745   28.9535 C.3       3 GLC5        0.0000 
      2 CA         62.1120   17.2850   29.5650 C.3       9 GLL5        0.0000 
      3 CA         58.8060   19.0640   28.3420 C.3       6 GLP5        0.0000 
      4 CA         62.3935   17.9565   31.2750 C.3       3 GLC5        0.0000 
      5 CA         62.6750   18.6280   32.9850 C.3       6 GLP5        0.0000 
      6 CA         63.6055   18.5195   23.2080 C.3       3 GLC5        0.0000 
      7 CA         63.0970   19.7220   24.4700 C.3       9 GLL5        0.0000 
      8 CA         64.1140   17.3170   21.9460 C.3       6 GLP5        0.0000 
      9 CA         64.9455   20.3960   24.9630 C.3       3 GLC5        0.0000 
     10 CA         66.7940   21.0700   25.4560 C.3       6 GLP5        0.0000 
     11 CA         61.5125   22.5690   23.2765 C.3       3 GLC5        0.0000 
     12 CA         62.7960   21.7090   22.1700 C.3       9 GLL5        0.0000 
     13 CA         60.2290   23.4290   24.3830 C.3       6 GLP5        0.0000 
     14 CA         62.8955   23.4470   21.1025 C.3       3 GLC5        0.0000 
     15 CA         62.9950   25.1850   20.0350 C.3       6 GLP5        0.0000 
     16 CA         64.6940   22.0230   22.7910 C.3       3 GLC5        0.0000 
     17 CA         66.5920   22.3370   23.4120 C.3       6 GLP5        0.0000 
     18 CA         59.2920   22.1840   22.6925 C.3       3 GLC5        0.0000 
     19 CA         59.6170   21.4860   20.8980 C.3       9 GLL5        0.0000 
     20 CA         58.9670   22.8820   24.4870 C.3       6 GLP5        0.0000 
     21 N          61.7580   19.8035   29.2790 N.am      2 SEC2        0.0000 
     22 N          62.4200   19.2710   28.1270 N.am      8 SEL2        0.0000 
     23 N          61.0960   20.3360   30.4310 N.am      5 SEP2        0.0000 
     24 O          62.3445   21.6980   28.2515 O.2       1 ALC1        0.0000 
     25 O          62.6970   21.2100   26.8410 O.2       7 ALL1        0.0000 
     26 O          61.9920   22.1860   29.6620 O.2       4 ALP1        0.0000 
     27 CA         64.1163   17.3365   28.4932 C.3       3 GLC5        0.0000 
     28 CA         62.3710   17.9250   28.2280 C.3       9 GLL5        0.0000 
     29 CA         65.9910   17.0680   28.0900 C.3       6 GLP5        0.0000 
     30 CA         58.4350   18.7718   24.5048 C.3       3 GLC5        0.0000 
     31 CA         60.6580   19.1250   23.9600 C.3       9 GLL5        0.0000 
     32 CA         56.8440   18.1900   25.5980 C.3       6 GLP5        0.0000 
     33 CA         60.5922   23.0200   19.3977 C.3       3 GLC5        0.0000 
     34 CA         61.2000   24.6680   18.5540 C.3       6 GLP5        0.0000 
     35 CA         64.6958   20.2177   26.6653 C.3       3 GLC5        0.0000 
     36 CA         62.8350   19.0770   25.8130 C.3       9 GLL5        0.0000 
     37 CA         66.6490   20.9670   26.9560 C.3       6 GLP5        0.0000 
     38 CA         64.2703   17.1975   26.2632 C.3       3 GLC5        0.0000 
     39 CA         65.7310   16.0090   26.6500 C.3       6 GLP5        0.0000 
@<TRIPOS>BOND
@<TRIPOS>SUBSTRUCTURE
     1 ALC1       24 GROUP        1 X    ALC  0     ROOT ALC X 1
     2 SEC2       21 GROUP        1 X    SEC  0     **** SEC X 2
     3 GLC5        1 GROUP        1 X    GLC  0     **** GLC X 6
     4 ALP1       26 GROUP        1 Y    ALP  0     ROOT ALP Y 8
     5 SEP2       23 GROUP        1 Y    SEP  0     **** SEP Y 9
     6 GLP5        3 GROUP        1 Y    GLP  0     **** GLP Y 13
     7 ALL1       25 GROUP        1 Z    ALL  0     ROOT ALL Z 15
     8 SEL2       22 GROUP        1 Z    SEL  0     **** SEL Z 16
     9 GLL5        2 GROUP        1 Z    GLL  0     **** GLL Z 20
@<TRIPOS>SET

