#    Name: 4hcy_0YN_1_ligand
#    Modification time : Tue Mar 25 00:49:34 2014

@<TRIPOS>MOLECULE
4hcy_0YN_1_ligand
   35    36     1     0     0
SMALL
NO_CHARGES


@<TRIPOS>ATOM
      1 C2A        62.1120   17.2850   29.5650 C.3       1 0YN401      0.0000 
      2 C35        63.0970   19.7220   24.4700 C.3       1 0YN401      0.0000 
      3 C2         60.6580   19.1250   23.9600 C.2       1 0YN401      0.0000 
      4 S1         59.3940   19.5820   22.8630 S.3       1 0YN401      0.0000 
      5 C5         60.3210   20.7650   22.0230 C.2       1 0YN401      0.0000 
      6 C4         61.6850   20.7990   22.6250 C.2       1 0YN401      0.0000 
      7 C4A        62.7960   21.7090   22.1700 C.3       1 0YN401      0.0000 
      8 C5A        59.6170   21.4860   20.8980 C.3       1 0YN401      0.0000 
      9 C5B        60.3520   21.2580   19.5850 C.3       1 0YN401      0.0000 
     10 O5G        59.5630   21.7650   18.5060 O.3       1 0YN401      0.0000 
     11 N1'        62.5520   17.1480   27.1380 N.ar      1 0YN401      0.0000 
     12 C2'        62.3710   17.9250   28.2280 C.ar      1 0YN401      0.0000 
     13 N3'        62.4200   19.2710   28.1270 N.ar      1 0YN401      0.0000 
     14 C4'        62.6500   19.8600   26.9360 C.ar      1 0YN401      0.0000 
     15 N4'        62.6970   21.2100   26.8410 N.pl3     1 0YN401      0.0000 
     16 C5'        62.8350   19.0770   25.8130 C.ar      1 0YN401      0.0000 
     17 C6'        62.7840   17.6950   25.9400 C.ar      1 0YN401      0.0000 
     18 C3         61.8110   19.8800   23.6910 C.2       1 0YN401      0.0000 
     19 H          63.7926   19.1025   23.9002 H         1 0YN401      0.0000 
     20 H          63.5521   20.7029   24.6219 H         1 0YN401      0.0000 
     21 H          60.4342   18.4817   24.5504 H         1 0YN401      0.0000 
     22 H          59.5861   22.5536   21.1100 H         1 0YN401      0.0000 
     23 H          58.5975   21.1147   20.8065 H         1 0YN401      0.0000 
     24 H          60.5348   20.1833   19.4825 H         1 0YN401      0.0000 
     25 H          61.3218   21.7622   19.6489 H         1 0YN401      0.0000 
     26 H          62.8389   21.5819   25.9236 H         1 0YN401      0.0000 
     27 H          62.5856   21.7155   27.6966 H         1 0YN401      0.0000 
     28 H          62.9279   17.1111   25.0969 H         1 0YN401      0.0000 
     29 H          62.8632   16.6857   29.8416 H         1 0YN401      0.0000 
     30 H          61.9998   17.9670   30.2877 H         1 0YN401      0.0000 
     31 H          61.2812   16.7285   29.5556 H         1 0YN401      0.0000 
     32 H          63.6287   21.5759   22.7074 H         1 0YN401      0.0000 
     33 H          63.0368   21.5510   21.2124 H         1 0YN401      0.0000 
     34 H          62.5442   22.6731   22.2537 H         1 0YN401      0.0000 
     35 H          60.1404   22.3424   19.0834 H         1 0YN401      0.0000 
@<TRIPOS>BOND
     1   12    1 1    
     2   29    1 1    
     3   30    1 1    
     4   31    1 1    
     5   16    2 1    
     6   18    2 1    
     7   19    2 1    
     8   20    2 1    
     9    4    3 1    
    10   18    3 2    
    11   21    3 1    
    12    5    4 1    
    13    6    5 2    
    14    8    5 1    
    15    7    6 1    
    16   18    6 1    
    17   32    7 1    
    18   33    7 1    
    19   34    7 1    
    20    9    8 1    
    21   22    8 1    
    22   23    8 1    
    23   10    9 1    
    24   24    9 1    
    25   25    9 1    
    26   35   10 1    
    27   12   11 ar   
    28   17   11 ar   
    29   13   12 ar   
    30   14   13 ar   
    31   15   14 1    
    32   16   14 ar   
    33   26   15 1    
    34   27   15 1    
    35   17   16 ar   
    36   28   17 1    
@<TRIPOS>SUBSTRUCTURE
     1 0YN401      1 GROUP   
@<TRIPOS>SET

