#    Name: 3et2_ET1_1_INTS_M
#    Modification time : Tue Mar 25 02:25:56 2014

@<TRIPOS>MOLECULE
3et2_ET1_1_INTS_M
   74     0     6     0     0
SMALL
NO_CHARGES


@<TRIPOS>ATOM
      1 CA         33.5850   12.9450   60.5400 C.3       2 GLC5        0.0000 
      2 CA         35.6650   12.8190   60.2840 C.3       6 GLL5        0.0000 
      3 CA         31.5050   13.0710   60.7960 C.3       4 GLP5        0.0000 
      4 CA         35.2240   14.5625   60.5660 C.3       2 GLC5        0.0000 
      5 CA         34.7830   16.3060   60.8480 C.3       4 GLP5        0.0000 
      6 CA         30.2155    9.1410   62.9330 C.3       2 GLC5        0.0000 
      7 CA         30.9150    8.5230   61.0660 C.3       6 GLL5        0.0000 
      8 CA         29.5160    9.7590   64.8000 C.3       4 GLP5        0.0000 
      9 CA         31.9740    6.9875   57.3865 C.3       2 GLC5        0.0000 
     10 CA         30.8900    6.7310   58.9090 C.3       6 GLL5        0.0000 
     11 CA         33.0580    7.2440   55.8640 C.3       4 GLP5        0.0000 
     12 CA         29.5990    5.0450   58.6960 C.3       2 GLC5        0.0000 
     13 CA         28.3080    3.3590   58.4830 C.3       4 GLP5        0.0000 
     14 CA         32.5880    7.8725   58.2090 C.3       2 GLC5        0.0000 
     15 CA         31.9320    6.8020   59.8140 C.3       6 GLL5        0.0000 
     16 CA         33.2440    8.9430   56.6040 C.3       4 GLP5        0.0000 
     17 CA         34.4570    6.8610   56.9615 C.3       2 GLC5        0.0000 
     18 CA         35.8560    6.4780   58.0590 C.3       6 GLL5        0.0000 
     19 CA         35.9580    5.8710   53.9495 C.3       2 GLC5        0.0000 
     20 CA         36.9700    6.0220   55.5900 C.3       6 GLL5        0.0000 
     21 CA         34.9460    5.7200   52.3090 C.3       4 GLP5        0.0000 
     22 CA         36.9355    7.8560   54.6945 C.3       2 GLC5        0.0000 
     23 CA         36.9010    9.6900   53.7990 C.3       4 GLP5        0.0000 
     24 CA         35.0140    6.6330   55.7270 C.3       2 GLC5        0.0000 
     25 CA         37.5605    4.7090   53.9895 C.3       2 GLC5        0.0000 
     26 CA         38.1510    3.3960   52.3890 C.3       4 GLP5        0.0000 
     27 CA         37.7075   11.5205   58.4555 C.3       2 GLC5        0.0000 
     28 CA         36.1790   11.5690   59.5710 C.3       6 GLL5        0.0000 
     29 CA         39.2360   11.4720   57.3400 C.3       4 GLP5        0.0000 
     30 CA         31.5245    8.2595   57.8415 C.3       2 GLC5        0.0000 
     31 CA         29.8050    7.5760   59.0790 C.3       6 GLL5        0.0000 
     32 N          37.2060   11.9820   62.9735 N.am      1 SEC2        0.0000 
     33 N          37.2790   13.4310   61.9990 N.am      5 SEL2        0.0000 
     34 N          37.1330   10.5330   63.9480 N.am      3 SEP2        0.0000 
     35 N          37.4025   13.4660   63.2565 N.am      1 SEC2        0.0000 
     36 N          37.5260   13.5010   64.5140 N.am      3 SEP2        0.0000 
     37 N          35.1170   12.8350   64.0660 N.am      1 SEC2        0.0000 
     38 N          35.4630   12.3810   62.6940 N.am      5 SEL2        0.0000 
     39 N          34.7710   13.2890   65.4380 N.am      3 SEP2        0.0000 
     40 N          36.2980   11.4570   63.3210 N.am      1 SEC2        0.0000 
     41 CA         31.1445    7.3240   56.3390 C.3       2 GLC5        0.0000 
     42 CA         29.2310    7.4040   56.8140 C.3       6 GLL5        0.0000 
     43 CA         28.6390    9.3565   56.9965 C.3       2 GLC5        0.0000 
     44 CA         28.0470   11.3090   57.1790 C.3       4 GLP5        0.0000 
     45 CA         28.7695    5.3815   57.6485 C.3       2 GLC5        0.0000 
     46 CA         28.2550    6.0860   55.3550 C.3       2 GLC5        0.0000 
     47 CA         27.2790    4.7680   53.8960 C.3       4 GLP5        0.0000 
     48 CA         34.7410   12.7950   58.5547 C.3       2 GLC5        0.0000 
     49 CA         33.5600   13.3960   57.1820 C.3       4 GLP5        0.0000 
     50 CA         29.9995    6.6575   61.3877 C.3       2 GLC5        0.0000 
     51 CA         28.5360    5.2400   61.7650 C.3       4 GLP5        0.0000 
     52 CA         29.9735    6.0032   60.5633 C.3       2 GLC5        0.0000 
     53 CA         32.0770    4.7052   59.2497 C.3       2 GLC5        0.0000 
     54 CA         32.7430    2.6440   59.1380 C.3       4 GLP5        0.0000 
     55 CA         34.4587    9.2985   58.0670 C.3       2 GLC5        0.0000 
     56 CA         35.8010    9.0530   59.1300 C.3       6 GLL5        0.0000 
     57 CA         36.8380    7.6073   60.2140 C.3       2 GLC5        0.0000 
     58 CA         38.2370    6.6760   60.9810 C.3       4 GLP5        0.0000 
     59 CA         34.1720    8.1642   58.0433 C.3       2 GLC5        0.0000 
     60 CA         35.0770    8.0240   59.7640 C.3       6 GLL5        0.0000 
     61 CA         36.7393    8.9103   55.7477 C.3       2 GLC5        0.0000 
     62 CA         36.5660    8.7730   57.9690 C.3       6 GLL5        0.0000 
     63 CA         34.9108    8.5368   57.1502 C.3       2 GLC5        0.0000 
     64 CA         36.5890    7.4880   57.4240 C.3       6 GLL5        0.0000 
     65 CA         38.2843    7.9413   58.2512 C.3       2 GLC5        0.0000 
     66 CA         39.9910    7.7520   58.8060 C.3       4 GLP5        0.0000 
     67 CA         36.8633    6.6442   59.8055 C.3       2 GLC5        0.0000 
     68 CA         35.3298    4.7112   59.1805 C.3       2 GLC5        0.0000 
     69 CA         35.1230    6.7470   59.2010 C.3       6 GLL5        0.0000 
     70 CA         35.1700    2.8100   59.7310 C.3       4 GLP5        0.0000 
     71 CA         28.4022    9.3885   58.8907 C.3       2 GLC5        0.0000 
     72 CA         26.9870   10.7480   58.1570 C.3       4 GLP5        0.0000 
     73 CA         29.1767    6.6345   60.6947 C.3       2 GLC5        0.0000 
     74 CA         29.8300    8.4820   60.1700 C.3       6 GLL5        0.0000 
@<TRIPOS>BOND
@<TRIPOS>SUBSTRUCTURE
     1 SEC2       32 GROUP        1 X    SEC  0     ROOT SEC X 2
     2 GLC5        1 GROUP        1 X    GLC  0     **** GLC X 6
     3 SEP2       34 GROUP        1 Y    SEP  0     ROOT SEP Y 9
     4 GLP5        3 GROUP        1 Y    GLP  0     **** GLP Y 13
     5 SEL2       33 GROUP        1 Z    SEL  0     ROOT SEL Z 16
     6 GLL5        2 GROUP        1 Z    GLL  0     **** GLL Z 20
@<TRIPOS>SET

