#    Name: 3et2_ET1_1_ligand
#    Modification time : Tue Mar 25 02:25:56 2014

@<TRIPOS>MOLECULE
3et2_ET1_1_ligand
   45    47     1     0     0
SMALL
NO_CHARGES


@<TRIPOS>ATOM
      1 C13        35.6650   12.8190   60.2840 C.3       1 ET11        0.0000 
      2 C17        30.9150    8.5230   61.0660 C.ar      1 ET11        0.0000 
      3 C20        30.8900    6.7310   58.9090 C.ar      1 ET11        0.0000 
      4 C21        31.9320    6.8020   59.8140 C.ar      1 ET11        0.0000 
      5 N01        34.4150    8.4850   60.9610 N.pl3     1 ET11        0.0000 
      6 C02        34.7090    9.9060   60.9670 C.2       1 ET11        0.0000 
      7 C03        35.5460   10.2550   59.9300 C.2       1 ET11        0.0000 
      8 C04        35.8010    9.0530   59.1300 C.ar      1 ET11        0.0000 
      9 C05        35.0770    8.0240   59.7640 C.ar      1 ET11        0.0000 
     10 C06        36.5890    7.4880   57.4240 C.ar      1 ET11        0.0000 
     11 C07        35.8560    6.4780   58.0590 C.ar      1 ET11        0.0000 
     12 C08        35.1230    6.7470   59.2010 C.ar      1 ET11        0.0000 
     13 C09        36.5660    8.7730   57.9690 C.ar      1 ET11        0.0000 
     14 O10        37.3270    7.2100   56.2780 O.3       1 ET11        0.0000 
     15 C11        36.9700    6.0220   55.5900 C.3       1 ET11        0.0000 
     16 C12        36.1790   11.5690   59.5710 C.3       1 ET11        0.0000 
     17 C14        36.2140   12.9160   61.7030 C.2       1 ET11        0.0000 
     18 S15        33.3630    7.7310   61.9200 S.o2      1 ET11        0.0000 
     19 C16        32.0110    7.6270   60.9550 C.ar      1 ET11        0.0000 
     20 C18        29.8300    8.4820   60.1700 C.ar      1 ET11        0.0000 
     21 C19        29.8050    7.5760   59.0790 C.ar      1 ET11        0.0000 
     22 O22        33.1220    8.5490   63.0550 O.2       1 ET11        0.0000 
     23 O23        33.8750    6.4400   62.2040 O.2       1 ET11        0.0000 
     24 O24        37.2790   13.4310   61.9990 O.co2     1 ET11        0.0000 
     25 O25        35.4630   12.3810   62.6940 O.co2     1 ET11        0.0000 
     26 O26        28.7840    7.5040   58.1660 O.3       1 ET11        0.0000 
     27 C27        29.2310    7.4040   56.8140 C.3       1 ET11        0.0000 
     28 H          34.5745   12.7872   60.3208 H         1 ET11        0.0000 
     29 H          35.9672   13.7030   59.7194 H         1 ET11        0.0000 
     30 H          30.9188    9.2222   61.8268 H         1 ET11        0.0000 
     31 H          30.9174    6.0706   58.1311 H         1 ET11        0.0000 
     32 H          32.7802    6.1624   59.6382 H         1 ET11        0.0000 
     33 H          34.3445   10.4994   61.6312 H         1 ET11        0.0000 
     34 H          35.8674    5.5232   57.6643 H         1 ET11        0.0000 
     35 H          34.5882    5.9787   59.6581 H         1 ET11        0.0000 
     36 H          37.1055    9.5304   57.5317 H         1 ET11        0.0000 
     37 H          37.2849   11.5013   59.7433 H         1 ET11        0.0000 
     38 H          36.0785   11.7336   58.4664 H         1 ET11        0.0000 
     39 H          29.0337    9.1229   60.3059 H         1 ET11        0.0000 
     40 H          37.5335    5.8806   54.7761 H         1 ET11        0.0000 
     41 H          37.0789    5.2121   56.1663 H         1 ET11        0.0000 
     42 H          36.0171    6.0403   55.2872 H         1 ET11        0.0000 
     43 H          29.7854    8.1922   56.5469 H         1 ET11        0.0000 
     44 H          29.7909    6.5886   56.6673 H         1 ET11        0.0000 
     45 H          28.4655    7.3532   56.1725 H         1 ET11        0.0000 
@<TRIPOS>BOND
     1   16    1 1    
     2   17    1 1    
     3   28    1 1    
     4   29    1 1    
     5   19    2 ar   
     6   20    2 ar   
     7   30    2 1    
     8    4    3 ar   
     9   21    3 ar   
    10   31    3 1    
    11   19    4 ar   
    12   32    4 1    
    13    6    5 1    
    14    9    5 1    
    15   18    5 1    
    16    7    6 2    
    17   33    6 1    
    18    8    7 1    
    19   16    7 1    
    20    9    8 ar   
    21   13    8 ar   
    22   12    9 ar   
    23   11   10 ar   
    24   13   10 ar   
    25   14   10 1    
    26   12   11 ar   
    27   34   11 1    
    28   35   12 1    
    29   36   13 1    
    30   15   14 1    
    31   40   15 1    
    32   41   15 1    
    33   42   15 1    
    34   37   16 1    
    35   38   16 1    
    36   24   17 ar   
    37   25   17 ar   
    38   19   18 1    
    39   22   18 2    
    40   23   18 2    
    41   21   20 ar   
    42   39   20 1    
    43   26   21 1    
    44   27   26 1    
    45   43   27 1    
    46   44   27 1    
    47   45   27 1    
@<TRIPOS>SUBSTRUCTURE
     1 ET11        1 GROUP   
@<TRIPOS>SET

