#    Name: 4cod_KV1_1_INTS_M
#    Modification time : Tue Mar 25 09:23:52 2014

@<TRIPOS>MOLECULE
4cod_KV1_1_INTS_M
   91     0     9     0     0
SMALL
NO_CHARGES


@<TRIPOS>ATOM
      1 CA          3.2655   95.4820  -43.4420 C.3       3 GLC5        0.0000 
      2 CA          1.4530   95.0040  -43.4640 C.3       9 GLL5        0.0000 
      3 CA          5.0780   95.9600  -43.4200 C.3       6 GLP5        0.0000 
      4 O           1.8425   92.7995  -44.8880 O.2       1 ALC1        0.0000 
      5 O           0.6540   92.7760  -44.1530 O.2       7 ALL1        0.0000 
      6 O           3.0310   92.8230  -45.6230 O.2       4 ALP1        0.0000 
      7 O           2.0625   92.7090  -43.3585 O.2       1 ALC1        0.0000 
      8 O           3.4710   92.6420  -42.5640 O.2       4 ALP1        0.0000 
      9 CA         -0.2240   92.1610  -42.5125 C.3       3 GLC5        0.0000 
     10 CA          0.5360   93.8370  -43.1750 C.3       9 GLL5        0.0000 
     11 CA         -0.9840   90.4850  -41.8500 C.3       6 GLP5        0.0000 
     12 N           0.9350   89.7745  -43.0940 N.am      2 SEC2        0.0000 
     13 N           0.4140   89.3280  -44.4270 N.am      8 SEL2        0.0000 
     14 N           1.4560   90.2210  -41.7610 N.am      5 SEP2        0.0000 
     15 N           0.2430   88.4705  -43.0225 N.am      2 SEC2        0.0000 
     16 N           0.0720   87.6130  -41.6180 N.am      5 SEP2        0.0000 
     17 O           1.2760   90.1120  -48.2835 O.2       1 ALC1        0.0000 
     18 O           0.3620   90.7760  -49.1230 O.2       7 ALL1        0.0000 
     19 O           2.1900   89.4480  -47.4440 O.2       4 ALP1        0.0000 
     20 N          -1.4835   91.8015  -52.2025 N.am      2 SEC2        0.0000 
     21 N          -0.2270   91.4100  -51.2270 N.am      8 SEL2        0.0000 
     22 N          -2.7400   92.1930  -53.1780 N.am      5 SEP2        0.0000 
     23 CA         -3.8460   86.1730  -45.6855 C.3       3 GLC5        0.0000 
     24 CA         -2.2960   87.5690  -45.3620 C.3       9 GLL5        0.0000 
     25 CA         -5.3960   84.7770  -46.0090 C.3       6 GLP5        0.0000 
     26 CA         -1.3040   86.4985  -44.0470 C.3       3 GLC5        0.0000 
     27 CA         -0.3120   85.4280  -42.7320 C.3       6 GLP5        0.0000 
     28 CA         -3.6700   86.9720  -44.0260 C.3       3 GLC5        0.0000 
     29 CA         -5.0440   86.3750  -42.6900 C.3       6 GLP5        0.0000 
     30 CA         -1.5095   84.0100  -45.3555 C.3       3 GLC5        0.0000 
     31 CA         -1.3100   84.6250  -47.0840 C.3       9 GLL5        0.0000 
     32 CA         -1.7090   83.3950  -43.6270 C.3       6 GLP5        0.0000 
     33 CA         -1.1765   83.3995  -49.3185 C.3       3 GLC5        0.0000 
     34 CA         -0.0720   84.3220  -47.6680 C.3       9 GLL5        0.0000 
     35 CA         -2.2810   82.4770  -50.9690 C.3       6 GLP5        0.0000 
     36 CA          0.9575   82.7855  -46.6285 C.3       3 GLC5        0.0000 
     37 CA          1.9870   81.2490  -45.5890 C.3       6 GLP5        0.0000 
     38 CA          3.0215   85.9975  -47.1810 C.3       3 GLC5        0.0000 
     39 CA          0.9770   85.2560  -47.6400 C.3       9 GLL5        0.0000 
     40 CA          5.0660   86.7390  -46.7220 C.3       6 GLP5        0.0000 
     41 CA          2.2830   87.4680  -46.1525 C.3       3 GLC5        0.0000 
     42 CA          0.8010   86.5180  -47.0540 C.3       9 GLL5        0.0000 
     43 CA          3.7650   88.4180  -45.2510 C.3       6 GLP5        0.0000 
     44 CA          1.4050   86.9145  -51.0050 C.3       3 GLC5        0.0000 
     45 CA          3.5400   86.8260  -51.6990 C.3       9 GLL5        0.0000 
     46 CA         -0.7300   87.0030  -50.3110 C.3       6 GLP5        0.0000 
     47 CA          5.5295   86.9795  -51.7835 C.3       3 GLC5        0.0000 
     48 CA          7.5190   87.1330  -51.8680 C.3       6 GLP5        0.0000 
     49 CA          4.2080   84.9830  -54.1190 C.3       3 GLC5        0.0000 
     50 CA          3.3440   86.2170  -53.0720 C.3       9 GLL5        0.0000 
     51 CA          5.0720   83.7490  -55.1660 C.3       6 GLP5        0.0000 
     52 CA          1.5460   86.5415  -53.6045 C.3       3 GLC5        0.0000 
     53 CA         -0.2520   86.8660  -54.1370 C.3       6 GLP5        0.0000 
     54 CA          3.4175   86.8215  -55.1425 C.3       3 GLC5        0.0000 
     55 CA          3.4910   87.4260  -57.2130 C.3       6 GLP5        0.0000 
     56 CA          5.2820   87.2600  -52.8410 C.3       3 GLC5        0.0000 
     57 CA          7.2200   88.3030  -52.6100 C.3       6 GLP5        0.0000 
     58 CA          2.5390   92.4010  -54.2630 C.3       3 GLC5        0.0000 
     59 CA          2.7720   91.5790  -52.5110 C.3       9 GLL5        0.0000 
     60 CA          2.3060   93.2230  -56.0150 C.3       6 GLP5        0.0000 
     61 CA          0.9365   92.5445  -53.2525 C.3       3 GLC5        0.0000 
     62 CA         -0.8990   93.5100  -53.9940 C.3       6 GLP5        0.0000 
     63 CA          1.3160   90.5885  -53.3410 C.3       3 GLC5        0.0000 
     64 CA         -0.1400   89.5980  -54.1710 C.3       6 GLP5        0.0000 
     65 CA          3.6395   91.1440  -50.8345 C.3       3 GLC5        0.0000 
     66 CA          4.5070   90.7090  -49.1580 C.3       6 GLP5        0.0000 
     67 CA          4.1855   90.8815  -53.4800 C.3       3 GLC5        0.0000 
     68 CA          5.5990   90.1840  -54.4490 C.3       6 GLP5        0.0000 
     69 CA          1.7595   91.5760  -47.3642 C.3       3 GLC5        0.0000 
     70 CA         -0.4160   92.3040  -47.4010 C.3       9 GLL5        0.0000 
     71 CA          3.7210   91.2120  -47.9600 C.3       6 GLP5        0.0000 
     72 CA         -1.6168   89.3238  -49.1830 C.3       3 GLC5        0.0000 
     73 CA         -0.8100   91.2150  -48.3850 C.3       9 GLL5        0.0000 
     74 CA         -2.1620   87.9960  -50.4080 C.3       6 GLP5        0.0000 
     75 CA         -1.0573   86.1270  -48.5433 C.3       3 GLC5        0.0000 
     76 CA         -1.4590   85.8770  -46.4670 C.3       9 GLL5        0.0000 
     77 CA         -3.3902   85.0140  -46.3923 C.3       3 GLC5        0.0000 
     78 CA         -0.0705   86.0255  -44.9610 C.3       3 GLC5        0.0000 
     79 CA          0.9430   85.4330  -43.6520 C.3       6 GLP5        0.0000 
     80 CA         -1.8115   82.8342  -46.9545 C.3       3 GLC5        0.0000 
     81 CA         -2.9320   81.1950  -46.5330 C.3       6 GLP5        0.0000 
     82 CA         -0.1387   85.8960  -48.9825 C.3       3 GLC5        0.0000 
     83 CA         -0.2755   86.8330  -48.5355 C.3       3 GLC5        0.0000 
     84 CA          0.7849   85.5433  -45.5030 C.3       3 GLC5        0.0000 
     85 CA          0.4728   88.1005  -50.6010 C.3       3 GLC5        0.0000 
     86 CA          1.8010   88.5260  -50.7600 C.3       9 GLL5        0.0000 
     87 CA          0.7678   89.3980  -52.5310 C.3       3 GLC5        0.0000 
     88 CA          3.0912   89.9535  -50.0245 C.3       3 GLC5        0.0000 
     89 CA          1.5500   89.8700  -51.0220 C.3       9 GLL5        0.0000 
     90 CA          2.8435   84.9393  -51.3933 C.3       3 GLC5        0.0000 
     91 CA          2.2450   83.3570  -50.4010 C.3       6 GLP5        0.0000 
@<TRIPOS>BOND
@<TRIPOS>SUBSTRUCTURE
     1 ALC1        4 GROUP        1 X    ALC  0     ROOT ALC X 1
     2 SEC2       12 GROUP        1 X    SEC  0     **** SEC X 2
     3 GLC5        1 GROUP        1 X    GLC  0     **** GLC X 6
     4 ALP1        6 GROUP        1 Y    ALP  0     ROOT ALP Y 8
     5 SEP2       14 GROUP        1 Y    SEP  0     **** SEP Y 9
     6 GLP5        3 GROUP        1 Y    GLP  0     **** GLP Y 13
     7 ALL1        5 GROUP        1 Z    ALL  0     ROOT ALL Z 15
     8 SEL2       13 GROUP        1 Z    SEL  0     **** SEL Z 16
     9 GLL5        2 GROUP        1 Z    GLL  0     **** GLL Z 20
@<TRIPOS>SET

