#    Name: 4cod_KV1_1_ligand
#    Modification time : Tue Mar 25 09:23:52 2014

@<TRIPOS>MOLECULE
4cod_KV1_1_ligand
   59    62     1     0     0
SMALL
NO_CHARGES


@<TRIPOS>ATOM
      1 C1          1.4530   95.0040  -43.4640 C.3       1 KV11270     0.0000 
      2 N1          0.6540   92.7760  -44.1530 N.am      1 KV11270     0.0000 
      3 O1         -1.5420   92.4430  -44.5700 O.2       1 KV11270     0.0000 
      4 C2          0.5360   93.8370  -43.1750 C.3       1 KV11270     0.0000 
      5 N2         -0.5430   90.2200  -46.3030 N.am      1 KV11270     0.0000 
      6 O2          0.4140   89.3280  -44.4270 O.2       1 KV11270     0.0000 
      7 C3         -0.3680   92.3160  -44.8820 C.2       1 KV11270     0.0000 
      8 N3          0.3620   90.7760  -49.1230 N.am      1 KV11270     0.0000 
      9 O3         -2.6000   86.3070  -45.8220 O.3       1 KV11270     0.0000 
     10 C4          0.0120   91.5760  -46.1360 C.3       1 KV11270     0.0000 
     11 N4          3.3020   89.2250  -52.2610 N.2       1 KV11270     0.0000 
     12 O4         -0.2270   91.4100  -51.2270 O.2       1 KV11270     0.0000 
     13 C5         -0.4160   92.3040  -47.4010 C.3       1 KV11270     0.0000 
     14 N5          2.4970   90.2760  -51.9200 N.pl3     1 KV11270     0.0000 
     15 C6         -0.8100   91.2150  -48.3850 C.3       1 KV11270     0.0000 
     16 C7         -1.3330   90.0880  -47.5310 C.3       1 KV11270     0.0000 
     17 C8         -0.3110   89.2250  -45.4180 C.2       1 KV11270     0.0000 
     18 C9         -0.9750   87.9100  -45.6800 C.2       1 KV11270     0.0000 
     19 C10        -2.2960   87.5690  -45.3620 C.2       1 KV11270     0.0000 
     20 C11        -1.4590   85.8770  -46.4670 C.ar      1 KV11270     0.0000 
     21 C12        -1.3100   84.6250  -47.0840 C.ar      1 KV11270     0.0000 
     22 C13        -0.0720   84.3220  -47.6680 C.ar      1 KV11270     0.0000 
     23 C14         0.9770   85.2560  -47.6400 C.ar      1 KV11270     0.0000 
     24 C15         0.8010   86.5180  -47.0540 C.ar      1 KV11270     0.0000 
     25 C16        -0.4430   86.8080  -46.4660 C.ar      1 KV11270     0.0000 
     26 C17         0.4890   90.7690  -50.4580 C.2       1 KV11270     0.0000 
     27 C18         1.5500   89.8700  -51.0220 C.2       1 KV11270     0.0000 
     28 C19         1.8010   88.5260  -50.7600 C.2       1 KV11270     0.0000 
     29 C20         2.8650   88.1740  -51.5800 C.2       1 KV11270     0.0000 
     30 C21         3.5400   86.8260  -51.6990 C.3       1 KV11270     0.0000 
     31 C22         3.3440   86.2170  -53.0720 C.3       1 KV11270     0.0000 
     32 C23         2.7720   91.5790  -52.5110 C.3       1 KV11270     0.0000 
     33 H           1.6234   92.3706  -44.2640 H         1 KV11270     0.0000 
     34 H          -0.5037   94.2176  -43.1341 H         1 KV11270     0.0000 
     35 H           0.7674   93.4602  -42.1591 H         1 KV11270     0.0000 
     36 H           1.1687   90.4376  -48.5103 H         1 KV11270     0.0000 
     37 H           1.1138   91.5006  -46.1973 H         1 KV11270     0.0000 
     38 H           0.4065   92.8642  -47.7911 H         1 KV11270     0.0000 
     39 H          -1.2600   92.9257  -47.1919 H         1 KV11270     0.0000 
     40 H          -1.5774   91.5729  -49.0085 H         1 KV11270     0.0000 
     41 H          -2.3702   90.2402  -47.3392 H         1 KV11270     0.0000 
     42 H          -1.1402   89.1579  -48.0142 H         1 KV11270     0.0000 
     43 H          -2.9020   88.1501  -44.8839 H         1 KV11270     0.0000 
     44 H          -2.0725   83.9627  -47.1061 H         1 KV11270     0.0000 
     45 H           0.0704   83.4104  -48.1201 H         1 KV11270     0.0000 
     46 H           1.8867   85.0099  -48.0555 H         1 KV11270     0.0000 
     47 H           1.5459   87.2007  -47.0534 H         1 KV11270     0.0000 
     48 H           1.3472   87.9773  -50.1579 H         1 KV11270     0.0000 
     49 H           3.1308   86.1474  -50.9415 H         1 KV11270     0.0000 
     50 H           4.6128   86.9392  -51.5043 H         1 KV11270     0.0000 
     51 H           2.4142   94.7281  -43.4714 H         1 KV11270     0.0000 
     52 H           1.2597   95.4167  -44.3541 H         1 KV11270     0.0000 
     53 H           1.3609   95.7271  -42.7795 H         1 KV11270     0.0000 
     54 H           3.7211   86.7980  -53.7933 H         1 KV11270     0.0000 
     55 H           3.7906   85.3257  -53.1501 H         1 KV11270     0.0000 
     56 H           2.3761   86.0794  -53.2825 H         1 KV11270     0.0000 
     57 H           3.6886   91.9055  -52.2802 H         1 KV11270     0.0000 
     58 H           2.7123   91.5542  -53.5089 H         1 KV11270     0.0000 
     59 H           2.1254   92.2737  -52.1959 H         1 KV11270     0.0000 
@<TRIPOS>BOND
     1    4    1 1    
     2   51    1 1    
     3   52    1 1    
     4   53    1 1    
     5    4    2 1    
     6    7    2 am   
     7   33    2 1    
     8    7    3 2    
     9   34    4 1    
    10   35    4 1    
    11   10    5 1    
    12   16    5 1    
    13   17    5 am   
    14   17    6 2    
    15   10    7 1    
    16   15    8 1    
    17   26    8 am   
    18   36    8 1    
    19   19    9 1    
    20   20    9 1    
    21   13   10 1    
    22   37   10 1    
    23   14   11 1    
    24   29   11 2    
    25   26   12 2    
    26   15   13 1    
    27   38   13 1    
    28   39   13 1    
    29   27   14 1    
    30   32   14 1    
    31   16   15 1    
    32   40   15 1    
    33   41   16 1    
    34   42   16 1    
    35   18   17 1    
    36   19   18 2    
    37   25   18 1    
    38   43   19 1    
    39   21   20 ar   
    40   25   20 ar   
    41   22   21 ar   
    42   44   21 1    
    43   23   22 ar   
    44   45   22 1    
    45   24   23 ar   
    46   46   23 1    
    47   25   24 ar   
    48   47   24 1    
    49   27   26 1    
    50   28   27 2    
    51   29   28 1    
    52   48   28 1    
    53   30   29 1    
    54   31   30 1    
    55   49   30 1    
    56   50   30 1    
    57   54   31 1    
    58   55   31 1    
    59   56   31 1    
    60   57   32 1    
    61   58   32 1    
    62   59   32 1    
@<TRIPOS>SUBSTRUCTURE
     1 KV11270     1 GROUP   
@<TRIPOS>SET

