#    Name: 2j7x_EST_1_INTS_M
#    Modification time : Tue Mar 25 19:28:00 2014

@<TRIPOS>MOLECULE
2j7x_EST_1_INTS_M
   67     0     9     0     0
SMALL
NO_CHARGES


@<TRIPOS>ATOM
      1 CA         48.6360   31.6590   80.4515 C.3       3 GLC5        0.0000 
      2 CA         50.3610   31.3800   79.3660 C.3       9 GLL5        0.0000 
      3 CA         46.9110   31.9380   81.5370 C.3       6 GLP5        0.0000 
      4 CA         52.0620   31.3595   81.5115 C.3       3 GLC5        0.0000 
      5 CA         51.0470   32.3200   80.1530 C.3       9 GLL5        0.0000 
      6 CA         53.0770   30.3990   82.8700 C.3       6 GLP5        0.0000 
      7 CA         49.3395   32.3270   81.4835 C.3       3 GLC5        0.0000 
      8 CA         47.6320   32.3340   82.8140 C.3       6 GLP5        0.0000 
      9 N          53.8445   34.5485   80.6670 N.am      2 SEC2        0.0000 
     10 N          52.3070   34.3290   80.3980 N.am      8 SEL2        0.0000 
     11 N          55.3820   34.7680   80.9360 N.am      5 SEP2        0.0000 
     12 N          52.6695   35.7875   80.6585 N.am      2 SEC2        0.0000 
     13 N          53.0320   37.2460   80.9190 N.am      5 SEP2        0.0000 
     14 O          51.8755   34.2265   81.5855 O.2       1 ALC1        0.0000 
     15 O          52.3070   34.3290   80.3980 O.2       7 ALL1        0.0000 
     16 O          51.4440   34.1240   82.7730 O.2       4 ALP1        0.0000 
     17 CA         50.7505   34.5065   74.8490 C.3       3 GLC5        0.0000 
     18 CA         50.9070   32.8990   75.8520 C.3       9 GLL5        0.0000 
     19 CA         50.5940   36.1140   73.8460 C.3       6 GLP5        0.0000 
     20 CA         49.8540   32.9735   73.7340 C.3       3 GLC5        0.0000 
     21 CA         50.5480   31.6030   75.1140 C.3       9 GLL5        0.0000 
     22 CA         49.1600   34.3440   72.3540 C.3       6 GLP5        0.0000 
     23 CA         47.8970   32.7535   75.4975 C.3       3 GLC5        0.0000 
     24 CA         49.2480   31.0270   75.6980 C.3       9 GLL5        0.0000 
     25 CA         46.5460   34.4800   75.2970 C.3       6 GLP5        0.0000 
     26 CA         51.5655   30.3360   77.2210 C.3       3 GLC5        0.0000 
     27 CA         49.5470   30.4930   77.1110 C.3       9 GLL5        0.0000 
     28 CA         53.5840   30.1790   77.3310 C.3       6 GLP5        0.0000 
     29 CA         47.5720   30.9610   79.6250 C.3       3 GLC5        0.0000 
     30 CA         48.2330   29.9840   77.7130 C.3       9 GLL5        0.0000 
     31 CA         46.6315   26.8970   76.6195 C.3       3 GLC5        0.0000 
     32 CA         47.6230   28.8520   76.8540 C.3       9 GLL5        0.0000 
     33 CA         45.6400   24.9420   76.3850 C.3       6 GLP5        0.0000 
     34 CA         49.4360   30.2970   71.7155 C.3       3 GLC5        0.0000 
     35 CA         48.3690   30.0280   73.3980 C.3       9 GLL5        0.0000 
     36 CA         50.5030   30.5660   70.0330 C.3       6 GLP5        0.0000 
     37 CA         48.8440   27.4140   72.6100 C.3       3 GLC5        0.0000 
     38 CA         47.4060   28.8730   73.0710 C.3       9 GLL5        0.0000 
     39 CA         50.2820   25.9550   72.1490 C.3       6 GLP5        0.0000 
     40 CA         47.7020   29.0695   71.1500 C.3       3 GLC5        0.0000 
     41 CA         47.9980   29.2660   69.2290 C.3       6 GLP5        0.0000 
     42 CA         46.3035   26.6025   75.3995 C.3       3 GLC5        0.0000 
     43 CA         46.9670   28.2630   74.4140 C.3       9 GLL5        0.0000 
     44 CA         48.6170   26.9610   74.0465 C.3       3 GLC5        0.0000 
     45 CA         50.2670   25.6590   73.6790 C.3       6 GLP5        0.0000 
     46 O          45.6685   27.0620   73.1815 O.2       1 ALC1        0.0000 
     47 O          45.5580   27.9440   74.4380 O.2       7 ALL1        0.0000 
     48 O          45.7790   26.1800   71.9250 O.2       4 ALP1        0.0000 
     49 CA         45.6280   32.0135   75.3295 C.3       3 GLC5        0.0000 
     50 CA         46.2600   30.4400   75.4350 C.3       9 GLL5        0.0000 
     51 CA         44.9960   33.5870   75.2240 C.3       6 GLP5        0.0000 
     52 CA         44.3880   29.7970   75.1890 C.3       3 GLC5        0.0000 
     53 CA         42.5160   29.1540   74.9430 C.3       6 GLP5        0.0000 
     54 CA         50.3387   34.8858   78.4034 C.3       3 GLC5        0.0000 
     55 CA         51.6170   33.6210   78.1890 C.3       9 GLL5        0.0000 
     56 CA         49.3790   36.6600   78.6890 C.3       6 GLP5        0.0000 
     57 CA         52.9898   33.1178   76.2154 C.3       3 GLC5        0.0000 
     58 CA         54.8830   33.2080   75.6190 C.3       6 GLP5        0.0000 
     59 CA         52.1557   31.2150   76.4070 C.3       3 GLC5        0.0000 
     60 CA         52.0978   32.2425   73.8945 C.3       3 GLC5        0.0000 
     61 CA         53.4680   32.2340   72.3060 C.3       6 GLP5        0.0000 
     62 CA         49.0733   28.1511   78.2715 C.3       3 GLC5        0.0000 
     63 CA         49.8900   26.7570   79.4100 C.3       6 GLP5        0.0000 
     64 CA         46.8678   30.7103   72.1273 C.3       3 GLC5        0.0000 
     65 CA         45.8480   31.9700   71.0200 C.3       6 GLP5        0.0000 
     66 CA         46.3072   27.5420   72.1893 C.3       3 GLC5        0.0000 
     67 CA         45.4280   26.5160   70.6360 C.3       6 GLP5        0.0000 
@<TRIPOS>BOND
@<TRIPOS>SUBSTRUCTURE
     1 ALC1       14 GROUP        1 X    ALC  0     ROOT ALC X 1
     2 SEC2        9 GROUP        1 X    SEC  0     **** SEC X 2
     3 GLC5        1 GROUP        1 X    GLC  0     **** GLC X 6
     4 ALP1       16 GROUP        1 Y    ALP  0     ROOT ALP Y 8
     5 SEP2       11 GROUP        1 Y    SEP  0     **** SEP Y 9
     6 GLP5        3 GROUP        1 Y    GLP  0     **** GLP Y 13
     7 ALL1       15 GROUP        1 Z    ALL  0     ROOT ALL Z 15
     8 SEL2       10 GROUP        1 Z    SEL  0     **** SEL Z 16
     9 GLL5        2 GROUP        1 Z    GLL  0     **** GLL Z 20
@<TRIPOS>SET

