#    Name: 2j7x_EST_1_ligand
#    Modification time : Tue Mar 25 19:28:00 2014

@<TRIPOS>MOLECULE
2j7x_EST_1_ligand
   44    47     1     0     0
SMALL
NO_CHARGES


@<TRIPOS>ATOM
      1 C1         50.3610   31.3800   79.3660 C.ar      1 EST1454     0.0000 
      2 C2         51.0470   32.3200   80.1530 C.ar      1 EST1454     0.0000 
      3 C3         51.6670   33.4430   79.5740 C.ar      1 EST1454     0.0000 
      4 O3         52.3070   34.3290   80.3980 O.3       1 EST1454     0.0000 
      5 C4         51.6170   33.6210   78.1890 C.ar      1 EST1454     0.0000 
      6 C5         50.9550   32.6910   77.3540 C.ar      1 EST1454     0.0000 
      7 C6         50.9070   32.8990   75.8520 C.3       1 EST1454     0.0000 
      8 C7         50.5480   31.6030   75.1140 C.3       1 EST1454     0.0000 
      9 C8         49.2480   31.0270   75.6980 C.3       1 EST1454     0.0000 
     10 C9         49.5470   30.4930   77.1110 C.3       1 EST1454     0.0000 
     11 C10        50.2650   31.5150   77.9730 C.ar      1 EST1454     0.0000 
     12 C11        48.2330   29.9840   77.7130 C.3       1 EST1454     0.0000 
     13 C12        47.6230   28.8520   76.8540 C.3       1 EST1454     0.0000 
     14 C13        47.3450   29.3400   75.4350 C.3       1 EST1454     0.0000 
     15 C14        48.6650   29.8620   74.8790 C.3       1 EST1454     0.0000 
     16 C15        48.3690   30.0280   73.3980 C.3       1 EST1454     0.0000 
     17 C16        47.4060   28.8730   73.0710 C.3       1 EST1454     0.0000 
     18 C17        46.9670   28.2630   74.4140 C.3       1 EST1454     0.0000 
     19 O17        45.5580   27.9440   74.4380 O.3       1 EST1454     0.0000 
     20 C18        46.2600   30.4400   75.4350 C.3       1 EST1454     0.0000 
     21 H          49.9149   30.5666   79.8269 H         1 EST1454     0.0000 
     22 H          51.0979   32.1856   81.1748 H         1 EST1454     0.0000 
     23 H          52.0690   34.4436   77.7604 H         1 EST1454     0.0000 
     24 H          51.8807   33.2478   75.5001 H         1 EST1454     0.0000 
     25 H          50.1610   33.6603   75.6122 H         1 EST1454     0.0000 
     26 H          51.3454   30.8845   75.2415 H         1 EST1454     0.0000 
     27 H          50.4039   31.8158   74.0641 H         1 EST1454     0.0000 
     28 H          48.5166   31.8015   75.7868 H         1 EST1454     0.0000 
     29 H          50.2041   29.6165   76.9803 H         1 EST1454     0.0000 
     30 H          47.5202   30.8042   77.7710 H         1 EST1454     0.0000 
     31 H          48.4181   29.6036   78.7156 H         1 EST1454     0.0000 
     32 H          46.6954   28.5237   77.3150 H         1 EST1454     0.0000 
     33 H          48.3218   28.0205   76.8233 H         1 EST1454     0.0000 
     34 H          49.3642   28.9856   74.9618 H         1 EST1454     0.0000 
     35 H          49.2601   29.9147   72.8315 H         1 EST1454     0.0000 
     36 H          47.8799   30.9544   73.2239 H         1 EST1454     0.0000 
     37 H          47.9189   28.1329   72.4931 H         1 EST1454     0.0000 
     38 H          46.5501   29.2564   72.5560 H         1 EST1454     0.0000 
     39 H          47.5934   27.4106   74.5961 H         1 EST1454     0.0000 
     40 H          46.5369   31.2348   75.9751 H         1 EST1454     0.0000 
     41 H          46.0633   30.7677   74.5109 H         1 EST1454     0.0000 
     42 H          45.3974   30.1108   75.8190 H         1 EST1454     0.0000 
     43 H          52.2922   33.8995   81.3010 H         1 EST1454     0.0000 
     44 H          45.4243   27.3058   73.6798 H         1 EST1454     0.0000 
@<TRIPOS>BOND
     1    2    1 ar   
     2   11    1 ar   
     3   21    1 1    
     4    3    2 ar   
     5   22    2 1    
     6    4    3 1    
     7    5    3 ar   
     8   43    4 1    
     9    6    5 ar   
    10   23    5 1    
    11    7    6 1    
    12   11    6 ar   
    13    8    7 1    
    14   24    7 1    
    15   25    7 1    
    16    9    8 1    
    17   26    8 1    
    18   27    8 1    
    19   10    9 1    
    20   15    9 1    
    21   28    9 1    
    22   11   10 1    
    23   12   10 1    
    24   29   10 1    
    25   13   12 1    
    26   30   12 1    
    27   31   12 1    
    28   14   13 1    
    29   32   13 1    
    30   33   13 1    
    31   15   14 1    
    32   18   14 1    
    33   20   14 1    
    34   16   15 1    
    35   34   15 1    
    36   17   16 1    
    37   35   16 1    
    38   36   16 1    
    39   18   17 1    
    40   37   17 1    
    41   38   17 1    
    42   19   18 1    
    43   39   18 1    
    44   44   19 1    
    45   40   20 1    
    46   41   20 1    
    47   42   20 1    
@<TRIPOS>SUBSTRUCTURE
     1 EST1454     1 GROUP   
@<TRIPOS>SET

