#    Name: 2z7h_GG3_2_INTS_M
#    Modification time : Tue Mar 25 10:21:47 2014

@<TRIPOS>MOLECULE
2z7h_GG3_2_INTS_M
   60     0    12     0     0
SMALL
NO_CHARGES


@<TRIPOS>ATOM
      1 CA         23.6900   29.1300   31.0140 C.3       4 GLC5        0.0000 
      2 CA         25.2970   28.3850   32.2780 C.3      12 GLL5        0.0000 
      3 CA         22.0830   29.8750   29.7500 C.3       8 GLP5        0.0000 
      4 NZ         28.1175   24.0505   29.9910 N.4       3 LYC4        0.0000 
      5 NZ         26.6570   23.4770   29.5760 N.4      11 LYL4        0.0000 
      6 NZ         29.5780   24.6240   30.4060 N.4       7 LYP4        0.0000 
      7 NZ         26.5475   22.4525   28.9150 N.4       3 LYC4        0.0000 
      8 NZ         26.4380   21.4280   28.2540 N.4       7 LYP4        0.0000 
      9 N          27.1085   22.9400   30.9180 N.am      2 SEC2        0.0000 
     10 N          26.6570   23.4770   29.5760 N.am     10 SEL2        0.0000 
     11 N          27.5600   22.4030   32.2600 N.am      6 SEP2        0.0000 
     12 N          26.5475   22.4525   28.9150 N.am      2 SEC2        0.0000 
     13 N          26.4380   21.4280   28.2540 N.am      6 SEP2        0.0000 
     14 NZ         26.0070   22.8320   27.7800 N.4       3 LYC4        0.0000 
     15 NZ         25.5760   24.2360   27.3060 N.4      11 LYL4        0.0000 
     16 N          24.9655   25.4250   26.6920 N.am      2 SEC2        0.0000 
     17 N          25.5760   24.2360   27.3060 N.am     10 SEL2        0.0000 
     18 N          24.3550   26.6140   26.0780 N.am      6 SEP2        0.0000 
     19 N          26.0070   22.8320   27.7800 N.am      2 SEC2        0.0000 
     20 NZ         28.4865   25.1370   29.4115 N.4       3 LYC4        0.0000 
     21 NZ         27.3950   25.6500   28.4170 N.4      11 LYL4        0.0000 
     22 N          28.4865   25.1370   29.4115 N.am      2 SEC2        0.0000 
     23 N          27.3950   25.6500   28.4170 N.am     10 SEL2        0.0000 
     24 N          29.5780   24.6240   30.4060 N.am      6 SEP2        0.0000 
     25 NZ         25.0265   22.2470   28.9810 N.4       3 LYC4        0.0000 
     26 NZ         23.6150   23.0660   29.7080 N.4      11 LYL4        0.0000 
     27 N          23.9805   22.5965   30.9010 N.am      2 SEC2        0.0000 
     28 N          23.6150   23.0660   29.7080 N.am     10 SEL2        0.0000 
     29 N          24.3460   22.1270   32.0940 N.am      6 SEP2        0.0000 
     30 N          22.0005   25.7245   27.5625 N.am      2 SEC2        0.0000 
     31 N          23.1170   24.5730   27.6650 N.am     10 SEL2        0.0000 
     32 N          20.8840   26.8760   27.4600 N.am      6 SEP2        0.0000 
     33 NZ         20.9325   25.8340   29.6950 N.4       3 LYC4        0.0000 
     34 NZ         22.1140   25.1400   29.9660 N.4      11 LYL4        0.0000 
     35 NZ         19.7550   26.9570   28.1660 N.4       7 LYP4        0.0000 
     36 N          20.9325   25.8340   29.6950 N.am      2 SEC2        0.0000 
     37 N          22.1140   25.1400   29.9660 N.am     10 SEL2        0.0000 
     38 N          19.7510   26.5280   29.4240 N.am      6 SEP2        0.0000 
     39 N          21.4990   26.0080   28.7130 N.am      2 SEC2        0.0000 
     40 O          24.5100   26.7545   27.6265 O.2       1 ALC1        0.0000 
     41 O          24.6650   26.8950   29.1750 O.2       9 ALL1        0.0000 
     42 O          24.3550   26.6140   26.0780 O.2       5 ALP1        0.0000 
     43 CA         29.1780   28.0925   30.5170 C.3       4 GLC5        0.0000 
     44 CA         27.2050   28.6340   30.8180 C.3      12 GLL5        0.0000 
     45 CA         31.1510   27.5510   30.2160 C.3       8 GLP5        0.0000 
     46 CA         26.2205   28.9870   36.7965 C.3       4 GLC5        0.0000 
     47 CA         25.5850   28.9320   34.7400 C.3      12 GLL5        0.0000 
     48 CA         26.8560   29.0420   38.8530 C.3       8 GLP5        0.0000 
     49 CA         27.3813   27.8968   35.1260 C.3       4 GLC5        0.0000 
     50 CA         28.8270   27.0560   36.1640 C.3       8 GLP5        0.0000 
     51 CA         25.1801   27.1755   34.7178 C.3       4 GLC5        0.0000 
     52 CA         24.6720   25.6530   35.6370 C.3       8 GLP5        0.0000 
     53 CA         21.9453   32.3282   35.2110 C.3       4 GLC5        0.0000 
     54 CA         22.9130   30.7240   36.2540 C.3      12 GLL5        0.0000 
     55 CA         21.1790   33.5340   33.6360 C.3       8 GLP5        0.0000 
     56 CA         24.6150   33.3443   36.1895 C.3       4 GLC5        0.0000 
     57 CA         23.4200   32.3740   37.9350 C.3      12 GLL5        0.0000 
     58 CA         25.1510   34.2900   34.6640 C.3       8 GLP5        0.0000 
     59 CA         24.9670   32.6617   35.2263 C.3       4 GLC5        0.0000 
     60 CA         25.1410   31.6260   36.4290 C.3      12 GLL5        0.0000 
@<TRIPOS>BOND
@<TRIPOS>SUBSTRUCTURE
     1 ALC1       40 GROUP        1 X    ALC  0     ROOT ALC X 1
     2 SEC2        9 GROUP        1 X    SEC  0     **** SEC X 2
     3 LYC4        4 GROUP        1 X    LYC  0     **** LYC X 4
     4 GLC5        1 GROUP        1 X    GLC  0     **** GLC X 6
     5 ALP1       42 GROUP        1 Y    ALP  0     ROOT ALP Y 8
     6 SEP2       11 GROUP        1 Y    SEP  0     **** SEP Y 9
     7 LYP4        6 GROUP        1 Y    LYP  0     **** LYP Y 11
     8 GLP5        3 GROUP        1 Y    GLP  0     **** GLP Y 13
     9 ALL1       41 GROUP        1 Z    ALL  0     ROOT ALL Z 15
    10 SEL2       10 GROUP        1 Z    SEL  0     **** SEL Z 16
    11 LYL4        5 GROUP        1 Z    LYL  0     **** LYL Z 18
    12 GLL5        2 GROUP        1 Z    GLL  0     **** GLL Z 20
@<TRIPOS>SET

