#    Name: 2z7h_GG3_2_ligand
#    Modification time : Tue Mar 25 10:21:47 2014

@<TRIPOS>MOLECULE
2z7h_GG3_2_ligand
   46    46     1     0     0
SMALL
NO_CHARGES


@<TRIPOS>ATOM
      1 C2         26.3660   26.4430   31.3890 C.3       1 GG3341      0.0000 
      2 C6         25.2970   28.3850   32.2780 C.3       1 GG3341      0.0000 
      3 C7         25.1650   25.5350   31.1110 C.3       1 GG3341      0.0000 
      4 C8         24.8510   25.5460   29.6140 C.3       1 GG3341      0.0000 
      5 O16        26.6570   23.4770   29.5760 O.co2     1 GG3341      0.0000 
      6 P14        26.2510   24.7450   28.6760 P.3       1 GG3341      0.0000 
      7 O17        25.5760   24.2360   27.3060 O.co2     1 GG3341      0.0000 
      8 O15        27.3950   25.6500   28.4170 O.co2     1 GG3341      0.0000 
      9 P9         23.2930   24.5840   29.2660 P.3       1 GG3341      0.0000 
     10 O11        23.6150   23.0660   29.7080 O.co2     1 GG3341      0.0000 
     11 O10        23.1170   24.5730   27.6650 O.co2     1 GG3341      0.0000 
     12 O12        22.1140   25.1400   29.9660 O.co2     1 GG3341      0.0000 
     13 O13        24.6650   26.8950   29.1750 O.3       1 GG3341      0.0000 
     14 N13        26.0020   27.8390   31.1080 N.4       1 GG3341      0.0000 
     15 C21        27.2050   28.6340   30.8180 C.3       1 GG3341      0.0000 
     16 C22        26.2860   28.5430   33.4360 C.3       1 GG3341      0.0000 
     17 C26        25.5850   28.9320   34.7400 C.3       1 GG3341      0.0000 
     18 C27        24.6240   30.0940   34.4960 C.3       1 GG3341      0.0000 
     19 C28        24.2260   30.7880   35.8000 C.ar      1 GG3341      0.0000 
     20 C33        22.9130   30.7240   36.2540 C.ar      1 GG3341      0.0000 
     21 C32        22.5100   31.5210   37.3180 C.ar      1 GG3341      0.0000 
     22 C31        23.4200   32.3740   37.9350 C.ar      1 GG3341      0.0000 
     23 C30        24.7380   32.4230   37.4950 C.ar      1 GG3341      0.0000 
     24 C29        25.1410   31.6260   36.4290 C.ar      1 GG3341      0.0000 
     25 H          27.1927   26.1228   30.7554 H         1 GG3341      0.0000 
     26 H          26.6553   26.3202   32.4324 H         1 GG3341      0.0000 
     27 H          24.4990   27.7165   32.5960 H         1 GG3341      0.0000 
     28 H          24.8719   29.3615   32.0530 H         1 GG3341      0.0000 
     29 H          24.3061   25.8981   31.6612 H         1 GG3341      0.0000 
     30 H          25.3998   24.5247   31.4217 H         1 GG3341      0.0000 
     31 H          25.3367   27.8651   30.2517 H         1 GG3341      0.0000 
     32 H          27.0177   29.3134   33.1792 H         1 GG3341      0.0000 
     33 H          26.8184   27.5997   33.5832 H         1 GG3341      0.0000 
     34 H          26.3299   29.2283   35.4723 H         1 GG3341      0.0000 
     35 H          25.0297   28.0782   35.1164 H         1 GG3341      0.0000 
     36 H          23.7243   29.7186   34.0016 H         1 GG3341      0.0000 
     37 H          25.1009   30.8219   33.8345 H         1 GG3341      0.0000 
     38 H          22.2433   30.0886   35.8031 H         1 GG3341      0.0000 
     39 H          21.5372   31.4813   37.6513 H         1 GG3341      0.0000 
     40 H          23.1167   32.9688   38.7176 H         1 GG3341      0.0000 
     41 H          25.4121   33.0459   37.9558 H         1 GG3341      0.0000 
     42 H          26.1170   31.6561   36.1051 H         1 GG3341      0.0000 
     43 H          27.8447   28.6336   31.5867 H         1 GG3341      0.0000 
     44 H          27.7005   28.2817   30.0241 H         1 GG3341      0.0000 
     45 H          26.9811   29.5890   30.6236 H         1 GG3341      0.0000 
     46 H          24.5755   26.8335   28.1809 H         1 GG3341      0.0000 
@<TRIPOS>BOND
     1    3    1 1    
     2   14    1 1    
     3   25    1 1    
     4   26    1 1    
     5   14    2 1    
     6   16    2 1    
     7   27    2 1    
     8   28    2 1    
     9    4    3 1    
    10   29    3 1    
    11   30    3 1    
    12    6    4 1    
    13    9    4 1    
    14   13    4 1    
    15    6    5 ar   
    16    7    6 ar   
    17    8    6 ar   
    18   10    9 ar   
    19   11    9 ar   
    20   12    9 ar   
    21   46   13 1    
    22   15   14 1    
    23   31   14 1    
    24   43   15 1    
    25   44   15 1    
    26   45   15 1    
    27   17   16 1    
    28   32   16 1    
    29   33   16 1    
    30   18   17 1    
    31   34   17 1    
    32   35   17 1    
    33   19   18 1    
    34   36   18 1    
    35   37   18 1    
    36   20   19 ar   
    37   24   19 ar   
    38   21   20 ar   
    39   38   20 1    
    40   22   21 ar   
    41   39   21 1    
    42   23   22 ar   
    43   40   22 1    
    44   24   23 ar   
    45   41   23 1    
    46   42   24 1    
@<TRIPOS>SUBSTRUCTURE
     1 GG3341      1 GROUP   
@<TRIPOS>SET

