#    Name: 4lyn_1YG_1_INTS_M
#    Modification time : Tue Mar 25 11:39:26 2014

@<TRIPOS>MOLECULE
4lyn_1YG_1_INTS_M
   71     0     9     0     0
SMALL
NO_CHARGES


@<TRIPOS>ATOM
      1 CA         31.6450   29.1155   25.2275 C.3       3 GLC5        0.0000 
      2 CA         29.9390   28.2790   24.9920 C.3       9 GLL5        0.0000 
      3 CA         33.3510   29.9520   25.4630 C.3       6 GLP5        0.0000 
      4 CA         29.9105   24.2050   24.2905 C.3       3 GLC5        0.0000 
      5 CA         28.7200   25.5150   24.7640 C.3       9 GLL5        0.0000 
      6 CA         31.1010   22.8950   23.8170 C.3       6 GLP5        0.0000 
      7 CA         29.8740   26.0080   26.2450 C.3       3 GLC5        0.0000 
      8 CA         31.0280   26.5010   27.7260 C.3       6 GLP5        0.0000 
      9 CA         26.0395   27.8985   21.7385 C.3       3 GLC5        0.0000 
     10 CA         27.2760   26.7380   23.1560 C.3       9 GLL5        0.0000 
     11 CA         24.8030   29.0590   20.3210 C.3       6 GLP5        0.0000 
     12 CA         26.6065   26.4050   27.6385 C.3       3 GLC5        0.0000 
     13 CA         26.6410   26.6060   25.5630 C.3       9 GLL5        0.0000 
     14 CA         26.5720   26.2040   29.7140 C.3       6 GLP5        0.0000 
     15 CA         26.7150   33.9830   27.4275 C.3       3 GLC5        0.0000 
     16 CA         26.3150   32.2630   28.6880 C.3       9 GLL5        0.0000 
     17 CA         27.1150   35.7030   26.1670 C.3       6 GLP5        0.0000 
     18 CA         25.6195   33.3220   30.2170 C.3       3 GLC5        0.0000 
     19 CA         24.9240   34.3810   31.7460 C.3       6 GLP5        0.0000 
     20 N          31.5860   29.8040   24.6675 N.am      2 SEC2        0.0000 
     21 N          30.1290   29.5960   25.3080 N.am      8 SEL2        0.0000 
     22 N          33.0430   30.0120   24.0270 N.am      5 SEP2        0.0000 
     23 CA         27.8285   33.5960   25.9645 C.3       3 GLC5        0.0000 
     24 CA         28.5420   31.4890   25.7620 C.3       9 GLL5        0.0000 
     25 CA         29.8105   33.0390   26.6610 C.3       3 GLC5        0.0000 
     26 CA         31.0790   34.5890   27.5600 C.3       6 GLP5        0.0000 
     27 CA         26.4090   31.8255   25.7810 C.3       3 GLC5        0.0000 
     28 CA         24.2760   32.1620   25.8000 C.3       6 GLP5        0.0000 
     29 CA         27.6020   31.9790   24.2585 C.3       3 GLC5        0.0000 
     30 CA         26.6620   32.4690   22.7550 C.3       6 GLP5        0.0000 
     31 CA         29.3825   29.7345   28.5140 C.3       3 GLC5        0.0000 
     32 CA         28.8380   31.5810   27.5340 C.3       9 GLL5        0.0000 
     33 CA         29.9270   27.8880   29.4940 C.3       6 GLP5        0.0000 
     34 CA         28.7400   31.6765   29.2845 C.3       3 GLC5        0.0000 
     35 CA         28.6420   31.7720   31.0350 C.3       6 GLP5        0.0000 
     36 N          24.0775   32.6640   29.7970 N.am      2 SEC2        0.0000 
     37 N          25.1460   31.7380   29.1710 N.am      8 SEL2        0.0000 
     38 N          23.0090   33.5900   30.4230 N.am      5 SEP2        0.0000 
     39 O          22.9065   30.4685   29.7250 O.2       1 ALC1        0.0000 
     40 O          23.9480   29.7520   29.1830 O.2       7 ALL1        0.0000 
     41 O          21.8650   31.1850   30.2670 O.2       4 ALP1        0.0000 
     42 CA         21.0485   27.4805   26.0175 C.3       3 GLC5        0.0000 
     43 CA         21.5900   27.4370   27.8680 C.3       9 GLL5        0.0000 
     44 CA         20.5070   27.5240   24.1670 C.3       6 GLP5        0.0000 
     45 CA         20.2190   26.2650   27.7620 C.3       3 GLC5        0.0000 
     46 CA         18.8480   25.0930   27.6560 C.3       6 GLP5        0.0000 
     47 CA         22.2170   28.8720   26.4180 C.3       3 GLC5        0.0000 
     48 CA         22.8440   30.3070   24.9680 C.3       6 GLP5        0.0000 
     49 CA         26.5475   27.9940   28.9445 C.3       3 GLC5        0.0000 
     50 CA         26.5230   29.7840   28.1750 C.3       9 GLL5        0.0000 
     51 CA         28.2250   28.8360   28.8345 C.3       3 GLC5        0.0000 
     52 CA         27.5825   30.7780   29.6050 C.3       3 GLC5        0.0000 
     53 CA         25.3995   30.9730   26.9875 C.3       3 GLC5        0.0000 
     54 CA         30.1442   27.3257   26.3253 C.3       3 GLC5        0.0000 
     55 CA         28.5820   28.0220   24.8570 C.3       9 GLL5        0.0000 
     56 CA         27.6998   31.8002   29.7237 C.3       3 GLC5        0.0000 
     57 CA         27.2000   31.3940   28.1370 C.3       9 GLL5        0.0000 
     58 CA         29.0730   33.1118   28.2812 C.3       3 GLC5        0.0000 
     59 CA         30.1270   34.7360   28.7270 C.3       6 GLP5        0.0000 
     60 CA         25.5168   31.9952   27.1062 C.3       3 GLC5        0.0000 
     61 CA         20.0772   28.3875   28.2653 C.3       3 GLC5        0.0000 
     62 CA         22.2830   27.9690   29.1230 C.3       9 GLL5        0.0000 
     63 CA         18.2180   29.0720   28.0350 C.3       6 GLP5        0.0000 
     64 CA         24.5723   26.2390   29.9102 C.3       3 GLC5        0.0000 
     65 CA         22.4160   26.9390   30.2380 C.3       9 GLL5        0.0000 
     66 CA         24.5973   24.6135   31.5850 C.3       3 GLC5        0.0000 
     67 CA         22.7570   24.6720   30.9970 C.3       9 GLL5        0.0000 
     68 CA         26.5710   24.3630   31.5230 C.3       6 GLP5        0.0000 
     69 CA         24.2560   26.8390   32.1197 C.3       3 GLC5        0.0000 
     70 CA         22.2160   26.3800   32.5760 C.3       9 GLL5        0.0000 
     71 CA         26.3150   26.8300   32.1750 C.3       6 GLP5        0.0000 
@<TRIPOS>BOND
@<TRIPOS>SUBSTRUCTURE
     1 ALC1       39 GROUP        1 X    ALC  0     ROOT ALC X 1
     2 SEC2       20 GROUP        1 X    SEC  0     **** SEC X 2
     3 GLC5        1 GROUP        1 X    GLC  0     **** GLC X 6
     4 ALP1       41 GROUP        1 Y    ALP  0     ROOT ALP Y 8
     5 SEP2       22 GROUP        1 Y    SEP  0     **** SEP Y 9
     6 GLP5        3 GROUP        1 Y    GLP  0     **** GLP Y 13
     7 ALL1       40 GROUP        1 Z    ALL  0     ROOT ALL Z 15
     8 SEL2       21 GROUP        1 Z    SEL  0     **** SEL Z 16
     9 GLL5        2 GROUP        1 Z    GLL  0     **** GLL Z 20
@<TRIPOS>SET

