#    Name: 4lyn_1YG_1_ligand
#    Modification time : Tue Mar 25 11:39:26 2014

@<TRIPOS>MOLECULE
4lyn_1YG_1_ligand
   50    52     1     0     0
SMALL
NO_CHARGES


@<TRIPOS>ATOM
      1 C5         28.5820   28.0220   24.8570 C.2       1 1YG301      0.0000 
      2 C7         29.9390   28.2790   24.9920 C.2       1 1YG301      0.0000 
      3 C8         27.8110   26.7300   24.5870 C.3       1 1YG301      0.0000 
      4 C9         27.2000   31.3940   28.1370 C.2       1 1YG301      0.0000 
      5 C10        28.7200   25.5150   24.7640 C.3       1 1YG301      0.0000 
      6 C11        27.2760   26.7380   23.1560 C.3       1 1YG301      0.0000 
      7 C12        26.6410   26.6060   25.5630 C.3       1 1YG301      0.0000 
      8 C14        26.3150   32.2630   28.6880 C.2       1 1YG301      0.0000 
      9 C15        25.1140   30.4550   28.9440 C.2       1 1YG301      0.0000 
     10 N4         30.1290   29.5960   25.3080 N.2       1 1YG301      0.0000 
     11 C1         28.9070   30.1190   25.3540 C.2       1 1YG301      0.0000 
     12 O2         27.9220   29.2140   25.0740 O.3       1 1YG301      0.0000 
     13 C3         28.5420   31.4890   25.7620 C.3       1 1YG301      0.0000 
     14 S6         28.8380   31.5810   27.5340 S.3       1 1YG301      0.0000 
     15 N16        25.1460   31.7380   29.1710 N.2       1 1YG301      0.0000 
     16 N17        23.9480   29.7520   29.1830 N.am      1 1YG301      0.0000 
     17 C18        23.6780   28.4770   28.7650 C.2       1 1YG301      0.0000 
     18 O20        24.4640   27.7990   28.1090 O.2       1 1YG301      0.0000 
     19 C19        22.2830   27.9690   29.1230 C.3       1 1YG301      0.0000 
     20 C22        21.5900   27.4370   27.8680 C.3       1 1YG301      0.0000 
     21 C21        22.4160   26.9390   30.2380 C.ar      1 1YG301      0.0000 
     22 C24        22.7290   25.6090   29.9750 C.ar      1 1YG301      0.0000 
     23 C26        22.7570   24.6720   30.9970 C.ar      1 1YG301      0.0000 
     24 C27        22.4900   25.0560   32.2970 C.ar      1 1YG301      0.0000 
     25 C25        22.2160   26.3800   32.5760 C.ar      1 1YG301      0.0000 
     26 C23        22.1780   27.3160   31.5530 C.ar      1 1YG301      0.0000 
     27 S13        26.5230   29.7840   28.1750 S.3       1 1YG301      0.0000 
     28 H          30.6333   27.6216   24.8781 H         1 1YG301      0.0000 
     29 H          26.5059   33.2605   28.7426 H         1 1YG301      0.0000 
     30 H          27.5135   31.7135   25.6983 H         1 1YG301      0.0000 
     31 H          29.1754   32.2472   25.3930 H         1 1YG301      0.0000 
     32 H          23.1867   30.2577   29.7496 H         1 1YG301      0.0000 
     33 H          21.7165   28.8181   29.5018 H         1 1YG301      0.0000 
     34 H          22.9428   25.3180   29.0062 H         1 1YG301      0.0000 
     35 H          22.9777   23.6875   30.7839 H         1 1YG301      0.0000 
     36 H          22.4954   24.3581   33.0534 H         1 1YG301      0.0000 
     37 H          22.0384   26.6774   33.5483 H         1 1YG301      0.0000 
     38 H          21.9703   28.3052   31.7714 H         1 1YG301      0.0000 
     39 H          29.5016   25.5420   24.1408 H         1 1YG301      0.0000 
     40 H          29.0872   25.4580   25.6924 H         1 1YG301      0.0000 
     41 H          28.2342   24.6589   24.5879 H         1 1YG301      0.0000 
     42 H          28.0135   26.8074   22.4842 H         1 1YG301      0.0000 
     43 H          26.7655   25.9043   22.9457 H         1 1YG301      0.0000 
     44 H          26.6589   27.5081   22.9945 H         1 1YG301      0.0000 
     45 H          26.9508   26.5872   26.5136 H         1 1YG301      0.0000 
     46 H          26.0033   27.3716   25.4776 H         1 1YG301      0.0000 
     47 H          26.1161   25.7688   25.4092 H         1 1YG301      0.0000 
     48 H          21.4961   28.1444   27.1675 H         1 1YG301      0.0000 
     49 H          22.0984   26.6813   27.4551 H         1 1YG301      0.0000 
     50 H          20.6706   27.0977   28.0670 H         1 1YG301      0.0000 
@<TRIPOS>BOND
     1    2    1 2    
     2    3    1 1    
     3   12    1 1    
     4   10    2 1    
     5   28    2 1    
     6    5    3 1    
     7    6    3 1    
     8    7    3 1    
     9    8    4 2    
    10   14    4 1    
    11   27    4 1    
    12   39    5 1    
    13   40    5 1    
    14   41    5 1    
    15   42    6 1    
    16   43    6 1    
    17   44    6 1    
    18   45    7 1    
    19   46    7 1    
    20   47    7 1    
    21   15    8 1    
    22   29    8 1    
    23   15    9 2    
    24   16    9 1    
    25   27    9 1    
    26   11   10 2    
    27   12   11 1    
    28   13   11 1    
    29   14   13 1    
    30   30   13 1    
    31   31   13 1    
    32   17   16 am   
    33   32   16 1    
    34   18   17 2    
    35   19   17 1    
    36   20   19 1    
    37   21   19 1    
    38   33   19 1    
    39   48   20 1    
    40   49   20 1    
    41   50   20 1    
    42   22   21 ar   
    43   26   21 ar   
    44   23   22 ar   
    45   34   22 1    
    46   24   23 ar   
    47   35   23 1    
    48   25   24 ar   
    49   36   24 1    
    50   26   25 ar   
    51   37   25 1    
    52   38   26 1    
@<TRIPOS>SUBSTRUCTURE
     1 1YG301      1 GROUP   
@<TRIPOS>SET

