#    Name: 3na3_ATP_1_INTS_M
#    Modification time : Tue Mar 25 01:08:21 2014

@<TRIPOS>MOLECULE
3na3_ATP_1_INTS_M
   78     0    12     0     0
SMALL
NO_CHARGES


@<TRIPOS>ATOM
      1 NZ         16.3535  -24.2840    8.5410 N.4       3 LYC4        0.0000 
      2 NZ         17.3030  -25.2080    7.1240 N.4      11 LYL4        0.0000 
      3 NZ         15.4040  -23.3600    9.9580 N.4       7 LYP4        0.0000 
      4 N          16.1995  -26.4145    7.5195 N.am      2 SEC2        0.0000 
      5 N          17.3030  -25.2080    7.1240 N.am     10 SEL2        0.0000 
      6 N          15.0960  -27.6210    7.9150 N.am      6 SEP2        0.0000 
      7 NZ         15.2900  -28.7575    9.5100 N.4       3 LYC4        0.0000 
      8 NZ         16.6490  -28.2710    9.9590 N.4      11 LYL4        0.0000 
      9 NZ         13.9260  -28.1690    8.2720 N.4       7 LYP4        0.0000 
     10 N          15.2900  -28.7575    9.5100 N.am      2 SEC2        0.0000 
     11 N          16.6490  -28.2710    9.9590 N.am     10 SEL2        0.0000 
     12 N          13.9310  -29.2440    9.0610 N.am      6 SEP2        0.0000 
     13 N          15.8725  -27.9460    8.9370 N.am      2 SEC2        0.0000 
     14 N          17.1040  -29.3335   10.8415 N.am      2 SEC2        0.0000 
     15 N          17.5590  -30.3960   11.7240 N.am      6 SEP2        0.0000 
     16 NZ         15.7200  -24.9945   10.8775 N.4       3 LYC4        0.0000 
     17 NZ         16.0360  -26.6290   11.7970 N.4      11 LYL4        0.0000 
     18 N          15.1635  -27.2945   12.5335 N.am      2 SEC2        0.0000 
     19 N          16.0360  -26.6290   11.7970 N.am     10 SEL2        0.0000 
     20 N          14.2910  -27.9600   13.2700 N.am      6 SEP2        0.0000 
     21 N          16.4520  -24.5295    9.8335 N.am      2 SEC2        0.0000 
     22 N          17.5000  -25.6990    9.7090 N.am     10 SEL2        0.0000 
     23 N          15.4040  -23.3600    9.9580 N.am      6 SEP2        0.0000 
     24 N          20.2250  -24.4325    9.8175 N.am      2 SEC2        0.0000 
     25 N          19.8070  -25.8470   10.1470 N.am     10 SEL2        0.0000 
     26 N          20.6430  -23.0180    9.4880 N.am      6 SEP2        0.0000 
     27 N          22.1730  -27.2100   11.8550 N.am      2 SEC2        0.0000 
     28 N          20.6970  -27.2410   12.1770 N.am     10 SEL2        0.0000 
     29 N          23.6490  -27.1790   11.5330 N.am      6 SEP2        0.0000 
     30 N          17.9250  -28.8945   11.6155 N.am      2 SEC2        0.0000 
     31 N          18.2910  -27.3930   11.5070 N.am     10 SEL2        0.0000 
     32 CA         20.8060  -24.3660   13.6585 C.3       4 GLC5        0.0000 
     33 CA         19.0120  -25.4850   13.8500 C.3      12 GLL5        0.0000 
     34 CA         22.6000  -23.2470   13.4670 C.3       8 GLP5        0.0000 
     35 CA         19.2485  -23.7690   15.9610 C.3       4 GLC5        0.0000 
     36 CA         17.9490  -24.5950   14.4460 C.3      12 GLL5        0.0000 
     37 CA         20.5480  -22.9430   17.4760 C.3       8 GLP5        0.0000 
     38 N          14.9545  -26.4340   13.4255 N.am      2 SEC2        0.0000 
     39 N          15.6180  -24.9080   13.5810 N.am     10 SEL2        0.0000 
     40 N          14.6460  -25.4225   14.5440 N.am      2 SEC2        0.0000 
     41 N          13.6740  -25.9370   15.5070 N.am      6 SEP2        0.0000 
     42 N          14.3370  -24.0625   14.2010 N.am      2 SEC2        0.0000 
     43 N          13.0560  -23.2170   14.8210 N.am      6 SEP2        0.0000 
     44 O          14.9545  -26.4340   13.4255 O.2       1 ALC1        0.0000 
     45 O          15.6180  -24.9080   13.5810 O.2       9 ALL1        0.0000 
     46 O          14.2910  -27.9600   13.2700 O.2       5 ALP1        0.0000 
     47 O          14.3795  -22.9550   14.9680 O.2       1 ALC1        0.0000 
     48 O          15.7030  -22.6930   15.1150 O.2       9 ALL1        0.0000 
     49 O          13.0560  -23.2170   14.8210 O.2       5 ALP1        0.0000 
     50 CA         19.1555  -20.7745   15.5550 C.3       4 GLC5        0.0000 
     51 CA         17.9070  -22.2850   14.5580 C.3      12 GLL5        0.0000 
     52 CA         20.4040  -19.2640   16.5520 C.3       8 GLP5        0.0000 
     53 CA         19.2275  -22.6140   16.0170 C.3       4 GLC5        0.0000 
     54 CA         19.8040  -19.4255   14.4935 C.3       4 GLC5        0.0000 
     55 CA         19.2040  -19.5870   12.4350 C.3      12 GLL5        0.0000 
     56 CA         17.1760  -17.5685   11.3795 C.3       4 GLC5        0.0000 
     57 CA         19.0830  -18.1890   12.0020 C.3      12 GLL5        0.0000 
     58 CA         15.2690  -16.9480   10.7570 C.3       8 GLP5        0.0000 
     59 CA         20.0500  -16.5635   12.8220 C.3       4 GLC5        0.0000 
     60 CA         21.0170  -14.9380   13.6420 C.3       8 GLP5        0.0000 
     61 O          20.0125  -16.2610   10.5840 O.2       1 ALC1        0.0000 
     62 O          19.9240  -17.6580   11.0720 O.2       9 ALL1        0.0000 
     63 O          20.1010  -14.8640   10.0960 O.2       5 ALP1        0.0000 
     64 CA         16.2545  -17.4675   12.1145 C.3       4 GLC5        0.0000 
     65 CA         17.2400  -17.9870   13.4720 C.3      12 GLL5        0.0000 
     66 CA         16.9960  -16.4020   14.6905 C.3       4 GLC5        0.0000 
     67 CA         16.7520  -14.8170   15.9090 C.3       8 GLP5        0.0000 
     68 CA         18.1675  -18.2510   15.1340 C.3       4 GLC5        0.0000 
     69 CA         19.0950  -18.5150   16.7960 C.3       8 GLP5        0.0000 
     70 CA         18.6665  -19.3070   15.1040 C.3       4 GLC5        0.0000 
     71 CA         18.2380  -20.0990   13.4120 C.3      12 GLL5        0.0000 
     72 CA         16.3197  -26.0707   14.7495 C.3       4 GLC5        0.0000 
     73 CA         15.2470  -27.7760   15.5250 C.3       8 GLP5        0.0000 
     74 CA         15.3752  -23.5382   12.1860 C.3       4 GLC5        0.0000 
     75 CA         16.8360  -24.1360   13.5020 C.3      12 GLL5        0.0000 
     76 CA         14.0320  -23.6460   10.6270 C.3       8 GLP5        0.0000 
     77 CA         19.2398  -19.9970   10.5183 C.3       4 GLC5        0.0000 
     78 CA         19.3360  -21.1060    8.8180 C.3       8 GLP5        0.0000 
@<TRIPOS>BOND
@<TRIPOS>SUBSTRUCTURE
     1 ALC1       44 GROUP        1 X    ALC  0     ROOT ALC X 1
     2 SEC2        4 GROUP        1 X    SEC  0     **** SEC X 2
     3 LYC4        1 GROUP        1 X    LYC  0     **** LYC X 4
     4 GLC5       32 GROUP        1 X    GLC  0     **** GLC X 6
     5 ALP1       46 GROUP        1 Y    ALP  0     ROOT ALP Y 8
     6 SEP2        6 GROUP        1 Y    SEP  0     **** SEP Y 9
     7 LYP4        3 GROUP        1 Y    LYP  0     **** LYP Y 11
     8 GLP5       34 GROUP        1 Y    GLP  0     **** GLP Y 13
     9 ALL1       45 GROUP        1 Z    ALL  0     ROOT ALL Z 15
    10 SEL2        5 GROUP        1 Z    SEL  0     **** SEL Z 16
    11 LYL4        2 GROUP        1 Z    LYL  0     **** LYL Z 18
    12 GLL5       33 GROUP        1 Z    GLL  0     **** GLL Z 20
@<TRIPOS>SET

