#    Name: 3na3_ATP_1_ligand
#    Modification time : Tue Mar 25 01:08:21 2014

@<TRIPOS>MOLECULE
3na3_ATP_1_ligand
   43    45     1     0     0
SMALL
NO_CHARGES


@<TRIPOS>ATOM
      1 PG         18.3260  -25.7430    8.2040 P.3       1 ATP500      0.0000 
      2 O1G        19.6770  -25.0680    7.8570 O.co2     1 ATP500      0.0000 
      3 O2G        17.3030  -25.2080    7.1240 O.co2     1 ATP500      0.0000 
      4 O3G        18.6220  -27.2630    8.1370 O.co2     1 ATP500      0.0000 
      5 PB         16.9740  -26.9930   10.6890 P.3       1 ATP500      0.0000 
      6 O1B        16.6490  -28.2710    9.9590 O.co2     1 ATP500      0.0000 
      7 O2B        16.0360  -26.6290   11.7970 O.co2     1 ATP500      0.0000 
      8 O3B        17.5000  -25.6990    9.7090 O.3       1 ATP500      0.0000 
      9 PA         19.6180  -26.4600   11.5120 P.3       1 ATP500      0.0000 
     10 O1A        19.8070  -25.8470   10.1470 O.co2     1 ATP500      0.0000 
     11 O2A        20.6970  -27.2410   12.1770 O.co2     1 ATP500      0.0000 
     12 O3A        18.2910  -27.3930   11.5070 O.3       1 ATP500      0.0000 
     13 O5'        19.1730  -25.2340   12.4720 O.3       1 ATP500      0.0000 
     14 C5'        19.0120  -25.4850   13.8500 C.3       1 ATP500      0.0000 
     15 C4'        17.9490  -24.5950   14.4460 C.3       1 ATP500      0.0000 
     16 O4'        18.6930  -23.4360   14.7750 O.3       1 ATP500      0.0000 
     17 C3'        16.8360  -24.1360   13.5020 C.3       1 ATP500      0.0000 
     18 O3'        15.6180  -24.9080   13.5810 O.3       1 ATP500      0.0000 
     19 C2'        16.6010  -22.7250   13.9880 C.3       1 ATP500      0.0000 
     20 O2'        15.7030  -22.6930   15.1150 O.3       1 ATP500      0.0000 
     21 C1'        17.9070  -22.2850   14.5580 C.3       1 ATP500      0.0000 
     22 N9         18.5750  -21.3780   13.6180 N.pl3     1 ATP500      0.0000 
     23 C8         19.6570  -21.6750   12.8770 C.2       1 ATP500      0.0000 
     24 N7         20.0300  -20.5950   12.1630 N.2       1 ATP500      0.0000 
     25 C5         19.2040  -19.5870   12.4350 C.ar      1 ATP500      0.0000 
     26 C6         19.0830  -18.1890   12.0020 C.ar      1 ATP500      0.0000 
     27 N6         19.9240  -17.6580   11.0720 N.pl3     1 ATP500      0.0000 
     28 N1         18.0960  -17.4650   12.5570 N.ar      1 ATP500      0.0000 
     29 C2         17.2400  -17.9870   13.4720 C.ar      1 ATP500      0.0000 
     30 N3         17.2870  -19.2630   13.9090 N.ar      1 ATP500      0.0000 
     31 C4         18.2380  -20.0990   13.4120 C.ar      1 ATP500      0.0000 
     32 H          19.9500  -25.3118   14.4103 H         1 ATP500      0.0000 
     33 H          18.7209  -26.5345   14.0440 H         1 ATP500      0.0000 
     34 H          17.5467  -25.0359   15.3148 H         1 ATP500      0.0000 
     35 H          17.2416  -24.0739   12.5187 H         1 ATP500      0.0000 
     36 H          16.3217  -22.0984   13.2154 H         1 ATP500      0.0000 
     37 H          17.7129  -21.7679   15.4858 H         1 ATP500      0.0000 
     38 H          20.1053  -22.5411   12.8581 H         1 ATP500      0.0000 
     39 H          19.7731  -16.6971   10.8399 H         1 ATP500      0.0000 
     40 H          20.6185  -18.2757   10.7030 H         1 ATP500      0.0000 
     41 H          16.4833  -17.3454   13.8689 H         1 ATP500      0.0000 
     42 H          15.8879  -25.8418   13.3462 H         1 ATP500      0.0000 
     43 H          14.7988  -22.8789   14.7306 H         1 ATP500      0.0000 
@<TRIPOS>BOND
     1    2    1 ar   
     2    3    1 ar   
     3    4    1 ar   
     4    8    1 1    
     5    6    5 ar   
     6    7    5 ar   
     7    8    5 1    
     8   12    5 1    
     9   10    9 ar   
    10   11    9 ar   
    11   12    9 1    
    12   13    9 1    
    13   14   13 1    
    14   15   14 1    
    15   32   14 1    
    16   33   14 1    
    17   16   15 1    
    18   17   15 1    
    19   34   15 1    
    20   21   16 1    
    21   18   17 1    
    22   19   17 1    
    23   35   17 1    
    24   42   18 1    
    25   20   19 1    
    26   21   19 1    
    27   36   19 1    
    28   43   20 1    
    29   22   21 1    
    30   37   21 1    
    31   23   22 1    
    32   31   22 1    
    33   24   23 2    
    34   38   23 1    
    35   25   24 1    
    36   26   25 ar   
    37   31   25 ar   
    38   27   26 1    
    39   28   26 ar   
    40   39   27 1    
    41   40   27 1    
    42   29   28 ar   
    43   30   29 ar   
    44   41   29 1    
    45   31   30 ar   
@<TRIPOS>SUBSTRUCTURE
     1 ATP500      1 GROUP   
@<TRIPOS>SET

