#    Name: 3ix4_TX1_4_INTS_M
#    Modification time : Tue Mar 25 17:37:52 2014

@<TRIPOS>MOLECULE
3ix4_TX1_4_INTS_M
   72     0     9     0     0
SMALL
NO_CHARGES


@<TRIPOS>ATOM
      1 O           4.7845   40.0950  -32.4520 O.2       1 ALC1        0.0000 
      2 O           4.6120   38.7800  -32.6610 O.2       7 ALL1        0.0000 
      3 O           4.9570   41.4100  -32.2430 O.2       4 ALP1        0.0000 
      4 CA          1.1785   38.8635  -27.4795 C.3       3 GLC5        0.0000 
      5 CA          2.8770   38.3760  -28.2330 C.3       9 GLL5        0.0000 
      6 CA         -0.5200   39.3510  -26.7260 C.3       6 GLP5        0.0000 
      7 N           3.4540   35.4725  -31.6885 N.am      2 SEC2        0.0000 
      8 N           4.0020   36.7000  -32.1570 N.am      8 SEL2        0.0000 
      9 N           2.9060   34.2450  -31.2200 N.am      5 SEP2        0.0000 
     10 N          -0.4100   37.5830  -30.5190 N.am      2 SEC2        0.0000 
     11 N           0.8050   37.1660  -29.6730 N.am      8 SEL2        0.0000 
     12 N          -1.6250   38.0000  -31.3650 N.am      5 SEP2        0.0000 
     13 N          -0.0835   38.1415  -31.4535 N.am      2 SEC2        0.0000 
     14 N           1.4580   38.2830  -31.5420 N.am      8 SEL2        0.0000 
     15 CA          3.8585   41.9935  -39.6935 C.3       3 GLC5        0.0000 
     16 CA          3.1290   40.2370  -38.8420 C.3       9 GLL5        0.0000 
     17 CA          4.5880   43.7500  -40.5450 C.3       6 GLP5        0.0000 
     18 CA          1.9790   38.8725  -39.7020 C.3       3 GLC5        0.0000 
     19 CA          0.8290   37.5080  -40.5620 C.3       6 GLP5        0.0000 
     20 CA          2.4275   41.3375  -37.3040 C.3       3 GLC5        0.0000 
     21 CA          1.7260   42.4380  -35.7660 C.3       6 GLP5        0.0000 
     22 CA          0.4145   36.7635  -35.5850 C.3       3 GLC5        0.0000 
     23 CA         -0.3770   38.2760  -34.8660 C.3       9 GLL5        0.0000 
     24 CA          1.2060   35.2510  -36.3040 C.3       6 GLP5        0.0000 
     25 CA         -0.2875   36.5330  -33.9750 C.3       3 GLC5        0.0000 
     26 CA         -0.1980   34.7900  -33.0840 C.3       6 GLP5        0.0000 
     27 CA         -1.5255   37.7470  -33.3295 C.3       3 GLC5        0.0000 
     28 CA         -2.6740   37.2180  -31.7930 C.3       6 GLP5        0.0000 
     29 CA         -2.2700   38.2180  -35.4615 C.3       3 GLC5        0.0000 
     30 CA         -4.1630   38.1600  -36.0570 C.3       6 GLP5        0.0000 
     31 CA          7.6065   41.3915  -35.8825 C.3       3 GLC5        0.0000 
     32 CA          8.1710   39.6860  -37.0390 C.3       9 GLL5        0.0000 
     33 CA          7.0420   43.0970  -34.7260 C.3       6 GLP5        0.0000 
     34 CA          9.4840   41.5750  -35.8295 C.3       3 GLC5        0.0000 
     35 CA          9.4470   40.1260  -37.3890 C.3       9 GLL5        0.0000 
     36 CA          9.5210   43.0240  -34.2700 C.3       6 GLP5        0.0000 
     37 CA          8.5745   40.8300  -41.5910 C.3       3 GLC5        0.0000 
     38 CA          9.0170   39.7300  -39.7480 C.3       9 GLL5        0.0000 
     39 CA          8.1320   41.9300  -43.4340 C.3       6 GLP5        0.0000 
     40 CA          6.2745   36.9260  -40.5780 C.3       3 GLC5        0.0000 
     41 CA          6.6570   38.7370  -40.7660 C.3       9 GLL5        0.0000 
     42 CA          5.8920   35.1150  -40.3900 C.3       6 GLP5        0.0000 
     43 CA          7.3695   37.2810  -42.0770 C.3       3 GLC5        0.0000 
     44 CA          8.0820   35.8250  -43.3880 C.3       6 GLP5        0.0000 
     45 CA          7.1865   39.7425  -42.5240 C.3       3 GLC5        0.0000 
     46 CA          7.7160   40.7480  -44.2820 C.3       6 GLP5        0.0000 
     47 CA          6.8025   40.8435  -40.4370 C.3       3 GLC5        0.0000 
     48 CA          6.9480   42.9500  -40.1080 C.3       6 GLP5        0.0000 
     49 CA          5.4620   38.8990  -41.9345 C.3       3 GLC5        0.0000 
     50 CA          4.2670   39.0610  -43.1030 C.3       6 GLP5        0.0000 
     51 CA          1.5122   38.4303  -38.7390 C.3       3 GLC5        0.0000 
     52 CA          2.8330   39.5080  -37.1400 C.3       9 GLL5        0.0000 
     53 CA         -0.3135   40.1140  -34.9322 C.3       3 GLC5        0.0000 
     54 CA          1.3810   38.6630  -35.4160 C.3       9 GLL5        0.0000 
     55 CA         -0.3790   41.8570  -34.6930 C.3       6 GLP5        0.0000 
     56 CA          1.5826   36.9627  -35.8017 C.3       3 GLC5        0.0000 
     57 CA          1.5580   39.1970  -36.6920 C.3       9 GLL5        0.0000 
     58 CA          3.5990   37.0888  -36.3552 C.3       3 GLC5        0.0000 
     59 CA          3.7620   38.7080  -34.9250 C.3       9 GLL5        0.0000 
     60 CA          3.6110   35.1280  -36.8970 C.3       6 GLP5        0.0000 
     61 CA          6.9908   39.1770  -29.1007 C.3       3 GLC5        0.0000 
     62 CA          5.3390   38.4450  -29.6370 C.3       9 GLL5        0.0000 
     63 CA          8.6750   39.7710  -29.2500 C.3       6 GLP5        0.0000 
     64 CA         11.2565   40.1340  -36.8563 C.3       3 GLC5        0.0000 
     65 CA         12.8620   40.1290  -35.6580 C.3       6 GLP5        0.0000 
     66 CA          8.8925   38.1129  -36.8091 C.3       3 GLC5        0.0000 
     67 CA          9.1940   36.4320  -36.1560 C.3       6 GLP5        0.0000 
     68 CA         11.1045   40.3235  -40.3005 C.3       3 GLC5        0.0000 
     69 CA          9.8550   40.1520  -38.7200 C.3       9 GLL5        0.0000 
     70 CA         12.7730   40.7060  -41.3670 C.3       6 GLP5        0.0000 
     71 CA          9.6837   38.1320  -39.8612 C.3       3 GLC5        0.0000 
     72 CA         10.7810   36.6560  -40.3820 C.3       6 GLP5        0.0000 
@<TRIPOS>BOND
@<TRIPOS>SUBSTRUCTURE
     1 ALC1        1 GROUP        1 X    ALC  0     ROOT ALC X 1
     2 SEC2        7 GROUP        1 X    SEC  0     **** SEC X 2
     3 GLC5        4 GROUP        1 X    GLC  0     **** GLC X 6
     4 ALP1        3 GROUP        1 Y    ALP  0     ROOT ALP Y 8
     5 SEP2        9 GROUP        1 Y    SEP  0     **** SEP Y 9
     6 GLP5        6 GROUP        1 Y    GLP  0     **** GLP Y 13
     7 ALL1        2 GROUP        1 Z    ALL  0     ROOT ALL Z 15
     8 SEL2        8 GROUP        1 Z    SEL  0     **** SEL Z 16
     9 GLL5        5 GROUP        1 Z    GLL  0     **** GLL Z 20
@<TRIPOS>SET

