#    Name: 3ix4_TX1_4_ligand
#    Modification time : Tue Mar 25 17:37:52 2014

@<TRIPOS>MOLECULE
3ix4_TX1_4_ligand
   44    46     1     0     0
SMALL
NO_CHARGES


@<TRIPOS>ATOM
      1 C1          3.9910   39.2740  -36.2640 C.ar      1 TX1174      0.0000 
      2 C2          2.8330   39.5080  -37.1400 C.ar      1 TX1174      0.0000 
      3 C3          1.5580   39.1970  -36.6920 C.ar      1 TX1174      0.0000 
      4 C4          1.3810   38.6630  -35.4160 C.ar      1 TX1174      0.0000 
      5 C5          2.4490   38.4190  -34.5450 C.ar      1 TX1174      0.0000 
      6 C6          3.7620   38.7080  -34.9250 C.ar      1 TX1174      0.0000 
      7 C7          4.9520   38.4670  -34.0330 C.3       1 TX1174      0.0000 
      8 N8          4.6120   38.7800  -32.6610 N.am      1 TX1174      0.0000 
      9 C9          4.2610   37.8340  -31.8020 C.2       1 TX1174      0.0000 
     10 C10         4.1790   38.1430  -30.3410 C.ar      1 TX1174      0.0000 
     11 C11         5.3390   38.4450  -29.6370 C.ar      1 TX1174      0.0000 
     12 C12         5.2740   38.7210  -28.2660 C.ar      1 TX1174      0.0000 
     13 C13         4.0660   38.6860  -27.5760 C.ar      1 TX1174      0.0000 
     14 C14         2.8770   38.3760  -28.2330 C.ar      1 TX1174      0.0000 
     15 C15         2.8850   38.0930  -29.6010 C.ar      1 TX1174      0.0000 
     16 N16         1.6760   37.8000  -30.2540 N.pl3     1 TX1174      0.0000 
     17 O17         4.0020   36.7000  -32.1570 O.2       1 TX1174      0.0000 
     18 O18         0.8050   37.1660  -29.6730 O.2       1 TX1174      0.0000 
     19 O19         1.4580   38.2830  -31.5420 O.2       1 TX1174      0.0000 
     20 O20         5.2480   39.5930  -36.6840 O.3       1 TX1174      0.0000 
     21 C21         5.9380   38.7710  -37.6320 C.2       1 TX1174      0.0000 
     22 O22         5.3940   37.7640  -38.0580 O.2       1 TX1174      0.0000 
     23 BR23        3.1290   40.2370  -38.8420 Br        1 TX1174      0.0000 
     24 BR24       -0.3770   38.2760  -34.8660 Br        1 TX1174      0.0000 
     25 C25         7.2990   39.2370  -38.0320 C.ar      1 TX1174      0.0000 
     26 C26         8.1710   39.6860  -37.0390 C.ar      1 TX1174      0.0000 
     27 C27         9.4470   40.1260  -37.3890 C.ar      1 TX1174      0.0000 
     28 C28         9.8550   40.1520  -38.7200 C.ar      1 TX1174      0.0000 
     29 C29         9.0170   39.7300  -39.7480 C.ar      1 TX1174      0.0000 
     30 C30         7.7370   39.2750  -39.4470 C.ar      1 TX1174      0.0000 
     31 CL31        6.6570   38.7370  -40.7660 Cl        1 TX1174      0.0000 
     32 H           0.7430   39.3584  -37.2964 H         1 TX1174      0.0000 
     33 H           2.2635   38.0211  -33.6119 H         1 TX1174      0.0000 
     34 H           5.7829   39.0911  -34.3830 H         1 TX1174      0.0000 
     35 H           5.2559   37.4180  -34.1320 H         1 TX1174      0.0000 
     36 H           4.6604   39.7858  -32.3951 H         1 TX1174      0.0000 
     37 H           6.2457   38.4668  -30.1185 H         1 TX1174      0.0000 
     38 H           6.1459   38.9560  -27.7575 H         1 TX1174      0.0000 
     39 H           4.0497   38.8924  -26.5635 H         1 TX1174      0.0000 
     40 H           1.9917   38.3551  -27.7117 H         1 TX1174      0.0000 
     41 H           7.8746   39.6920  -36.0585 H         1 TX1174      0.0000 
     42 H          10.0987   40.4371  -36.6492 H         1 TX1174      0.0000 
     43 H          10.8082   40.4948  -38.9512 H         1 TX1174      0.0000 
     44 H           9.3407   39.7543  -40.7200 H         1 TX1174      0.0000 
@<TRIPOS>BOND
     1    2    1 ar   
     2    6    1 ar   
     3   20    1 1    
     4    3    2 ar   
     5   23    2 1    
     6    4    3 ar   
     7   32    3 1    
     8    5    4 ar   
     9   24    4 1    
    10    6    5 ar   
    11   33    5 1    
    12    7    6 1    
    13    8    7 1    
    14   34    7 1    
    15   35    7 1    
    16    9    8 am   
    17   36    8 1    
    18   10    9 1    
    19   17    9 2    
    20   11   10 ar   
    21   15   10 ar   
    22   12   11 ar   
    23   37   11 1    
    24   13   12 ar   
    25   38   12 1    
    26   14   13 ar   
    27   39   13 1    
    28   15   14 ar   
    29   40   14 1    
    30   16   15 1    
    31   18   16 2    
    32   19   16 2    
    33   21   20 1    
    34   22   21 2    
    35   25   21 1    
    36   26   25 ar   
    37   30   25 ar   
    38   27   26 ar   
    39   41   26 1    
    40   28   27 ar   
    41   42   27 1    
    42   29   28 ar   
    43   43   28 1    
    44   30   29 ar   
    45   44   29 1    
    46   31   30 1    
@<TRIPOS>SUBSTRUCTURE
     1 TX1174      1 GROUP   
@<TRIPOS>SET

