#    Name: 1GUQ_1_CAVITY_N1_6.mol2
#    Modification time : Tue Mar 11 03:13:54 2014

@<TRIPOS>MOLECULE
1GUQ_1_CAVITY_N1_6.mol2
   83     0     6     0     0
SMALL
NO_CHARGES


@<TRIPOS>ATOM
      1 N          30.8424   -6.3884   68.5839 N.2       2 ALA2        0.0000 
      2 CA         30.8519   -5.3429   67.5084 C.3       5 GLY6        0.0000 
      3 N          30.1911   -8.4032   68.7116 N.2       2 ALA2        0.0000 
      4 DU         30.2006   -7.3577   67.6360 H         6 CUB7        0.0000 
      5 O          30.2101   -6.3122   66.5605 O.2       2 ALA2        0.0000 
      6 O          29.5588   -8.3270   66.6881 O.2       2 ALA2        0.0000 
      7 OG         29.5682   -7.2814   65.6126 O.2       1 SER1        0.0000 
      8 O          29.5777   -6.2359   64.5371 O.2       2 ALA2        0.0000 
      9 O          29.5872   -5.1904   63.4615 O.2       2 ALA2        0.0000 
     10 OG         28.9454   -6.1597   62.5136 O.2       1 SER1        0.0000 
     11 O          28.9548   -5.1141   61.4381 O.2       2 ALA2        0.0000 
     12 DU         34.3682   -8.0245   60.7486 H         6 CUB7        0.0000 
     13 N          34.3777   -6.9790   59.6731 N.2       2 ALA2        0.0000 
     14 O          33.7074  -11.0848   61.9518 O.2       2 ALA2        0.0000 
     15 CZ         33.7169  -10.0393   60.8762 C.ar      4 PHE5        0.0000 
     16 CA         33.7264   -8.9938   59.8007 C.3       5 GLY6        0.0000 
     17 CZ         33.7358   -7.9482   58.7252 C.ar      4 PHE5        0.0000 
     18 CZ         33.0656  -12.0541   61.0039 C.ar      4 PHE5        0.0000 
     19 CA         33.0751  -11.0086   59.9283 C.3       5 GLY6        0.0000 
     20 N          32.1887   -7.9001   69.2182 N.2       2 ALA2        0.0000 
     21 N          32.1981   -6.8546   68.1427 N.2       2 ALA2        0.0000 
     22 N          32.2076   -5.8091   67.0671 N.2       2 ALA2        0.0000 
     23 CA         32.2171   -4.7635   65.9916 C.3       5 GLY6        0.0000 
     24 N          31.5468   -8.8694   68.2703 N.2       2 ALA2        0.0000 
     25 CA         31.5563   -7.8239   67.1948 C.3       5 GLY6        0.0000 
     26 DU         31.5658   -6.7784   66.1192 H         6 CUB7        0.0000 
     27 O          31.5753   -5.7328   65.0437 O.2       2 ALA2        0.0000 
     28 N          31.5847   -4.6873   63.9682 N.2       2 ALA2        0.0000 
     29 CA         30.9145   -8.7932   66.2469 C.3       5 GLY6        0.0000 
     30 OG         30.9240   -7.7476   65.1713 O.2       1 SER1        0.0000 
     31 OG         30.9334   -6.7021   64.0958 O.2       1 SER1        0.0000 
     32 O          30.9429   -5.6566   63.0203 O.2       2 ALA2        0.0000 
     33 OG         30.3011   -6.6259   62.0724 O.2       1 SER1        0.0000 
     34 O          30.3106   -5.5803   60.9968 O.2       2 ALA2        0.0000 
     35 OG         29.6592   -7.5952   61.1245 O.2       1 SER1        0.0000 
     36 N          29.4867   -5.9222   69.0252 N.2       2 ALA2        0.0000 
     37 N          28.8449   -6.8915   68.0773 N.2       2 ALA2        0.0000 
     38 O          28.8544   -5.8459   67.0017 O.2       2 ALA2        0.0000 
     39 O          28.2125   -6.8152   66.0538 O.2       2 ALA2        0.0000 
     40 O          27.5707   -7.7845   65.1059 O.2       2 ALA2        0.0000 
     41 OG         27.5802   -6.7390   64.0304 O.2       1 SER1        0.0000 
     42 O          27.5896   -5.6935   62.9549 O.2       2 ALA2        0.0000 
     43 CA         35.0006   -8.1007   62.7721 C.3       5 GLY6        0.0000 
     44 CZ         35.0100   -7.0552   61.6965 C.ar      4 PHE5        0.0000 
     45 CA         34.3587   -9.0700   61.8242 C.3       5 GLY6        0.0000 
     46 CA         34.2867   -6.6652   64.1612 C.3       5 GLY6        0.0000 
     47 CA         33.6354   -8.6801   64.2888 C.3       5 GLY6        0.0000 
     48 CA         33.6449   -7.6345   63.2133 C.3       5 GLY6        0.0000 
     49 CA         33.6543   -6.5890   62.1378 C.3       5 GLY6        0.0000 
     50 CA         32.9935   -9.6493   63.3409 C.3       5 GLY6        0.0000 
     51 DU         33.0030   -8.6038   62.2654 H         6 CUB7        0.0000 
     52 DU         33.0125   -7.5583   61.1899 H         6 CUB7        0.0000 
     53 N          33.0220   -6.5127   60.1143 N.2       2 ALA2        0.0000 
     54 CA         32.3517  -10.6186   62.3930 C.3       5 GLY6        0.0000 
     55 DU         32.3612   -9.5731   61.3175 H         6 CUB7        0.0000 
     56 DU         32.3707   -8.5276   60.2420 H         6 CUB7        0.0000 
     57 CZ         32.3801   -7.4820   59.1664 C.ar      4 PHE5        0.0000 
     58 O          31.7099  -11.5879   61.4451 O.2       2 ALA2        0.0000 
     59 CA         31.7193  -10.5424   60.3696 C.3       5 GLY6        0.0000 
     60 CA         31.7288   -9.4969   59.2941 C.3       5 GLY6        0.0000 
     61 CA         31.7383   -8.4513   58.2185 C.3       5 GLY6        0.0000 
     62 CA         33.5539   -7.3208   67.7014 C.3       5 GLY6        0.0000 
     63 CA         33.5633   -6.2753   66.6259 C.3       5 GLY6        0.0000 
     64 CA         32.9215   -7.2446   65.6780 C.3       5 GLY6        0.0000 
     65 CA         32.9310   -6.1990   64.6025 C.3       5 GLY6        0.0000 
     66 CA         32.2797   -8.2138   64.7301 C.3       5 GLY6        0.0000 
     67 DU         32.2891   -7.1683   63.6546 H         6 CUB7        0.0000 
     68 O          32.2986   -6.1228   62.5790 O.2       2 ALA2        0.0000 
     69 CA         31.6378   -9.1831   63.7822 C.3       5 GLY6        0.0000 
     70 OG         31.6473   -8.1376   62.7066 O.2       1 SER1        0.0000 
     71 OG         31.6568   -7.0921   61.6311 O.2       1 SER1        0.0000 
     72 N          31.6663   -6.0465   60.5556 N.2       2 ALA2        0.0000 
     73 OG         30.9960  -10.1524   62.8343 O.2       1 SER1        0.0000 
     74 OG         31.0055   -9.1069   61.7587 O.2       1 SER1        0.0000 
     75 OG         31.0149   -8.0614   60.6832 O.2       1 SER1        0.0000 
     76 CA         31.0244   -7.0158   59.6077 C.3       5 GLY6        0.0000 
     77 OG         30.3636  -10.0762   60.8108 O.2       1 SER1        0.0000 
     78 N          30.3731   -9.0307   59.7353 N.2       2 ALA2        0.0000 
     79 CZ         35.0726  -10.5055   60.4350 C.ar      4 PHE5        0.0000 
     80 CA         35.0821   -9.4600   59.3595 C.3       5 GLY6        0.0000 
     81 CZ         36.3658   -7.5214   61.2553 C.ar      4 PHE5        0.0000 
     82 CA         35.7144   -9.5362   61.3829 C.3       5 GLY6        0.0000 
     83 NZ         35.7239   -8.4907   60.3074 N.2       3 LYS4        0.0000 
@<TRIPOS>BOND
@<TRIPOS>SUBSTRUCTURE
     1 SER1        7 GROUP   
     2 ALA2        1 GROUP   
     3 LYS4       83 GROUP   
     4 PHE5       15 GROUP   
     5 GLY6        2 GROUP   
     6 CUB7        4 GROUP   
@<TRIPOS>SET

