#    Name: 1guq_GUD_1_INTS_M
#    Modification time : Tue Mar 25 03:56:51 2014

@<TRIPOS>MOLECULE
1guq_GUD_1_INTS_M
  100     0    12     0     0
SMALL
NO_CHARGES


@<TRIPOS>ATOM
      1 O          36.8425   -7.6915   58.9920 O.2       1 ALC1        0.0000 
      2 O          35.8480   -8.1900   59.7060 O.2       9 ALL1        0.0000 
      3 O          37.8370   -7.1930   58.2780 O.2       5 ALP1        0.0000 
      4 CA         34.8400  -11.7795   60.3240 C.3       4 GLC5        0.0000 
      5 CA         34.5190   -9.9620   60.5700 C.3      12 GLL5        0.0000 
      6 CA         35.1610  -13.5970   60.0780 C.3       8 GLP5        0.0000 
      7 CA         33.2600  -10.8665   59.1290 C.3       4 GLC5        0.0000 
      8 CA         32.0010  -11.7710   57.6880 C.3       8 GLP5        0.0000 
      9 N          35.5360   -5.0330   59.2360 N.am      2 SEC2        0.0000 
     10 N          35.2830   -6.0390   60.1010 N.am     10 SEL2        0.0000 
     11 N          35.7890   -4.0270   58.3710 N.am      6 SEP2        0.0000 
     12 N          37.2985  -11.1975   58.3775 N.am      2 SEC2        0.0000 
     13 N          36.5140  -10.3220   59.3030 N.am     10 SEL2        0.0000 
     14 N          38.0830  -12.0730   57.4520 N.am      6 SEP2        0.0000 
     15 CA         33.7955   -5.2755   62.5925 C.3       4 GLC5        0.0000 
     16 CA         32.9290   -6.7210   61.4630 C.3      12 GLL5        0.0000 
     17 CA         34.6620   -3.8300   63.7220 C.3       8 GLP5        0.0000 
     18 O          32.3085   -4.8825   59.5210 O.2       1 ALC1        0.0000 
     19 O          31.5260   -5.9610   59.6250 O.2       9 ALL1        0.0000 
     20 O          33.0910   -3.8040   59.4170 O.2       5 ALP1        0.0000 
     21 CA         32.9960   -5.1560   63.4025 C.3       4 GLC5        0.0000 
     22 CA         31.3300   -6.4820   63.0830 C.3      12 GLL5        0.0000 
     23 N          31.2650   -3.9875   61.4610 N.am      2 SEC2        0.0000 
     24 N          30.2600   -4.9640   61.5550 N.am     10 SEL2        0.0000 
     25 N          32.2700   -3.0110   61.3670 N.am      6 SEP2        0.0000 
     26 N          29.6945   -4.1810   60.4020 N.am      2 SEC2        0.0000 
     27 N          29.1290   -3.3980   59.2490 N.am      6 SEP2        0.0000 
     28 N          27.7910   -9.2170   65.5460 N.am      2 SEC2        0.0000 
     29 N          28.4570   -8.1350   66.0180 N.am     10 SEL2        0.0000 
     30 N          27.1250  -10.2990   65.0740 N.am      6 SEP2        0.0000 
     31 N          26.7925   -4.8795   66.8430 N.am      2 SEC2        0.0000 
     32 N          28.1010   -5.5900   66.5000 N.am     10 SEL2        0.0000 
     33 N          25.4840   -4.1690   67.1860 N.am      6 SEP2        0.0000 
     34 N          28.4595   -4.5405   65.8575 N.am      2 SEC2        0.0000 
     35 N          28.8180   -3.4910   65.2150 N.am      6 SEP2        0.0000 
     36 NZ         27.4345   -4.2760   61.5120 N.4       3 LYC4        0.0000 
     37 NZ         27.7940   -4.8330   62.7120 N.4      11 LYL4        0.0000 
     38 NZ         27.7830   -3.2360   59.2830 N.4       7 LYP4        0.0000 
     39 N          28.3060   -4.1620   63.9635 N.am      2 SEC2        0.0000 
     40 N          27.7940   -4.8330   62.7120 N.am     10 SEL2        0.0000 
     41 N          27.4345   -4.2760   61.5120 N.am      2 SEC2        0.0000 
     42 N          27.0750   -3.7190   60.3120 N.am      6 SEP2        0.0000 
     43 NZ         26.1605   -7.0630   61.0360 N.4       3 LYC4        0.0000 
     44 NZ         27.4820   -7.2290   61.8870 N.4      11 LYL4        0.0000 
     45 NZ         25.7090   -6.6630   59.1940 N.4       7 LYP4        0.0000 
     46 N          28.0330   -8.3180   62.2890 N.am      2 SEC2        0.0000 
     47 N          27.4820   -7.2290   61.8870 N.am     10 SEL2        0.0000 
     48 N          28.5840   -9.4070   62.6910 N.am      6 SEP2        0.0000 
     49 N          27.2480   -7.0610   60.6465 N.am      2 SEC2        0.0000 
     50 N          27.0140   -6.8930   59.4060 N.am      6 SEP2        0.0000 
     51 N          26.1605   -7.0630   61.0360 N.am      2 SEC2        0.0000 
     52 N          24.8390   -6.8970   60.1850 N.am      6 SEP2        0.0000 
     53 N          25.1600   -6.3830   61.4440 N.am      2 SEC2        0.0000 
     54 N          25.4810   -5.8690   62.7030 N.am     10 SEL2        0.0000 
     55 CA         22.7175   -7.2175   64.9790 C.3       4 GLC5        0.0000 
     56 CA         23.1970   -5.6940   63.4820 C.3      12 GLL5        0.0000 
     57 CA         22.2380   -8.7410   66.4760 C.3       8 GLP5        0.0000 
     58 CA         21.3780   -6.3545   64.0640 C.3       4 GLC5        0.0000 
     59 CA         19.5590   -7.0150   64.6460 C.3       8 GLP5        0.0000 
     60 CA         26.1635   -0.9320   65.1915 C.3       4 GLC5        0.0000 
     61 CA         24.8100   -1.8280   64.1160 C.3      12 GLL5        0.0000 
     62 CA         27.5170   -0.0360   66.2670 C.3       8 GLP5        0.0000 
     63 CA         24.5260    0.0090   64.4785 C.3       4 GLC5        0.0000 
     64 CA         24.2420    1.8460   64.8410 C.3       8 GLP5        0.0000 
     65 O          23.6070   -7.7620   64.0985 O.2       1 ALC1        0.0000 
     66 O          23.0410   -7.0620   63.0650 O.2       9 ALL1        0.0000 
     67 O          24.1730   -8.4620   65.1320 O.2       5 ALP1        0.0000 
     68 N          21.2240   -3.9340   60.7935 N.am      2 SEC2        0.0000 
     69 N          21.6590   -4.8760   61.8210 N.am     10 SEL2        0.0000 
     70 N          20.7890   -2.9920   59.7660 N.am      6 SEP2        0.0000 
     71 O          20.6225   -4.5615   62.5960 O.2       1 ALC1        0.0000 
     72 O          21.6590   -4.8760   61.8210 O.2       9 ALL1        0.0000 
     73 O          19.5860   -4.2470   63.3710 O.2       5 ALP1        0.0000 
     74 N          21.9405   -2.7100   60.7070 N.am      2 SEC2        0.0000 
     75 N          23.0920   -2.4280   61.6480 N.am     10 SEL2        0.0000 
     76 N          23.7285   -2.7680   60.3920 N.am      2 SEC2        0.0000 
     77 N          24.3650   -3.1080   59.1360 N.am      6 SEP2        0.0000 
     78 O          22.3585   -1.4730   62.0515 O.2       1 ALC1        0.0000 
     79 O          23.0920   -2.4280   61.6480 O.2       9 ALL1        0.0000 
     80 O          21.6250   -0.5180   62.4550 O.2       5 ALP1        0.0000 
     81 N          24.7505   -2.9525   66.2360 N.am      2 SEC2        0.0000 
     82 N          24.0170   -1.7360   65.2860 N.am     10 SEL2        0.0000 
     83 N          23.8425   -0.5270   66.0945 N.am      2 SEC2        0.0000 
     84 N          23.6680    0.6820   66.9030 N.am      6 SEP2        0.0000 
     85 O          22.6745   -1.3840   64.9405 O.2       1 ALC1        0.0000 
     86 O          24.0170   -1.7360   65.2860 O.2       9 ALL1        0.0000 
     87 O          21.3320   -1.0320   64.5950 O.2       5 ALP1        0.0000 
     88 CA         35.1737   -9.6280   62.6013 C.3       4 GLC5        0.0000 
     89 CA         33.6860   -9.0420   61.0330 C.3      12 GLL5        0.0000 
     90 CA         36.2450   -9.7540   64.4010 C.3       8 GLP5        0.0000 
     91 CA         29.5718   -6.6273   59.8317 C.3       4 GLC5        0.0000 
     92 CA         31.5700   -6.8240   60.7430 C.3      12 GLL5        0.0000 
     93 CA         28.0970   -6.6680   58.4010 C.3       8 GLP5        0.0000 
     94 CA         22.8825   -5.0037   65.1377 C.3       4 GLC5        0.0000 
     95 CA         24.7010   -5.5310   63.8870 C.3      12 GLL5        0.0000 
     96 CA         21.8160   -4.3950   66.5910 C.3       8 GLP5        0.0000 
     97 CA         26.0230   -1.3100   62.7428 C.3       4 GLC5        0.0000 
     98 CA         24.6540   -3.1640   63.4030 C.3      12 GLL5        0.0000 
     99 CA         27.3140   -0.1240   61.7260 C.3       8 GLP5        0.0000 
    100 CA         22.8566   -4.0134   64.7719 C.3       4 GLC5        0.0000 
@<TRIPOS>BOND
@<TRIPOS>SUBSTRUCTURE
     1 ALC1        1 GROUP        1 X    ALC  0     ROOT ALC X 1
     2 SEC2        9 GROUP        1 X    SEC  0     **** SEC X 2
     3 LYC4       36 GROUP        1 X    LYC  0     **** LYC X 4
     4 GLC5        4 GROUP        1 X    GLC  0     **** GLC X 6
     5 ALP1        3 GROUP        1 Y    ALP  0     ROOT ALP Y 8
     6 SEP2       11 GROUP        1 Y    SEP  0     **** SEP Y 9
     7 LYP4       38 GROUP        1 Y    LYP  0     **** LYP Y 11
     8 GLP5        6 GROUP        1 Y    GLP  0     **** GLP Y 13
     9 ALL1        2 GROUP        1 Z    ALL  0     ROOT ALL Z 15
    10 SEL2       10 GROUP        1 Z    SEL  0     **** SEL Z 16
    11 LYL4       37 GROUP        1 Z    LYL  0     **** LYL Z 18
    12 GLL5        5 GROUP        1 Z    GLL  0     **** GLL Z 20
@<TRIPOS>SET

