#    Name: 1guq_GUD_1_ligand
#    Modification time : Tue Mar 25 03:56:51 2014

@<TRIPOS>MOLECULE
1guq_GUD_1_ligand
   58    60     1     0     0
SMALL
NO_CHARGES


@<TRIPOS>ATOM
      1 N1         33.9150   -7.6880   60.8970 N.am      1 GUD352      0.0000 
      2 C2         35.0360   -7.2150   60.2330 C.2       1 GUD352      0.0000 
      3 N3         35.8480   -8.1900   59.7060 N.am      1 GUD352      0.0000 
      4 C4         35.7060   -9.5640   59.8360 C.2       1 GUD352      0.0000 
      5 C5         34.5190   -9.9620   60.5700 C.2       1 GUD352      0.0000 
      6 C6         33.6860   -9.0420   61.0330 C.2       1 GUD352      0.0000 
      7 O2         35.2830   -6.0390   60.1010 O.2       1 GUD352      0.0000 
      8 O4         36.5140  -10.3220   59.3030 O.2       1 GUD352      0.0000 
      9 C1D        32.9290   -6.7210   61.4630 C.3       1 GUD352      0.0000 
     10 C2D        31.5700   -6.8240   60.7430 C.3       1 GUD352      0.0000 
     11 O2D        31.5260   -5.9610   59.6250 O.3       1 GUD352      0.0000 
     12 C3D        30.5230   -6.3490   61.7820 C.3       1 GUD352      0.0000 
     13 C4D        31.3300   -6.4820   63.0830 C.3       1 GUD352      0.0000 
     14 O4D        32.5640   -7.1650   62.7600 O.3       1 GUD352      0.0000 
     15 O3D        30.2600   -4.9640   61.5550 O.3       1 GUD352      0.0000 
     16 C5D        30.6520   -7.1140   64.3200 C.3       1 GUD352      0.0000 
     17 O5D        29.6390   -6.1900   64.7180 O.3       1 GUD352      0.0000 
     18 PA         28.4120   -6.7170   65.5820 P.3       1 GUD352      0.0000 
     19 O1A        28.4570   -8.1350   66.0180 O.co2     1 GUD352      0.0000 
     20 O2A        28.1010   -5.5900   66.5000 O.co2     1 GUD352      0.0000 
     21 O3A        27.2630   -6.7030   64.3880 O.3       1 GUD352      0.0000 
     22 PB         27.1340   -6.1560   62.9210 P.3       1 GUD352      0.0000 
     23 O1B        27.7940   -4.8330   62.7120 O.co2     1 GUD352      0.0000 
     24 O2B        27.4820   -7.2290   61.8870 O.co2     1 GUD352      0.0000 
     25 O3B        25.4810   -5.8690   62.7030 O.3       1 GUD352      0.0000 
     26 C1'        24.7010   -5.5310   63.8870 C.3       1 GUD352      0.0000 
     27 C2'        23.1970   -5.6940   63.4820 C.3       1 GUD352      0.0000 
     28 C3'        23.0230   -4.8130   62.2840 C.3       1 GUD352      0.0000 
     29 C4'        23.2580   -3.3860   62.7210 C.3       1 GUD352      0.0000 
     30 C5'        24.6540   -3.1640   63.4030 C.3       1 GUD352      0.0000 
     31 C6'        24.8100   -1.8280   64.1160 C.3       1 GUD352      0.0000 
     32 O2'        23.0410   -7.0620   63.0650 O.3       1 GUD352      0.0000 
     33 O3'        21.6590   -4.8760   61.8210 O.3       1 GUD352      0.0000 
     34 O4'        23.0920   -2.4280   61.6480 O.3       1 GUD352      0.0000 
     35 O5'        24.9570   -4.2060   64.3380 O.3       1 GUD352      0.0000 
     36 O6'        24.0170   -1.7360   65.2860 O.3       1 GUD352      0.0000 
     37 H          36.6963   -7.8530   59.1223 H         1 GUD352      0.0000 
     38 H          34.3744  -10.9744   60.7013 H         1 GUD352      0.0000 
     39 H          32.7977   -9.3352   61.5336 H         1 GUD352      0.0000 
     40 H          33.2534   -5.7457   61.4488 H         1 GUD352      0.0000 
     41 H          31.3766   -7.8346   60.5223 H         1 GUD352      0.0000 
     42 H          29.7301   -6.9760   61.7894 H         1 GUD352      0.0000 
     43 H          31.6170   -5.4295   63.3768 H         1 GUD352      0.0000 
     44 H          31.4091   -7.2466   65.0759 H         1 GUD352      0.0000 
     45 H          30.2462   -8.0665   64.0197 H         1 GUD352      0.0000 
     46 H          24.8803   -6.2649   64.6612 H         1 GUD352      0.0000 
     47 H          22.6038   -5.4106   64.2626 H         1 GUD352      0.0000 
     48 H          23.7119   -5.0651   61.5318 H         1 GUD352      0.0000 
     49 H          22.5090   -3.1510   63.5183 H         1 GUD352      0.0000 
     50 H          25.4079   -3.1856   62.5890 H         1 GUD352      0.0000 
     51 H          24.5551   -1.0307   63.3858 H         1 GUD352      0.0000 
     52 H          25.8895   -1.6972   64.3426 H         1 GUD352      0.0000 
     53 H          32.2105   -5.2571   59.8145 H         1 GUD352      0.0000 
     54 H          29.3736   -4.7950   61.9859 H         1 GUD352      0.0000 
     55 H          23.4233   -7.6054   63.8123 H         1 GUD352      0.0000 
     56 H          21.1067   -4.5877   62.6032 H         1 GUD352      0.0000 
     57 H          23.0052   -1.5420   62.1034 H         1 GUD352      0.0000 
     58 H          23.1105   -1.4636   64.9634 H         1 GUD352      0.0000 
@<TRIPOS>BOND
     1    2    1 1    
     2    6    1 1    
     3    9    1 1    
     4    3    2 1    
     5    7    2 2    
     6    4    3 1    
     7   37    3 1    
     8    5    4 1    
     9    8    4 2    
    10    6    5 2    
    11   38    5 1    
    12   39    6 1    
    13   10    9 1    
    14   14    9 1    
    15   40    9 1    
    16   11   10 1    
    17   12   10 1    
    18   41   10 1    
    19   53   11 1    
    20   13   12 1    
    21   15   12 1    
    22   42   12 1    
    23   14   13 1    
    24   16   13 1    
    25   43   13 1    
    26   54   15 1    
    27   17   16 1    
    28   44   16 1    
    29   45   16 1    
    30   18   17 1    
    31   19   18 ar   
    32   20   18 ar   
    33   21   18 1    
    34   22   21 1    
    35   23   22 ar   
    36   24   22 ar   
    37   25   22 1    
    38   26   25 1    
    39   27   26 1    
    40   35   26 1    
    41   46   26 1    
    42   28   27 1    
    43   32   27 1    
    44   47   27 1    
    45   29   28 1    
    46   33   28 1    
    47   48   28 1    
    48   30   29 1    
    49   34   29 1    
    50   49   29 1    
    51   31   30 1    
    52   35   30 1    
    53   50   30 1    
    54   36   31 1    
    55   51   31 1    
    56   52   31 1    
    57   55   32 1    
    58   56   33 1    
    59   57   34 1    
    60   58   36 1    
@<TRIPOS>SUBSTRUCTURE
     1 GUD352      1 GROUP   
@<TRIPOS>SET

