#    Name: 2pan_TDP_3_INTS_M
#    Modification time : Mon Mar 24 18:35:56 2014

@<TRIPOS>MOLECULE
2pan_TDP_3_INTS_M
   89     0    12     0     0
SMALL
NO_CHARGES


@<TRIPOS>ATOM
      1 CA        -35.2175   33.4620 -127.5315 C.3       4 GLC5        0.0000 
      2 CA        -36.6990   34.5490 -128.2300 C.3      12 GLL5        0.0000 
      3 CA        -33.7360   32.3750 -126.8330 C.3       8 GLP5        0.0000 
      4 CA        -38.8130   34.8940 -128.5750 C.3       4 GLC5        0.0000 
      5 CA        -40.9270   35.2390 -128.9200 C.3       8 GLP5        0.0000 
      6 CA        -35.5220   33.6315 -130.5590 C.3       4 GLC5        0.0000 
      7 CA        -36.7050   34.8840 -129.6990 C.3      12 GLL5        0.0000 
      8 CA        -34.3390   32.3790 -131.4190 C.3       8 GLP5        0.0000 
      9 CA        -38.5300   35.4800 -129.8755 C.3       4 GLC5        0.0000 
     10 CA        -40.3550   36.0760 -130.0520 C.3       8 GLP5        0.0000 
     11 CA        -36.4965   36.9885 -127.0120 C.3       4 GLC5        0.0000 
     12 CA        -35.9120   35.0590 -126.0670 C.3      12 GLL5        0.0000 
     13 CA        -37.0810   38.9180 -127.9570 C.3       8 GLP5        0.0000 
     14 O         -34.2865   37.0500 -125.6430 O.2       1 ALC1        0.0000 
     15 O         -35.1580   35.8670 -125.2780 O.2       9 ALL1        0.0000 
     16 O         -33.4150   38.2330 -126.0080 O.2       5 ALP1        0.0000 
     17 CA        -37.6030   31.2115 -126.9960 C.3       4 GLC5        0.0000 
     18 CA        -37.4330   33.1540 -126.4550 C.3      12 GLL5        0.0000 
     19 CA        -37.7730   29.2690 -127.5370 C.3       8 GLP5        0.0000 
     20 CA        -35.2175   32.9605 -125.4430 C.3       4 GLC5        0.0000 
     21 CA        -36.6990   33.5460 -124.0530 C.3      12 GLL5        0.0000 
     22 CA        -36.8905   32.4845 -122.2720 C.3       4 GLC5        0.0000 
     23 CA        -37.0820   31.4230 -120.4910 C.3       8 GLP5        0.0000 
     24 CA        -38.4850   34.3210 -124.5835 C.3       4 GLC5        0.0000 
     25 CA        -40.2710   35.0960 -125.1140 C.3       8 GLP5        0.0000 
     26 CA        -34.1620   35.6415 -122.2860 C.3       4 GLC5        0.0000 
     27 CA        -34.8080   33.7180 -122.4990 C.3      12 GLL5        0.0000 
     28 CA        -33.5160   37.5650 -122.0730 C.3       8 GLP5        0.0000 
     29 CA        -32.5170   34.4840 -122.9620 C.3       4 GLC5        0.0000 
     30 CA        -33.3840   33.0290 -121.9490 C.3      12 GLL5        0.0000 
     31 CA        -31.6500   35.9390 -123.9750 C.3       8 GLP5        0.0000 
     32 CA        -31.6200   33.3170 -121.1485 C.3       4 GLC5        0.0000 
     33 CA        -29.8560   33.6050 -120.3480 C.3       8 GLP5        0.0000 
     34 CA        -34.9880   29.5600 -125.8570 C.3       4 GLC5        0.0000 
     35 CA        -35.6200   30.7030 -124.3200 C.3      12 GLL5        0.0000 
     36 CA        -34.3560   28.4170 -127.3940 C.3       8 GLP5        0.0000 
     37 CA        -35.8105   28.8320 -124.3240 C.3       4 GLC5        0.0000 
     38 CA        -36.0010   26.9610 -124.3280 C.3       8 GLP5        0.0000 
     39 CA        -36.6965   29.9860 -125.9285 C.3       4 GLC5        0.0000 
     40 CA        -33.1115   29.5000 -124.7525 C.3       4 GLC5        0.0000 
     41 CA        -33.0910   30.4110 -122.7360 C.3      12 GLL5        0.0000 
     42 CA        -33.1320   28.5890 -126.7690 C.3       8 GLP5        0.0000 
     43 CA        -33.7565   28.6120 -122.5500 C.3       4 GLC5        0.0000 
     44 CA        -34.4220   26.8130 -122.3640 C.3       8 GLP5        0.0000 
     45 CA        -34.9705   30.1880 -121.8405 C.3       4 GLC5        0.0000 
     46 CA        -36.8500   29.9650 -120.9450 C.3       8 GLP5        0.0000 
     47 CA        -31.5335   31.8595 -124.7755 C.3       4 GLC5        0.0000 
     48 CA        -31.6780   30.5970 -123.2680 C.3      12 GLL5        0.0000 
     49 CA        -31.3890   33.1220 -126.2830 C.3       8 GLP5        0.0000 
     50 CA        -31.2225   29.2400 -124.7695 C.3       4 GLC5        0.0000 
     51 CA        -30.7670   27.8830 -126.2710 C.3       8 GLP5        0.0000 
     52 CA        -32.3480   28.5870 -122.5195 C.3       4 GLC5        0.0000 
     53 CA        -33.0180   26.5770 -121.7710 C.3       8 GLP5        0.0000 
     54 Zn        -28.6530   27.1140 -122.6995 Zn        3 ZIC7        0.0000 
     55 Zn        -29.0050   27.8920 -123.4640 Zn       11 ZIL7        0.0000 
     56 Zn        -28.3010   26.3360 -121.9350 Zn        7 ZIP7        0.0000 
     57 N         -28.6765   27.6940 -124.9240 N.am      2 SEC2        0.0000 
     58 N         -29.0050   27.8920 -123.4640 N.am     10 SEL2        0.0000 
     59 N         -28.3480   27.4960 -126.3840 N.am      6 SEP2        0.0000 
     60 N         -28.9325   30.2410 -125.8255 N.am      2 SEC2        0.0000 
     61 N         -29.0390   30.3070 -124.3830 N.am     10 SEL2        0.0000 
     62 N         -28.8260   30.1750 -127.2680 N.am      6 SEP2        0.0000 
     63 Zn        -28.7040   27.1260 -121.1440 Zn        3 ZIC7        0.0000 
     64 Zn        -29.1070   27.9160 -120.3530 Zn       11 ZIL7        0.0000 
     65 N         -28.3785   26.8665 -119.4580 N.am      2 SEC2        0.0000 
     66 N         -29.1070   27.9160 -120.3530 N.am     10 SEL2        0.0000 
     67 N         -27.6500   25.8170 -118.5630 N.am      6 SEP2        0.0000 
     68 N         -30.4485   27.5860 -120.0685 N.am      2 SEC2        0.0000 
     69 N         -31.7900   27.2560 -119.7840 N.am      6 SEP2        0.0000 
     70 N         -26.9925   31.0005 -119.2335 N.am      2 SEC2        0.0000 
     71 N         -27.5210   29.7650 -119.7920 N.am     10 SEL2        0.0000 
     72 N         -26.4640   32.2360 -118.6750 N.am      6 SEP2        0.0000 
     73 N         -29.5720   31.3105 -119.1205 N.am      2 SEC2        0.0000 
     74 N         -30.0310   30.2040 -119.8810 N.am     10 SEL2        0.0000 
     75 N         -29.1130   32.4170 -118.3600 N.am      6 SEP2        0.0000 
     76 N         -31.2650   29.8900 -118.9915 N.am      2 SEC2        0.0000 
     77 N         -32.4990   29.5760 -118.1020 N.am      6 SEP2        0.0000 
     78 CA        -37.8260   33.4412 -129.9577 C.3       4 GLC5        0.0000 
     79 CA        -38.9500   32.1660 -130.9510 C.3       8 GLP5        0.0000 
     80 CA        -36.8915   36.8173 -128.4608 C.3       4 GLC5        0.0000 
     81 CA        -35.3031   33.0962 -126.4797 C.3       4 GLC5        0.0000 
     82 CA        -38.5706   34.4567 -125.6202 C.3       4 GLC5        0.0000 
     83 CA        -33.9220   33.8563 -120.4405 C.3       4 GLC5        0.0000 
     84 CA        -33.7480   34.3390 -118.6570 C.3       8 GLP5        0.0000 
     85 CA        -35.5890   32.3983 -121.3575 C.3       4 GLC5        0.0000 
     86 CA        -34.3731   31.8064 -125.3047 C.3       4 GLC5        0.0000 
     87 CA        -33.8690   31.6980 -122.8400 C.3      12 GLL5        0.0000 
     88 CA        -35.9301   30.6014 -122.3607 C.3       4 GLC5        0.0000 
     89 CA        -34.9320   31.8470 -123.6260 C.3      12 GLL5        0.0000 
@<TRIPOS>BOND
@<TRIPOS>SUBSTRUCTURE
     1 ALC1       14 GROUP        1 X    ALC  0     ROOT ALC X 1
     2 SEC2       57 GROUP        1 X    SEC  0     **** SEC X 2
     3 ZIC7       54 GROUP        1 X    ZIC  0     **** ZIC X 5
     4 GLC5        1 GROUP        1 X    GLC  0     **** GLC X 6
     5 ALP1       16 GROUP        1 Y    ALP  0     ROOT ALP Y 8
     6 SEP2       59 GROUP        1 Y    SEP  0     **** SEP Y 9
     7 ZIP7       56 GROUP        1 Y    ZIP  0     **** ZIP Y 12
     8 GLP5        3 GROUP        1 Y    GLP  0     **** GLP Y 13
     9 ALL1       15 GROUP        1 Z    ALL  0     ROOT ALL Z 15
    10 SEL2       58 GROUP        1 Z    SEL  0     **** SEL Z 16
    11 ZIL7       55 GROUP        1 Z    ZIL  0     **** ZIL Z 19
    12 GLL5        2 GROUP        1 Z    GLL  0     **** GLL Z 20
@<TRIPOS>SET

