#    Name: 2pan_TDP_3_ligand
#    Modification time : Mon Mar 24 18:35:56 2014

@<TRIPOS>MOLECULE
2pan_TDP_3_ligand
   42    43     1     0     0
SMALL
NO_CHARGES


@<TRIPOS>ATOM
      1 N1'       -37.4150   33.4900 -127.7610 N.ar      1 TDP801      0.0000 
      2 C2'       -36.6990   34.5490 -128.2300 C.ar      1 TDP801      0.0000 
      3 C2A       -36.7050   34.8840 -129.6990 C.3       1 TDP801      0.0000 
      4 N3'       -35.9610   35.3220 -127.3970 N.ar      1 TDP801      0.0000 
      5 C4'       -35.9120   35.0590 -126.0670 C.ar      1 TDP801      0.0000 
      6 N4'       -35.1580   35.8670 -125.2780 N.pl3     1 TDP801      0.0000 
      7 C5'       -36.7030   33.9030 -125.5290 C.ar      1 TDP801      0.0000 
      8 C6'       -37.4330   33.1540 -126.4550 C.ar      1 TDP801      0.0000 
      9 C35       -36.6990   33.5460 -124.0530 C.3       1 TDP801      0.0000 
     10 N3        -35.2950   33.2120 -123.7340 N.pl3     1 TDP801      0.0000 
     11 C2        -34.8080   33.7180 -122.4990 C.2       1 TDP801      0.0000 
     12 S1        -33.3840   33.0290 -121.9490 S.3       1 TDP801      0.0000 
     13 C5        -33.8690   31.6980 -122.8400 C.2       1 TDP801      0.0000 
     14 C4        -34.9320   31.8470 -123.6260 C.2       1 TDP801      0.0000 
     15 C4A       -35.6200   30.7030 -124.3200 C.3       1 TDP801      0.0000 
     16 C5A       -33.0910   30.4110 -122.7360 C.3       1 TDP801      0.0000 
     17 C5B       -31.6780   30.5970 -123.2680 C.3       1 TDP801      0.0000 
     18 O5G       -30.9400   29.4210 -122.9720 O.3       1 TDP801      0.0000 
     19 P1        -29.3650   29.3470 -123.2680 P.3       1 TDP801      0.0000 
     20 O11       -28.6800   29.9240 -121.9100 O.3       1 TDP801      0.0000 
     21 O12       -29.0050   27.8920 -123.4640 O.co2     1 TDP801      0.0000 
     22 O13       -29.0390   30.3070 -124.3830 O.co2     1 TDP801      0.0000 
     23 P2        -28.8570   29.4060 -120.3810 P.3       1 TDP801      0.0000 
     24 O21       -29.1070   27.9160 -120.3530 O.co2     1 TDP801      0.0000 
     25 O22       -27.5210   29.7650 -119.7920 O.co2     1 TDP801      0.0000 
     26 O23       -30.0310   30.2040 -119.8810 O.co2     1 TDP801      0.0000 
     27 H         -34.7050   36.6315 -125.7366 H         1 TDP801      0.0000 
     28 H         -35.1224   35.6261 -124.3081 H         1 TDP801      0.0000 
     29 H         -37.9816   32.3440 -126.1168 H         1 TDP801      0.0000 
     30 H         -37.3384   32.6988 -123.8936 H         1 TDP801      0.0000 
     31 H         -37.0280   34.3947 -123.4843 H         1 TDP801      0.0000 
     32 H         -35.1708   34.3903 -121.9378 H         1 TDP801      0.0000 
     33 H         -33.5905   29.6323 -123.3134 H         1 TDP801      0.0000 
     34 H         -33.0415   30.0951 -121.6934 H         1 TDP801      0.0000 
     35 H         -31.2521   31.4796 -122.7893 H         1 TDP801      0.0000 
     36 H         -31.7443   30.7801 -124.3412 H         1 TDP801      0.0000 
     37 H         -36.1372   35.6822 -129.9002 H         1 TDP801      0.0000 
     38 H         -36.3559   34.1287 -130.2536 H         1 TDP801      0.0000 
     39 H         -37.6263   35.0889 -130.0294 H         1 TDP801      0.0000 
     40 H         -35.5936   30.8021 -125.3147 H         1 TDP801      0.0000 
     41 H         -35.1934   29.8254 -124.1014 H         1 TDP801      0.0000 
     42 H         -36.5826   30.6344 -124.0578 H         1 TDP801      0.0000 
@<TRIPOS>BOND
     1    2    1 ar   
     2    8    1 ar   
     3    3    2 1    
     4    4    2 ar   
     5   37    3 1    
     6   38    3 1    
     7   39    3 1    
     8    5    4 ar   
     9    6    5 1    
    10    7    5 ar   
    11   27    6 1    
    12   28    6 1    
    13    8    7 ar   
    14    9    7 1    
    15   29    8 1    
    16   10    9 1    
    17   30    9 1    
    18   31    9 1    
    19   11   10 2    
    20   14   10 1    
    21   12   11 1    
    22   32   11 1    
    23   13   12 1    
    24   14   13 2    
    25   16   13 1    
    26   15   14 1    
    27   40   15 1    
    28   41   15 1    
    29   42   15 1    
    30   17   16 1    
    31   33   16 1    
    32   34   16 1    
    33   18   17 1    
    34   35   17 1    
    35   36   17 1    
    36   19   18 1    
    37   20   19 1    
    38   21   19 ar   
    39   22   19 ar   
    40   23   20 1    
    41   24   23 ar   
    42   25   23 ar   
    43   26   23 ar   
@<TRIPOS>SUBSTRUCTURE
     1 TDP801      1 GROUP   
@<TRIPOS>SET

