#    Name: 2QXW_1_CAVITY_N1_ALL.mol2
#    Modification time : Tue Mar 11 09:11:06 2014

@<TRIPOS>MOLECULE
2QXW_1_CAVITY_N1_ALL.mol2
   88     0     4     0     0
SMALL
NO_CHARGES


@<TRIPOS>ATOM
      1 CZ         21.8226  -10.7603   13.5238 C.ar      2 PHE5        0.0000 
      2 CA         21.9036   -9.5860   12.5940 C.3       3 GLY6        0.0000 
      3 CZ         21.5964   -8.6617   13.7347 C.ar      2 PHE5        0.0000 
      4 CA         20.1304   -8.7905   13.4443 C.3       3 GLY6        0.0000 
      5 N          20.2114   -7.6162   12.5145 N.2       1 ALA2        0.0000 
      6 DU         18.4214  -12.4422   15.9431 H         4 CUB7        0.0000 
      7 CZ         18.5024  -11.2679   15.0133 C.ar      2 PHE5        0.0000 
      8 CZ         18.5834  -10.0936   14.0836 C.ar      2 PHE5        0.0000 
      9 CA         18.6644   -8.9193   13.1538 C.3       3 GLY6        0.0000 
     10 DU         16.9554  -12.5711   15.6526 H         4 CUB7        0.0000 
     11 CZ         17.0364  -11.3968   14.7229 C.ar      2 PHE5        0.0000 
     12 CZ         17.1175  -10.2224   13.7931 C.ar      2 PHE5        0.0000 
     13 CZ         17.1985   -9.0481   12.8634 C.ar      2 PHE5        0.0000 
     14 CA         17.4415   -5.5252   10.0741 C.3       3 GLY6        0.0000 
     15 CA         17.5225   -4.3509    9.1444 C.3       3 GLY6        0.0000 
     16 CZ         15.4895  -12.6999   15.3622 C.ar      2 PHE5        0.0000 
     17 CZ         15.8945   -6.8283   10.7134 C.ar      2 PHE5        0.0000 
     18 CA         15.9755   -5.6540    9.7837 C.3       3 GLY6        0.0000 
     19 CZ         14.0235  -12.8287   15.0717 C.ar      2 PHE5        0.0000 
     20 CZ         12.4765  -14.1319   15.7110 C.ar      2 PHE5        0.0000 
     21 CZ         19.8232   -7.8661   14.5850 C.ar      2 PHE5        0.0000 
     22 N          19.9042   -6.6918   13.6552 N.2       1 ALA2        0.0000 
     23 O          18.0331  -12.6922   18.0135 O.2       1 ALA2        0.0000 
     24 O          18.1142  -11.5179   17.0838 O.2       1 ALA2        0.0000 
     25 CZ         18.1952  -10.3436   16.1540 C.ar      2 PHE5        0.0000 
     26 CZ         18.2762   -9.1693   15.2243 C.ar      2 PHE5        0.0000 
     27 CZ         18.3572   -7.9950   14.2945 C.ar      2 PHE5        0.0000 
     28 CA         18.4382   -6.8207   13.3648 C.3       3 GLY6        0.0000 
     29 CA         18.5192   -5.6463   12.4350 C.3       3 GLY6        0.0000 
     30 CA         18.6002   -4.4720   11.5053 C.3       3 GLY6        0.0000 
     31 CZ         18.6812   -3.2977   10.5755 C.ar      2 PHE5        0.0000 
     32 O          16.5672  -12.8210   17.7231 O.2       1 ALA2        0.0000 
     33 DU         16.6482  -11.6467   16.7933 H         4 CUB7        0.0000 
     34 DU         16.7292  -10.4724   15.8636 H         4 CUB7        0.0000 
     35 CZ         16.8102   -9.2981   14.9338 C.ar      2 PHE5        0.0000 
     36 CZ         16.8912   -8.1238   14.0041 C.ar      2 PHE5        0.0000 
     37 CZ         16.9722   -6.9495   13.0743 C.ar      2 PHE5        0.0000 
     38 CA         17.0533   -5.7752   12.1446 C.3       3 GLY6        0.0000 
     39 CA         17.1343   -4.6009   11.2148 C.3       3 GLY6        0.0000 
     40 CZ         17.2153   -3.4265   10.2851 C.ar      2 PHE5        0.0000 
     41 N          15.0202  -14.1242   18.3624 N.2       1 ALA2        0.0000 
     42 N          15.1012  -12.9499   17.4326 N.2       1 ALA2        0.0000 
     43 DU         15.1822  -11.7756   16.5029 H         4 CUB7        0.0000 
     44 CZ         15.2632  -10.6012   15.5731 C.ar      2 PHE5        0.0000 
     45 CZ         15.3443   -9.4269   14.6434 C.ar      2 PHE5        0.0000 
     46 CZ         15.5063   -7.0783   12.7839 C.ar      2 PHE5        0.0000 
     47 CZ         15.5873   -5.9040   11.8541 C.ar      2 PHE5        0.0000 
     48 CZ         15.6683   -4.7297   10.9244 C.ar      2 PHE5        0.0000 
     49 CZ         15.7493   -3.5554    9.9947 C.ar      2 PHE5        0.0000 
     50 N          13.6353  -13.0787   17.1422 N.2       1 ALA2        0.0000 
     51 CA         13.7163  -11.9044   16.2124 C.3       3 GLY6        0.0000 
     52 CA         13.7973  -10.7301   15.2827 C.3       3 GLY6        0.0000 
     53 CZ         19.5159   -6.9418   15.7257 C.ar      2 PHE5        0.0000 
     54 CA         19.5969   -5.7675   14.7959 C.3       3 GLY6        0.0000 
     55 CZ         17.8879   -9.4193   17.2947 C.ar      2 PHE5        0.0000 
     56 CZ         17.9690   -8.2449   16.3650 C.ar      2 PHE5        0.0000 
     57 CZ         18.0500   -7.0706   15.4352 C.ar      2 PHE5        0.0000 
     58 CZ         18.1310   -5.8963   14.5055 C.ar      2 PHE5        0.0000 
     59 CZ         18.2120   -4.7220   13.5757 C.ar      2 PHE5        0.0000 
     60 O          16.2600  -11.8967   18.8638 O.2       1 ALA2        0.0000 
     61 O          16.3410  -10.7224   17.9340 O.2       1 ALA2        0.0000 
     62 O          16.4220   -9.5481   17.0043 O.2       1 ALA2        0.0000 
     63 DU         16.5030   -8.3738   16.0745 H         4 CUB7        0.0000 
     64 O          16.5840   -7.1995   15.1448 O.2       1 ALA2        0.0000 
     65 CZ         16.6650   -6.0251   14.2150 C.ar      2 PHE5        0.0000 
     66 N          14.7940  -12.0255   18.5733 N.2       1 ALA2        0.0000 
     67 N          14.8750  -10.8512   17.6436 N.2       1 ALA2        0.0000 
     68 CA         14.9560   -9.6769   16.7138 C.3       3 GLY6        0.0000 
     69 CZ         15.0370   -8.5026   15.7841 C.ar      2 PHE5        0.0000 
     70 CZ         15.1180   -7.3283   14.8543 C.ar      2 PHE5        0.0000 
     71 O          15.1990   -6.1540   13.9246 O.2       1 ALA2        0.0000 
     72 CA         13.4090  -10.9800   17.3531 C.3       3 GLY6        0.0000 
     73 CZ         19.1277   -7.1918   17.7961 C.ar      2 PHE5        0.0000 
     74 CZ         17.6617   -7.3206   17.5057 C.ar      2 PHE5        0.0000 
     75 CA         17.7427   -6.1463   16.5759 C.3       3 GLY6        0.0000 
     76 O          16.1147   -8.6237   18.1450 O.2       1 ALA2        0.0000 
     77 DU         16.1958   -7.4494   17.2152 H         4 CUB7        0.0000 
     78 O          16.2768   -6.2751   16.2855 O.2       1 ALA2        0.0000 
     79 CZ         14.5678   -9.9269   18.7843 C.ar      2 PHE5        0.0000 
     80 CA         14.6488   -8.7526   17.8545 C.3       3 GLY6        0.0000 
     81 CZ         14.7298   -7.5783   16.9248 C.ar      2 PHE5        0.0000 
     82 O          14.8108   -6.4039   15.9951 O.2       1 ALA2        0.0000 
     83 CA         17.3545   -6.3963   18.6464 C.3       3 GLY6        0.0000 
     84 CA         17.4355   -5.2220   17.7167 C.3       3 GLY6        0.0000 
     85 CZ         15.8075   -7.6994   19.2857 C.ar      2 PHE5        0.0000 
     86 CZ         15.8885   -6.5251   18.3560 C.ar      2 PHE5        0.0000 
     87 N          15.9695   -5.3508   17.4262 N.2       1 ALA2        0.0000 
     88 N          14.4226   -6.6539   18.0655 N.2       1 ALA2        0.0000 
@<TRIPOS>BOND
@<TRIPOS>SUBSTRUCTURE
     1 ALA2        5 GROUP   
     2 PHE5        1 GROUP   
     3 GLY6        2 GROUP   
     4 CUB7        6 GROUP   
@<TRIPOS>SET

