#    Name: 2qxw_LDT_1_INTS_M
#    Modification time : Mon Mar 24 22:57:21 2014

@<TRIPOS>MOLECULE
2qxw_LDT_1_INTS_M
   72     0     6     0     0
SMALL
NO_CHARGES


@<TRIPOS>ATOM
      1 CA         13.2170  -10.7860   16.2955 C.3       2 GLC5        0.0000 
      2 CA         15.2120  -10.9940   16.4340 C.3       6 GLL5        0.0000 
      3 CA         11.2220  -10.5780   16.1570 C.3       4 GLP5        0.0000 
      4 CA         15.3800   -2.5875   11.2295 C.3       2 GLC5        0.0000 
      5 CA         14.9540   -3.7270    9.7440 C.3       6 GLL5        0.0000 
      6 CA         15.8060   -1.4480   12.7150 C.3       4 GLP5        0.0000 
      7 CA         13.4730   -2.9150    8.6155 C.3       2 GLC5        0.0000 
      8 CA         11.9920   -2.1030    7.4870 C.3       4 GLP5        0.0000 
      9 CA         13.7715   -5.1750    9.1220 C.3       2 GLC5        0.0000 
     10 CA         12.5890   -6.6230    8.5000 C.3       4 GLP5        0.0000 
     11 CA         15.9175   -4.6100    8.2825 C.3       2 GLC5        0.0000 
     12 CA         16.8810   -5.4930    6.8210 C.3       4 GLP5        0.0000 
     13 CA         16.5205   -2.7980    8.4880 C.3       2 GLC5        0.0000 
     14 CA         18.0870   -1.8690    7.2320 C.3       4 GLP5        0.0000 
     15 CA         15.4505  -10.6870   20.0650 C.3       2 GLC5        0.0000 
     16 CA         14.2550  -11.1360   18.5820 C.3       6 GLL5        0.0000 
     17 CA         16.6460  -10.2380   21.5480 C.3       4 GLP5        0.0000 
     18 CA         13.6960  -10.0835   19.8820 C.3       2 GLC5        0.0000 
     19 CA         13.1370   -9.0310   21.1820 C.3       4 GLP5        0.0000 
     20 CA         19.6020   -8.5720   15.7810 C.3       2 GLC5        0.0000 
     21 CA         17.6790   -8.4930   15.0260 C.3       6 GLL5        0.0000 
     22 CA         21.5250   -8.6510   16.5360 C.3       4 GLP5        0.0000 
     23 CA         17.5965   -4.6705   14.5230 C.3       2 GLC5        0.0000 
     24 CA         18.3590   -6.3150   14.2060 C.3       6 GLL5        0.0000 
     25 CA         16.8340   -3.0260   14.8400 C.3       4 GLP5        0.0000 
     26 CA         19.5415   -4.8145   15.3615 C.3       2 GLC5        0.0000 
     27 CA         20.7240   -3.3140   16.5170 C.3       4 GLP5        0.0000 
     28 CA         18.4710   -3.2215   13.3370 C.3       2 GLC5        0.0000 
     29 CA         19.2930   -4.3320   12.5110 C.3       6 GLL5        0.0000 
     30 CA         17.6490   -2.1110   14.1630 C.3       4 GLP5        0.0000 
     31 CA         20.6695   -3.9950   14.1730 C.3       2 GLC5        0.0000 
     32 CA         22.0460   -3.6580   15.8350 C.3       4 GLP5        0.0000 
     33 CA         20.1415   -9.6775   15.0425 C.3       2 GLC5        0.0000 
     34 CA         18.6130   -9.3630   13.9390 C.3       6 GLL5        0.0000 
     35 CA         21.6700   -9.9920   16.1460 C.3       4 GLP5        0.0000 
     36 CA         18.3455   -8.9740   12.0040 C.3       2 GLC5        0.0000 
     37 CA         18.0780   -8.5850   10.0690 C.3       4 GLP5        0.0000 
     38 CA         17.5910   -7.7465   20.1345 C.3       2 GLC5        0.0000 
     39 CA         16.9740   -6.8720   18.7460 C.3       6 GLL5        0.0000 
     40 CA         18.2080   -8.6210   21.5230 C.3       4 GLP5        0.0000 
     41 CA         15.2935   -7.3210   19.8320 C.3       2 GLC5        0.0000 
     42 CA         13.6130   -7.7700   20.9180 C.3       4 GLP5        0.0000 
     43 CA         18.6635   -5.6535   18.3085 C.3       2 GLC5        0.0000 
     44 CA         20.3530   -4.4350   17.8710 C.3       4 GLP5        0.0000 
     45 CA         17.1985   -5.1935   19.3650 C.3       2 GLC5        0.0000 
     46 CA         17.4230   -3.5150   19.9840 C.3       4 GLP5        0.0000 
     47 CA         14.3060   -3.3225   11.7025 C.3       2 GLC5        0.0000 
     48 CA         16.0300   -4.5960   11.0320 C.3       6 GLL5        0.0000 
     49 CA         12.5820   -2.0490   12.3730 C.3       4 GLP5        0.0000 
     50 CA         15.9985   -5.7495    9.2360 C.3       2 GLC5        0.0000 
     51 CA         15.9670   -6.9030    7.4400 C.3       4 GLP5        0.0000 
     52 N          14.5390   -5.4770   20.3850 N.am      1 SEC2        0.0000 
     53 N          15.1140   -5.4780   19.1420 N.am      5 SEL2        0.0000 
     54 N          13.9640   -5.4760   21.6280 N.am      3 SEP2        0.0000 
     55 N          13.9385   -5.0205   18.6890 N.am      1 SEC2        0.0000 
     56 N          12.7630   -4.5630   18.2360 N.am      3 SEP2        0.0000 
     57 N          15.0980   -4.9045   15.9690 N.am      1 SEC2        0.0000 
     58 N          15.6790   -5.8740   16.9990 N.am      5 SEL2        0.0000 
     59 N          14.5170   -3.9350   14.9390 N.am      3 SEP2        0.0000 
     60 CA         13.1705   -9.7163   18.1314 C.3       2 GLC5        0.0000 
     61 CA         11.4960   -8.8800   17.9940 C.3       4 GLP5        0.0000 
     62 CA         16.5145   -9.3085   13.2838 C.3       2 GLC5        0.0000 
     63 CA         14.8830   -9.6890   12.0850 C.3       4 GLP5        0.0000 
     64 CA         18.8997   -6.4533   11.8788 C.3       2 GLC5        0.0000 
     65 CA         19.8600   -6.8710   10.1150 C.3       4 GLP5        0.0000 
     66 CA         20.4590   -4.1335   12.2662 C.3       2 GLC5        0.0000 
     67 CA         18.0290   -4.7580   12.2560 C.3       6 GLL5        0.0000 
     68 CA         22.2570   -3.7220   12.1490 C.3       4 GLP5        0.0000 
     69 CA         16.9542   -7.2403   11.1902 C.3       2 GLC5        0.0000 
     70 CA         16.2160   -6.1840   12.8220 C.3       6 GLL5        0.0000 
     71 CA         18.9243   -5.6143   10.9624 C.3       2 GLC5        0.0000 
     72 CA         17.3160   -4.1700   11.2360 C.3       6 GLL5        0.0000 
@<TRIPOS>BOND
@<TRIPOS>SUBSTRUCTURE
     1 SEC2       52 GROUP        1 X    SEC  0     ROOT SEC X 2
     2 GLC5        1 GROUP        1 X    GLC  0     **** GLC X 6
     3 SEP2       54 GROUP        1 Y    SEP  0     ROOT SEP Y 9
     4 GLP5        3 GROUP        1 Y    GLP  0     **** GLP Y 13
     5 SEL2       53 GROUP        1 Z    SEL  0     ROOT SEL Z 16
     6 GLL5        2 GROUP        1 Z    GLL  0     **** GLL Z 20
@<TRIPOS>SET

