#    Name: 2qxw_LDT_1_ligand
#    Modification time : Mon Mar 24 22:57:21 2014

@<TRIPOS>MOLECULE
2qxw_LDT_1_ligand
   35    36     1     0     0
SMALL
NO_CHARGES


@<TRIPOS>ATOM
      1 C2         15.7840   -9.4260   18.2040 C.ar      1 LDT320      0.0000 
      2 C3         16.0910  -10.3270   15.5920 C.ar      1 LDT320      0.0000 
      3 C4         16.6620   -8.7560   17.3370 C.ar      1 LDT320      0.0000 
      4 C5         15.0860  -10.5120   17.7070 C.ar      1 LDT320      0.0000 
      5 C6         15.2120  -10.9940   16.4340 C.ar      1 LDT320      0.0000 
      6 C7         16.8050   -9.2010   15.9990 C.ar      1 LDT320      0.0000 
      7 BR8        14.9540   -3.7270    9.7440 Br        1 LDT320      0.0000 
      8 F9         14.2550  -11.1360   18.5820 F         1 LDT320      0.0000 
      9 C11        17.6790   -8.4930   15.0260 C.2       1 LDT320      0.0000 
     10 C13        18.3590   -6.3150   14.2060 C.3       1 LDT320      0.0000 
     11 F14        19.2930   -4.3320   12.5110 F         1 LDT320      0.0000 
     12 O15        17.4730   -7.7430   17.7580 O.3       1 LDT320      0.0000 
     13 S16        18.6130   -9.3630   13.9390 S.2       1 LDT320      0.0000 
     14 N17        17.6150   -7.1730   15.0860 N.am      1 LDT320      0.0000 
     15 C20        16.9740   -6.8720   18.7460 C.3       1 LDT320      0.0000 
     16 C24        17.5200   -5.7560   13.0790 C.ar      1 LDT320      0.0000 
     17 C25        16.0300   -4.5960   11.0320 C.ar      1 LDT320      0.0000 
     18 C26        16.2160   -6.1840   12.8220 C.ar      1 LDT320      0.0000 
     19 C27        18.0290   -4.7580   12.2560 C.ar      1 LDT320      0.0000 
     20 C28        17.3160   -4.1700   11.2360 C.ar      1 LDT320      0.0000 
     21 C29        15.4450   -5.6070   11.8010 C.ar      1 LDT320      0.0000 
     22 C32        15.8120   -5.9940   18.2370 C.2       1 LDT320      0.0000 
     23 O33        15.1140   -5.4780   19.1420 O.co2     1 LDT320      0.0000 
     24 O34        15.6790   -5.8740   16.9990 O.co2     1 LDT320      0.0000 
     25 H          15.6720   -9.1163   19.1617 H         1 LDT320      0.0000 
     26 H          16.2241  -10.6796   14.6175 H         1 LDT320      0.0000 
     27 H          14.6924  -11.7999   16.1105 H         1 LDT320      0.0000 
     28 H          19.2174   -6.8567   13.7565 H         1 LDT320      0.0000 
     29 H          18.7966   -5.4600   14.7625 H         1 LDT320      0.0000 
     30 H          17.0060   -6.6841   15.7929 H         1 LDT320      0.0000 
     31 H          17.7548   -6.1805   19.1260 H         1 LDT320      0.0000 
     32 H          16.5954   -7.4206   19.6337 H         1 LDT320      0.0000 
     33 H          15.8065   -6.9426   13.3948 H         1 LDT320      0.0000 
     34 H          17.7321   -3.4448   10.6557 H         1 LDT320      0.0000 
     35 H          14.4984   -5.9137   11.6291 H         1 LDT320      0.0000 
@<TRIPOS>BOND
     1    3    1 ar   
     2    4    1 ar   
     3   25    1 1    
     4    5    2 ar   
     5    6    2 ar   
     6   26    2 1    
     7    6    3 ar   
     8   12    3 1    
     9    5    4 ar   
    10    8    4 1    
    11   27    5 1    
    12    9    6 1    
    13   17    7 1    
    14   13    9 2    
    15   14    9 am   
    16   14   10 1    
    17   16   10 1    
    18   28   10 1    
    19   29   10 1    
    20   19   11 1    
    21   15   12 1    
    22   30   14 1    
    23   22   15 1    
    24   31   15 1    
    25   32   15 1    
    26   18   16 ar   
    27   19   16 ar   
    28   20   17 ar   
    29   21   17 ar   
    30   21   18 ar   
    31   33   18 1    
    32   20   19 ar   
    33   34   20 1    
    34   35   21 1    
    35   23   22 ar   
    36   24   22 ar   
@<TRIPOS>SUBSTRUCTURE
     1 LDT320      1 GROUP   
@<TRIPOS>SET

