#    Name: 2ew6_Y13_1_INTS_M
#    Modification time : Tue Mar 25 12:07:12 2014

@<TRIPOS>MOLECULE
2ew6_Y13_1_INTS_M
   61     0     9     0     0
SMALL
NO_CHARGES


@<TRIPOS>ATOM
      1 CA        -52.4045  -91.2775  102.0665 C.3       3 GLC5        0.0000 
      2 CA        -53.5650  -92.9760  101.8340 C.3       9 GLL5        0.0000 
      3 CA        -51.2440  -89.5790  102.2990 C.3       6 GLP5        0.0000 
      4 CA        -55.7990  -89.8975  102.7990 C.3       3 GLC5        0.0000 
      5 CA        -55.2320  -91.2440  101.2920 C.3       9 GLL5        0.0000 
      6 CA        -56.3660  -88.5510  104.3060 C.3       6 GLP5        0.0000 
      7 CA        -58.1115  -89.4310   97.6875 C.3       3 GLC5        0.0000 
      8 CA        -58.3820  -91.2670   97.2450 C.3       9 GLL5        0.0000 
      9 CA        -57.8410  -87.5950   98.1300 C.3       6 GLP5        0.0000 
     10 CA        -60.3730  -90.6710   96.9315 C.3       3 GLC5        0.0000 
     11 CA        -62.3640  -90.0750   96.6180 C.3       6 GLP5        0.0000 
     12 O         -56.3855  -89.7680   91.1090 O.2       1 ALC1        0.0000 
     13 O         -57.8990  -89.4420   90.7530 O.2       7 ALL1        0.0000 
     14 O         -54.8720  -90.0940   91.4650 O.2       4 ALP1        0.0000 
     15 N         -56.4665  -87.2230   92.0945 N.am      2 SEC2        0.0000 
     16 N         -56.6500  -88.2720   92.9900 N.am      8 SEL2        0.0000 
     17 N         -56.2830  -86.1740   91.1990 N.am      5 SEP2        0.0000 
     18 O         -56.1030  -87.6935   94.0490 O.2       1 ALC1        0.0000 
     19 O         -56.6500  -88.2720   92.9900 O.2       7 ALL1        0.0000 
     20 O         -55.5560  -87.1150   95.1080 O.2       4 ALP1        0.0000 
     21 CA        -57.7935  -88.7390   96.3105 C.3       3 GLC5        0.0000 
     22 CA        -57.7460  -89.8830   94.4910 C.3       9 GLL5        0.0000 
     23 CA        -59.4825  -88.8175   95.4240 C.3       3 GLC5        0.0000 
     24 CA        -61.2190  -87.7520   96.3570 C.3       6 GLP5        0.0000 
     25 N         -60.1110  -94.0145   98.7040 N.am      2 SEC2        0.0000 
     26 N         -59.6000  -92.7830   98.5750 N.am      8 SEL2        0.0000 
     27 N         -60.6220  -95.2460   98.8330 N.am      5 SEP2        0.0000 
     28 N         -60.3235  -93.5090   99.8975 N.am      2 SEC2        0.0000 
     29 N         -61.0470  -94.2350  101.2200 N.am      5 SEP2        0.0000 
     30 CA        -53.4132  -95.0555  102.4582 C.3       3 GLC5        0.0000 
     31 CA        -54.5760  -93.7280  102.4930 C.3       9 GLL5        0.0000 
     32 CA        -52.7560  -96.7590  102.7530 C.3       6 GLP5        0.0000 
     33 CA        -53.1643  -90.1813  101.1605 C.3       3 GLC5        0.0000 
     34 CA        -53.8990  -91.7290  101.2340 C.3       9 GLL5        0.0000 
     35 CA        -51.7630  -88.8760  101.0580 C.3       6 GLP5        0.0000 
     36 CA        -57.2780  -90.1230  102.8505 C.3       3 GLC5        0.0000 
     37 CA        -56.2470  -91.9960  101.9500 C.3       9 GLL5        0.0000 
     38 CA        -57.5900  -88.5150  103.7240 C.3       6 GLP5        0.0000 
     39 CA        -58.0778  -93.6722  100.8670 C.3       3 GLC5        0.0000 
     40 CA        -57.6850  -91.4660  102.0040 C.3       9 GLL5        0.0000 
     41 CA        -58.0550  -95.5640  100.3000 C.3       6 GLP5        0.0000 
     42 CA        -59.7912  -92.6453  101.9185 C.3       3 GLC5        0.0000 
     43 CA        -58.5160  -92.0950  100.8640 C.3       9 GLL5        0.0000 
     44 CA        -61.4820  -93.5100  102.4030 C.3       6 GLP5        0.0000 
     45 CA        -60.1502  -92.8860   96.7387 C.3       3 GLC5        0.0000 
     46 CA        -61.6420  -94.3320   96.8270 C.3       6 GLP5        0.0000 
     47 CA        -60.4813  -90.8600   95.2615 C.3       3 GLC5        0.0000 
     48 CA        -58.9350  -91.6130   96.0560 C.3       9 GLL5        0.0000 
     49 CA        -62.1840  -90.4120   95.1510 C.3       6 GLP5        0.0000 
     50 CA        -60.6575  -90.8710   94.0203 C.3       3 GLC5        0.0000 
     51 CA        -59.2490  -91.5870   93.5430 C.3       9 GLL5        0.0000 
     52 CA        -58.0553  -87.6095   92.5148 C.3       3 GLC5        0.0000 
     53 CA        -58.1410  -89.9590   92.0430 C.3       9 GLL5        0.0000 
     54 CA        -58.2880  -85.5590   92.4180 C.3       6 GLP5        0.0000 
     55 CA        -56.0435  -94.0813  104.1352 C.3       3 GLC5        0.0000 
     56 CA        -55.9120  -93.2430  102.5520 C.3       9 GLL5        0.0000 
     57 CA        -56.8430  -94.6770  105.7480 C.3       6 GLP5        0.0000 
     58 CA        -55.9599  -94.5819  101.3615 C.3       3 GLC5        0.0000 
     59 CA        -56.5920  -95.9900  100.3510 C.3       6 GLP5        0.0000 
     60 CA        -53.0510  -92.7126  103.6072 C.3       3 GLC5        0.0000 
     61 CA        -51.9480  -92.3850  105.2010 C.3       6 GLP5        0.0000 
@<TRIPOS>BOND
@<TRIPOS>SUBSTRUCTURE
     1 ALC1       12 GROUP        1 X    ALC  0     ROOT ALC X 1
     2 SEC2       15 GROUP        1 X    SEC  0     **** SEC X 2
     3 GLC5        1 GROUP        1 X    GLC  0     **** GLC X 6
     4 ALP1       14 GROUP        1 Y    ALP  0     ROOT ALP Y 8
     5 SEP2       17 GROUP        1 Y    SEP  0     **** SEP Y 9
     6 GLP5        3 GROUP        1 Y    GLP  0     **** GLP Y 13
     7 ALL1       13 GROUP        1 Z    ALL  0     ROOT ALL Z 15
     8 SEL2       16 GROUP        1 Z    SEL  0     **** SEL Z 16
     9 GLL5        2 GROUP        1 Z    GLL  0     **** GLL Z 20
@<TRIPOS>SET

