#    Name: 2ew6_Y13_1_ligand
#    Modification time : Tue Mar 25 12:07:13 2014

@<TRIPOS>MOLECULE
2ew6_Y13_1_ligand
   39    40     1     0     0
SMALL
NO_CHARGES


@<TRIPOS>ATOM
      1 C2        -53.5650  -92.9760  101.8340 C.ar      1 Y13200      0.0000 
      2 O16       -52.2630  -93.4760  101.7900 O.3       1 Y13200      0.0000 
      3 C1        -53.8990  -91.7290  101.2340 C.ar      1 Y13200      0.0000 
      4 C6        -55.2320  -91.2440  101.2920 C.ar      1 Y13200      0.0000 
      5 C5        -56.2470  -91.9960  101.9500 C.ar      1 Y13200      0.0000 
      6 C7        -57.6850  -91.4660  102.0040 C.3       1 Y13200      0.0000 
      7 C8        -58.5160  -92.0950  100.8640 C.3       1 Y13200      0.0000 
      8 N9        -58.1290  -91.4580   99.6030 N.am      1 Y13200      0.0000 
      9 C10       -58.7450  -91.8940   98.5500 C.2       1 Y13200      0.0000 
     10 C11       -58.3820  -91.2670   97.2450 C.2       1 Y13200      0.0000 
     11 C12       -58.9350  -91.6130   96.0560 C.2       1 Y13200      0.0000 
     12 C13       -58.6220  -91.0030   94.6880 C.ar      1 Y13200      0.0000 
     13 C14       -59.2490  -91.5870   93.5430 C.ar      1 Y13200      0.0000 
     14 C15       -59.0130  -91.0730   92.2360 C.ar      1 Y13200      0.0000 
     15 C16       -58.1410  -89.9590   92.0430 C.ar      1 Y13200      0.0000 
     16 O19       -57.8990  -89.4420   90.7530 O.3       1 Y13200      0.0000 
     17 C17       -57.5040  -89.3610   93.1800 C.ar      1 Y13200      0.0000 
     18 O23       -56.6500  -88.2720   92.9900 O.3       1 Y13200      0.0000 
     19 C18       -57.7460  -89.8830   94.4910 C.ar      1 Y13200      0.0000 
     20 O27       -59.6000  -92.7830   98.5750 O.2       1 Y13200      0.0000 
     21 C4        -55.9120  -93.2430  102.5520 C.ar      1 Y13200      0.0000 
     22 C3        -54.5760  -93.7280  102.4930 C.ar      1 Y13200      0.0000 
     23 H         -53.1784  -91.1845  100.7622 H         1 Y13200      0.0000 
     24 H         -55.4670  -90.3492  100.8592 H         1 Y13200      0.0000 
     25 H         -57.6783  -90.3910  101.8843 H         1 Y13200      0.0000 
     26 H         -58.1315  -91.7296  102.9533 H         1 Y13200      0.0000 
     27 H         -59.5654  -91.9305  101.0825 H         1 Y13200      0.0000 
     28 H         -58.3111  -93.1597  100.8464 H         1 Y13200      0.0000 
     29 H         -57.4277  -90.7424   99.6409 H         1 Y13200      0.0000 
     30 H         -57.6500  -90.5195   97.3092 H         1 Y13200      0.0000 
     31 H         -59.6686  -92.3808   96.0000 H         1 Y13200      0.0000 
     32 H         -59.8760  -92.3859   93.6674 H         1 Y13200      0.0000 
     33 H         -59.4692  -91.5024   91.4314 H         1 Y13200      0.0000 
     34 H         -57.2905  -89.4543   95.2971 H         1 Y13200      0.0000 
     35 H         -56.6307  -93.7873  103.0250 H         1 Y13200      0.0000 
     36 H         -54.3418  -94.6220  102.9268 H         1 Y13200      0.0000 
     37 H         -51.7724  -92.8656  101.1681 H         1 Y13200      0.0000 
     38 H         -56.9109  -89.5239   90.6227 H         1 Y13200      0.0000 
     39 H         -55.9858  -88.3311   93.7352 H         1 Y13200      0.0000 
@<TRIPOS>BOND
     1    2    1 1    
     2    3    1 ar   
     3   22    1 ar   
     4   37    2 1    
     5    4    3 ar   
     6   23    3 1    
     7    5    4 ar   
     8   24    4 1    
     9    6    5 1    
    10   21    5 ar   
    11    7    6 1    
    12   25    6 1    
    13   26    6 1    
    14    8    7 1    
    15   27    7 1    
    16   28    7 1    
    17    9    8 am   
    18   29    8 1    
    19   10    9 1    
    20   20    9 2    
    21   11   10 2    
    22   30   10 1    
    23   12   11 1    
    24   31   11 1    
    25   13   12 ar   
    26   19   12 ar   
    27   14   13 ar   
    28   32   13 1    
    29   15   14 ar   
    30   33   14 1    
    31   16   15 1    
    32   17   15 ar   
    33   38   16 1    
    34   18   17 1    
    35   19   17 ar   
    36   39   18 1    
    37   34   19 1    
    38   22   21 ar   
    39   35   21 1    
    40   36   22 1    
@<TRIPOS>SUBSTRUCTURE
     1 Y13200      1 GROUP   
@<TRIPOS>SET

