#    Name: 2w02_ATP_2_INTS_M
#    Modification time : Tue Mar 25 03:24:53 2014

@<TRIPOS>MOLECULE
2w02_ATP_2_INTS_M
   83     0    15     0     0
SMALL
NO_CHARGES


@<TRIPOS>ATOM
      1 NZ        -25.4785  -17.1075   -2.7445 N.4       3 LYC4        0.0000 
      2 NZ        -24.0710  -16.7270   -3.1540 N.4      13 LYL4        0.0000 
      3 NZ        -27.2070  -17.8300   -1.0910 N.4       8 LYP4        0.0000 
      4 N         -23.2050  -16.4245   -4.2775 N.am      2 SEC2        0.0000 
      5 N         -24.0710  -16.7270   -3.1540 N.am     12 SEL2        0.0000 
      6 N         -22.3390  -16.1220   -5.4010 N.am      7 SEP2        0.0000 
      7 N         -23.7630  -17.9350   -3.7200 N.am      2 SEC2        0.0000 
      8 N         -23.4550  -19.1430   -4.2860 N.am      7 SEP2        0.0000 
      9 N         -25.4785  -17.1075   -2.7445 N.am      2 SEC2        0.0000 
     10 N         -26.8860  -17.4880   -2.3350 N.am      7 SEP2        0.0000 
     11 NZ        -23.0485  -18.1345    0.0865 N.4       3 LYC4        0.0000 
     12 NZ        -23.7690  -17.2080   -0.7140 N.4      13 LYL4        0.0000 
     13 NZ        -22.3280  -19.0610    0.8870 N.4       8 LYP4        0.0000 
     14 NZ        -25.0185  -17.5590   -0.4415 N.4       3 LYC4        0.0000 
     15 N         -23.0485  -18.1345    0.0865 N.am      2 SEC2        0.0000 
     16 N         -23.7690  -17.2080   -0.7140 N.am     12 SEL2        0.0000 
     17 N         -22.3280  -19.0610    0.8870 N.am      7 SEP2        0.0000 
     18 N         -25.0185  -17.5590   -0.4415 N.am      2 SEC2        0.0000 
     19 N         -26.2680  -17.9100   -0.1690 N.am      7 SEP2        0.0000 
     20 Zn        -23.4015  -14.1025   -0.8885 Zn        4 ZIC7        0.0000 
     21 Zn        -23.8250  -14.8390   -1.4550 Zn       14 ZIL7        0.0000 
     22 Zn        -22.9780  -13.3660   -0.3220 Zn        9 ZIP7        0.0000 
     23 N         -23.8285  -13.7585   -2.6135 N.am      2 SEC2        0.0000 
     24 N         -23.8250  -14.8390   -1.4550 N.am     12 SEL2        0.0000 
     25 N         -23.8320  -12.6780   -3.7720 N.am      7 SEP2        0.0000 
     26 NZ        -21.6605  -17.8145    0.5605 N.4       3 LYC4        0.0000 
     27 NZ        -20.9930  -16.5680    0.2340 N.4      13 LYL4        0.0000 
     28 N         -21.6605  -17.8145    0.5605 N.am      2 SEC2        0.0000 
     29 N         -20.9930  -16.5680    0.2340 N.am     12 SEL2        0.0000 
     30 NZ        -19.3165  -17.6730   -2.1260 N.4       3 LYC4        0.0000 
     31 NZ        -19.3740  -16.3510   -1.7330 N.4      13 LYL4        0.0000 
     32 NZ        -18.7520  -19.7180   -1.5330 N.4       8 LYP4        0.0000 
     33 N         -19.3165  -17.6730   -2.1260 N.am      2 SEC2        0.0000 
     34 N         -19.3740  -16.3510   -1.7330 N.am     12 SEL2        0.0000 
     35 N         -19.2590  -18.9950   -2.5190 N.am      7 SEP2        0.0000 
     36 N         -18.8990  -17.7450   -1.0595 N.am      2 SEC2        0.0000 
     37 N         -18.4240  -19.1390   -0.3860 N.am      7 SEP2        0.0000 
     38 N         -22.1155  -16.2150   -3.7880 N.am      2 SEC2        0.0000 
     39 N         -21.8920  -16.3080   -2.1750 N.am     12 SEL2        0.0000 
     40 Zn        -21.9730  -12.9775    0.2595 Zn        4 ZIC7        0.0000 
     41 Zn        -20.9680  -12.5890    0.8410 Zn       14 ZIL7        0.0000 
     42 N         -21.1880  -11.1950    1.2070 N.am      2 SEC2        0.0000 
     43 N         -20.9680  -12.5890    0.8410 N.am     12 SEL2        0.0000 
     44 N         -21.4080   -9.8010    1.5730 N.am      7 SEP2        0.0000 
     45 Zn        -21.8755  -13.8680   -0.6550 Zn        4 ZIC7        0.0000 
     46 Zn        -20.7730  -14.3700   -0.9880 Zn       14 ZIL7        0.0000 
     47 CA        -20.0145  -13.0925   -4.6060 C.3       5 GLC5        0.0000 
     48 CA        -19.3140  -11.6560   -3.0340 C.3      15 GLL5        0.0000 
     49 CA        -20.7150  -14.5290   -6.1780 C.3      10 GLP5        0.0000 
     50 CA        -15.6260   -9.6315   -4.4130 C.3       5 GLC5        0.0000 
     51 CA        -17.6270  -10.0960   -3.7500 C.3      15 GLL5        0.0000 
     52 CA        -13.6250   -9.1670   -5.0760 C.3      10 GLP5        0.0000 
     53 O         -15.4025  -10.0495   -3.8265 O.2       1 ALC1        0.0000 
     54 O         -16.5450   -9.9150   -4.6680 O.2      11 ALL1        0.0000 
     55 O         -14.2600  -10.1840   -2.9850 O.2       6 ALP1        0.0000 
     56 CA        -21.0445  -10.0405   -4.0845 C.3       5 GLC5        0.0000 
     57 CA        -18.9550   -9.7280   -4.3740 C.3      15 GLL5        0.0000 
     58 CA        -23.1340  -10.3530   -3.7950 C.3      10 GLP5        0.0000 
     59 CA        -18.3205   -5.8375   -3.9395 C.3       5 GLC5        0.0000 
     60 CA        -20.0320   -6.3430   -3.3270 C.3      15 GLL5        0.0000 
     61 CA        -16.6090   -5.3320   -4.5520 C.3      10 GLP5        0.0000 
     62 CA        -18.4255   -5.1010   -2.6880 C.3       5 GLC5        0.0000 
     63 CA        -20.2600   -5.4140   -2.2060 C.3      15 GLL5        0.0000 
     64 CA        -16.5910   -4.7880   -3.1700 C.3      10 GLP5        0.0000 
     65 CA        -22.2550   -4.7405   -2.1845 C.3       5 GLC5        0.0000 
     66 CA        -24.2500   -4.0670   -2.1630 C.3      10 GLP5        0.0000 
     67 O         -21.2175   -3.7815   -0.8160 O.2       1 ALC1        0.0000 
     68 O         -20.7230   -4.1630   -2.4240 O.2      11 ALL1        0.0000 
     69 O         -21.7120   -3.4000    0.7920 O.2       6 ALP1        0.0000 
     70 N         -19.7910   -4.8590    0.2210 N.am      2 SEC2        0.0000 
     71 N         -19.9830   -5.8580   -0.9550 N.am     12 SEL2        0.0000 
     72 N         -19.5990   -3.8600    1.3970 N.am      7 SEP2        0.0000 
     73 CA        -17.9555   -6.2470   -1.3475 C.3       5 GLC5        0.0000 
     74 CA        -19.5200   -7.1040   -0.7230 C.3      15 GLL5        0.0000 
     75 CA        -16.3910   -5.3900   -1.9720 C.3      10 GLP5        0.0000 
     76 CA        -20.8025   -7.4100    0.4625 C.3       5 GLC5        0.0000 
     77 CA        -22.0850   -7.7160    1.6480 C.3      10 GLP5        0.0000 
     78 CA        -17.9590   -6.5400   -2.4885 C.3       5 GLC5        0.0000 
     79 CA        -19.5270   -7.6900   -3.0050 C.3      15 GLL5        0.0000 
     80 CA        -21.3055  -10.9733   -3.0435 C.3       5 GLC5        0.0000 
     81 CA        -19.6400  -11.5310   -1.5500 C.3      15 GLL5        0.0000 
     82 CA        -21.4642   -8.0708   -3.0175 C.3       5 GLC5        0.0000 
     83 CA        -23.1490   -9.1250   -2.8690 C.3      10 GLP5        0.0000 
@<TRIPOS>BOND
@<TRIPOS>SUBSTRUCTURE
     1 ALC1       53 GROUP        1 X    ALC  0     ROOT ALC X 1
     2 SEC2        4 GROUP        1 X    SEC  0     **** SEC X 2
     3 LYC4        1 GROUP        1 X    LYC  0     **** LYC X 4
     4 ZIC7       20 GROUP        1 X    ZIC  0     **** ZIC X 5
     5 GLC5       47 GROUP        1 X    GLC  0     **** GLC X 6
     6 ALP1       55 GROUP        1 Y    ALP  0     ROOT ALP Y 8
     7 SEP2        6 GROUP        1 Y    SEP  0     **** SEP Y 9
     8 LYP4        3 GROUP        1 Y    LYP  0     **** LYP Y 11
     9 ZIP7       22 GROUP        1 Y    ZIP  0     **** ZIP Y 12
    10 GLP5       49 GROUP        1 Y    GLP  0     **** GLP Y 13
    11 ALL1       54 GROUP        1 Z    ALL  0     ROOT ALL Z 15
    12 SEL2        5 GROUP        1 Z    SEL  0     **** SEL Z 16
    13 LYL4        2 GROUP        1 Z    LYL  0     **** LYL Z 18
    14 ZIL7       21 GROUP        1 Z    ZIL  0     **** ZIL Z 19
    15 GLL5       48 GROUP        1 Z    GLL  0     **** GLL Z 20
@<TRIPOS>SET

