#    Name: 2w02_ATP_2_ligand
#    Modification time : Tue Mar 25 03:24:53 2014

@<TRIPOS>MOLECULE
2w02_ATP_2_ligand
   43    45     1     0     0
SMALL
NO_CHARGES


@<TRIPOS>ATOM
      1 PG        -23.4830  -16.2560   -1.8450 P.3       1 ATP1588     0.0000 
      2 O1G       -24.0710  -16.7270   -3.1540 O.co2     1 ATP1588     0.0000 
      3 O2G       -23.7690  -17.2080   -0.7140 O.co2     1 ATP1588     0.0000 
      4 O3G       -23.8250  -14.8390   -1.4550 O.co2     1 ATP1588     0.0000 
      5 PB        -20.6920  -15.9750   -1.1390 P.3       1 ATP1588     0.0000 
      6 O1B       -20.9930  -16.5680    0.2340 O.co2     1 ATP1588     0.0000 
      7 O2B       -19.3740  -16.3510   -1.7330 O.co2     1 ATP1588     0.0000 
      8 O3B       -21.8920  -16.3080   -2.1750 O.3       1 ATP1588     0.0000 
      9 PA        -19.9990  -13.5130    0.1470 P.3       1 ATP1588     0.0000 
     10 O1A       -20.9680  -12.5890    0.8410 O.co2     1 ATP1588     0.0000 
     11 O2A       -19.0800  -14.4230    0.9250 O.co2     1 ATP1588     0.0000 
     12 O3A       -20.7730  -14.3700   -0.9880 O.3       1 ATP1588     0.0000 
     13 O5'       -19.0620  -12.5790   -0.7600 O.3       1 ATP1588     0.0000 
     14 C5'       -19.6400  -11.5310   -1.5500 C.3       1 ATP1588     0.0000 
     15 C4'       -19.3140  -11.6560   -3.0340 C.3       1 ATP1588     0.0000 
     16 O4'       -19.9120  -10.5450   -3.6950 O.3       1 ATP1588     0.0000 
     17 C3'       -17.8380  -11.5440   -3.3410 C.3       1 ATP1588     0.0000 
     18 O3'       -17.6040  -12.4350   -4.4270 O.3       1 ATP1588     0.0000 
     19 C2'       -17.6270  -10.0960   -3.7500 C.3       1 ATP1588     0.0000 
     20 O2'       -16.5450   -9.9150   -4.6680 O.3       1 ATP1588     0.0000 
     21 C1'       -18.9550   -9.7280   -4.3740 C.3       1 ATP1588     0.0000 
     22 N9        -19.3960   -8.3300   -4.1730 N.pl3     1 ATP1588     0.0000 
     23 C8        -19.8000   -7.5030   -5.1580 C.2       1 ATP1588     0.0000 
     24 N7        -20.1800   -6.2930   -4.6580 N.2       1 ATP1588     0.0000 
     25 C5        -20.0320   -6.3430   -3.3270 C.ar      1 ATP1588     0.0000 
     26 C6        -20.2600   -5.4140   -2.2060 C.ar      1 ATP1588     0.0000 
     27 N6        -20.7230   -4.1630   -2.4240 N.pl3     1 ATP1588     0.0000 
     28 N1        -19.9830   -5.8580   -0.9550 N.ar      1 ATP1588     0.0000 
     29 C2        -19.5200   -7.1040   -0.7230 C.ar      1 ATP1588     0.0000 
     30 N3        -19.2900   -8.0060   -1.6990 N.ar      1 ATP1588     0.0000 
     31 C4        -19.5270   -7.6900   -3.0050 C.ar      1 ATP1588     0.0000 
     32 H         -19.2886  -10.5344   -1.2126 H         1 ATP1588     0.0000 
     33 H         -20.7446  -11.5162   -1.4497 H         1 ATP1588     0.0000 
     34 H         -19.6917  -12.5710   -3.4134 H         1 ATP1588     0.0000 
     35 H         -17.2918  -11.7651   -2.4825 H         1 ATP1588     0.0000 
     36 H         -17.5220   -9.5155   -2.8519 H         1 ATP1588     0.0000 
     37 H         -18.9429   -9.9798   -5.4115 H         1 ATP1588     0.0000 
     38 H         -19.8209   -7.7335   -6.1109 H         1 ATP1588     0.0000 
     39 H         -20.8737   -3.6016   -1.6103 H         1 ATP1588     0.0000 
     40 H         -20.8737   -3.9099   -3.3796 H         1 ATP1588     0.0000 
     41 H         -19.3258   -7.3904    0.2852 H         1 ATP1588     0.0000 
     42 H         -16.9609  -11.9536   -5.0226 H         1 ATP1588     0.0000 
     43 H         -15.7191   -9.9562   -4.1057 H         1 ATP1588     0.0000 
@<TRIPOS>BOND
     1    2    1 ar   
     2    3    1 ar   
     3    4    1 ar   
     4    8    1 1    
     5    6    5 ar   
     6    7    5 ar   
     7    8    5 1    
     8   12    5 1    
     9   10    9 ar   
    10   11    9 ar   
    11   12    9 1    
    12   13    9 1    
    13   14   13 1    
    14   15   14 1    
    15   32   14 1    
    16   33   14 1    
    17   16   15 1    
    18   17   15 1    
    19   34   15 1    
    20   21   16 1    
    21   18   17 1    
    22   19   17 1    
    23   35   17 1    
    24   42   18 1    
    25   20   19 1    
    26   21   19 1    
    27   36   19 1    
    28   43   20 1    
    29   22   21 1    
    30   37   21 1    
    31   23   22 1    
    32   31   22 1    
    33   24   23 2    
    34   38   23 1    
    35   25   24 1    
    36   26   25 ar   
    37   31   25 ar   
    38   27   26 1    
    39   28   26 ar   
    40   39   27 1    
    41   40   27 1    
    42   29   28 ar   
    43   30   29 ar   
    44   41   29 1    
    45   31   30 ar   
@<TRIPOS>SUBSTRUCTURE
     1 ATP1588     1 GROUP   
@<TRIPOS>SET

