#    Name: 2z3u_CRR_1_INTS_M
#    Modification time : Tue Mar 25 09:56:19 2014

@<TRIPOS>MOLECULE
2z3u_CRR_1_INTS_M
   56     0     9     0     0
SMALL
NO_CHARGES


@<TRIPOS>ATOM
      1 CA         -8.5920   -5.4585  -29.3890 C.3       3 GLC5        0.0000 
      2 CA         -7.3770   -3.8530  -28.9240 C.3       9 GLL5        0.0000 
      3 CA         -9.8070   -7.0640  -29.8540 C.3       6 GLP5        0.0000 
      4 CA         -6.9130   -6.3605  -29.1990 C.3       3 GLC5        0.0000 
      5 CA         -6.1950   -4.4510  -28.4990 C.3       9 GLL5        0.0000 
      6 CA         -7.6310   -8.2700  -29.8990 C.3       6 GLP5        0.0000 
      7 CA         -4.6580   -4.6500  -29.8550 C.3       3 GLC5        0.0000 
      8 CA         -3.1210   -4.8490  -31.2110 C.3       6 GLP5        0.0000 
      9 CA         -5.1575   -1.7980  -27.0680 C.3       3 GLC5        0.0000 
     10 CA         -6.3290   -3.2480  -26.4200 C.3       9 GLL5        0.0000 
     11 CA         -3.9860   -0.3480  -27.7160 C.3       6 GLP5        0.0000 
     12 O          -4.6360   -2.9925  -24.7905 O.2       1 ALC1        0.0000 
     13 O          -6.0740   -2.8030  -25.1910 O.2       7 ALL1        0.0000 
     14 O          -3.1980   -3.1820  -24.3900 O.2       4 ALP1        0.0000 
     15 N          -6.3380    0.0225  -27.5100 N.am      2 SEC2        0.0000 
     16 N          -7.5670   -0.0300  -28.0550 N.am      8 SEL2        0.0000 
     17 N          -5.1090    0.0750  -26.9650 N.am      5 SEP2        0.0000 
     18 N          -6.6850    0.3385  -29.1500 N.am      2 SEC2        0.0000 
     19 N          -5.8030    0.7070  -30.2450 N.am      5 SEP2        0.0000 
     20 N          -8.6625    1.9770  -29.3400 N.am      2 SEC2        0.0000 
     21 N          -9.2370    1.3430  -28.5110 N.am      8 SEL2        0.0000 
     22 N          -8.0880    2.6110  -30.1690 N.am      5 SEP2        0.0000 
     23 N         -14.3455    0.1265  -25.4775 N.am      2 SEC2        0.0000 
     24 N         -13.1570    0.8560  -24.9850 N.am      8 SEL2        0.0000 
     25 N         -15.5340   -0.6030  -25.9700 N.am      5 SEP2        0.0000 
     26 N         -13.7365    2.1435  -25.7540 N.am      2 SEC2        0.0000 
     27 N         -14.3160    3.4310  -26.5230 N.am      5 SEP2        0.0000 
     28 CA        -10.2110    1.2695  -21.0400 C.3       3 GLC5        0.0000 
     29 CA        -10.5670   -0.6190  -21.8240 C.3       9 GLL5        0.0000 
     30 CA         -9.8550    3.1580  -20.2560 C.3       6 GLP5        0.0000 
     31 CA         -9.2045    0.6600  -22.9505 C.3       3 GLC5        0.0000 
     32 CA         -7.8420    1.9390  -24.0770 C.3       6 GLP5        0.0000 
     33 CA         -8.8840   -1.5855  -18.2930 C.3       3 GLC5        0.0000 
     34 CA        -10.5430   -1.7840  -19.7150 C.3       9 GLL5        0.0000 
     35 CA         -7.2250   -1.3870  -16.8710 C.3       6 GLP5        0.0000 
     36 CA         -9.7730   -4.6885  -19.5335 C.3       3 GLC5        0.0000 
     37 CA        -10.3360   -2.9910  -20.3730 C.3       9 GLL5        0.0000 
     38 CA         -9.2100   -6.3860  -18.6940 C.3       6 GLP5        0.0000 
     39 CA        -11.7660   -4.0750  -22.9495 C.3       3 GLC5        0.0000 
     40 CA        -10.2430   -3.0080  -21.7600 C.3       9 GLL5        0.0000 
     41 CA        -13.2890   -5.1420  -24.1390 C.3       6 GLP5        0.0000 
     42 CA         -6.1088   -1.8560  -28.2635 C.3       3 GLC5        0.0000 
     43 CA         -7.5120   -2.6540  -26.8450 C.3       9 GLL5        0.0000 
     44 CA         -4.4420   -0.9090  -29.0560 C.3       6 GLP5        0.0000 
     45 CA         -4.6835   -6.1027  -27.9010 C.3       3 GLC5        0.0000 
     46 CA         -3.4350   -7.9060  -27.9290 C.3       6 GLP5        0.0000 
     47 CA         -5.3347   -2.5295  -28.5176 C.3       3 GLC5        0.0000 
     48 CA         -5.6690   -4.1480  -27.2470 C.3       9 GLL5        0.0000 
     49 CA         -7.6627    0.0142  -24.6885 C.3       3 GLC5        0.0000 
     50 CA         -7.9300   -1.8560  -25.7900 C.3       9 GLL5        0.0000 
     51 CA        -11.6848   -3.9875  -23.9890 C.3       3 GLC5        0.0000 
     52 CA        -10.1830   -2.1760  -23.8140 C.3       9 GLL5        0.0000 
     53 CA         -9.6787    0.3657  -19.2122 C.3       3 GLC5        0.0000 
     54 CA         -8.7570    1.9240  -18.3490 C.3       6 GLP5        0.0000 
     55 CA         -8.9047    0.6165  -24.8526 C.3       3 GLC5        0.0000 
     56 CA        -10.1400   -1.2560  -24.8560 C.3       9 GLL5        0.0000 
@<TRIPOS>BOND
@<TRIPOS>SUBSTRUCTURE
     1 ALC1       12 GROUP        1 X    ALC  0     ROOT ALC X 1
     2 SEC2       15 GROUP        1 X    SEC  0     **** SEC X 2
     3 GLC5        1 GROUP        1 X    GLC  0     **** GLC X 6
     4 ALP1       14 GROUP        1 Y    ALP  0     ROOT ALP Y 8
     5 SEP2       17 GROUP        1 Y    SEP  0     **** SEP Y 9
     6 GLP5        3 GROUP        1 Y    GLP  0     **** GLP Y 13
     7 ALL1       13 GROUP        1 Z    ALL  0     ROOT ALL Z 15
     8 SEL2       16 GROUP        1 Z    SEL  0     **** SEL Z 16
     9 GLL5        2 GROUP        1 Z    GLL  0     **** GLL Z 20
@<TRIPOS>SET

