#    Name: 2z3u_CRR_1_ligand
#    Modification time : Tue Mar 25 09:56:19 2014

@<TRIPOS>MOLECULE
2z3u_CRR_1_ligand
   42    46     1     0     0
SMALL
NO_CHARGES


@<TRIPOS>ATOM
      1 C5         -7.5120   -2.6540  -26.8450 C.ar      1 CRR501      0.0000 
      2 C4         -8.0390   -2.9520  -28.0970 C.ar      1 CRR501      0.0000 
      3 C3         -7.3770   -3.8530  -28.9240 C.ar      1 CRR501      0.0000 
      4 C2         -6.1950   -4.4510  -28.4990 C.ar      1 CRR501      0.0000 
      5 C1         -5.6690   -4.1480  -27.2470 C.ar      1 CRR501      0.0000 
      6 C20        -6.3290   -3.2480  -26.4200 C.ar      1 CRR501      0.0000 
      7 N3         -6.0740   -2.8030  -25.1910 N.pl3     1 CRR501      0.0000 
      8 C19        -7.0370   -1.9650  -24.8100 C.2       1 CRR501      0.0000 
      9 C6         -7.9300   -1.8560  -25.7900 C.2       1 CRR501      0.0000 
     10 C7         -9.1240   -1.1380  -25.7930 C.2       1 CRR501      0.0000 
     11 C8         -9.5070   -0.1190  -26.6560 C.2       1 CRR501      0.0000 
     12 C36        -8.7050    0.4360  -27.8340 C.2       1 CRR501      0.0000 
     13 O39        -7.5670   -0.0300  -28.0550 O.co2     1 CRR501      0.0000 
     14 O40        -9.2370    1.3430  -28.5110 O.co2     1 CRR501      0.0000 
     15 N1        -10.6950    0.3580  -26.2860 N.pl3     1 CRR501      0.0000 
     16 C9        -11.0990   -0.3110  -25.2080 C.2       1 CRR501      0.0000 
     17 C35       -12.4510   -0.0720  -24.5310 C.2       1 CRR501      0.0000 
     18 O37       -13.1570    0.8560  -24.9850 O.co2     1 CRR501      0.0000 
     19 O38       -12.7880   -0.8030  -23.5760 O.co2     1 CRR501      0.0000 
     20 C10       -10.1400   -1.2560  -24.8560 C.2       1 CRR501      0.0000 
     21 C11       -10.1830   -2.1760  -23.8140 C.2       1 CRR501      0.0000 
     22 C12       -10.3590   -1.8260  -22.4800 C.ar      1 CRR501      0.0000 
     23 C13       -10.5670   -0.6190  -21.8240 C.ar      1 CRR501      0.0000 
     24 C14       -10.6580   -0.6010  -20.4360 C.ar      1 CRR501      0.0000 
     25 C15       -10.5430   -1.7840  -19.7150 C.ar      1 CRR501      0.0000 
     26 C16       -10.3360   -2.9910  -20.3730 C.ar      1 CRR501      0.0000 
     27 C17       -10.2430   -3.0080  -21.7600 C.ar      1 CRR501      0.0000 
     28 N2        -10.0160   -3.9890  -22.6300 N.pl3     1 CRR501      0.0000 
     29 C18        -9.9780   -3.4900  -23.8640 C.2       1 CRR501      0.0000 
     30 H          -8.9103   -2.5101  -28.4084 H         1 CRR501      0.0000 
     31 H          -7.7617   -4.0778  -29.8513 H         1 CRR501      0.0000 
     32 H          -5.7083   -5.1192  -29.1121 H         1 CRR501      0.0000 
     33 H          -4.7951   -4.5891  -26.9361 H         1 CRR501      0.0000 
     34 H          -5.2967   -3.0535  -24.6493 H         1 CRR501      0.0000 
     35 H          -7.0796   -1.5052  -23.9494 H         1 CRR501      0.0000 
     36 H         -11.1832    1.0730  -26.7284 H         1 CRR501      0.0000 
     37 H         -10.6528    0.2516  -22.3577 H         1 CRR501      0.0000 
     38 H         -10.8106    0.2889  -19.9429 H         1 CRR501      0.0000 
     39 H         -10.6116   -1.7662  -18.6864 H         1 CRR501      0.0000 
     40 H         -10.2525   -3.8622  -19.8393 H         1 CRR501      0.0000 
     41 H          -9.8953   -4.9335  -22.3987 H         1 CRR501      0.0000 
     42 H          -9.8236   -4.0085  -24.6793 H         1 CRR501      0.0000 
@<TRIPOS>BOND
     1    2    1 ar   
     2    6    1 ar   
     3    9    1 1    
     4    3    2 ar   
     5   30    2 1    
     6    4    3 ar   
     7   31    3 1    
     8    5    4 ar   
     9   32    4 1    
    10    6    5 ar   
    11   33    5 1    
    12    7    6 1    
    13    8    7 1    
    14   34    7 1    
    15    9    8 2    
    16   35    8 1    
    17   10    9 1    
    18   11   10 2    
    19   20   10 1    
    20   12   11 1    
    21   15   11 1    
    22   13   12 ar   
    23   14   12 ar   
    24   16   15 1    
    25   36   15 1    
    26   17   16 1    
    27   20   16 2    
    28   18   17 ar   
    29   19   17 ar   
    30   21   20 1    
    31   22   21 1    
    32   29   21 2    
    33   23   22 ar   
    34   27   22 ar   
    35   24   23 ar   
    36   37   23 1    
    37   25   24 ar   
    38   38   24 1    
    39   26   25 ar   
    40   39   25 1    
    41   27   26 ar   
    42   40   26 1    
    43   28   27 1    
    44   29   28 1    
    45   41   28 1    
    46   42   29 1    
@<TRIPOS>SUBSTRUCTURE
     1 CRR501      1 GROUP   
@<TRIPOS>SET

