#    Name: 3rlr_3RR_1_INTS_M
#    Modification time : Tue Mar 25 11:39:37 2014

@<TRIPOS>MOLECULE
3rlr_3RR_1_INTS_M
   72     0     9     0     0
SMALL
NO_CHARGES


@<TRIPOS>ATOM
      1 O          18.4355    0.6735   48.3030 O.2       1 ALC1        0.0000 
      2 O          17.2740    0.3930   48.8600 O.2       7 ALL1        0.0000 
      3 O          19.5970    0.9540   47.7460 O.2       4 ALP1        0.0000 
      4 CA         15.5815   -0.8385   48.0500 C.3       3 GLC5        0.0000 
      5 CA         15.5890   -0.3350   50.1480 C.3       9 GLL5        0.0000 
      6 CA         15.5740   -1.3420   45.9520 C.3       6 GLP5        0.0000 
      7 CA         18.2795    1.9015   49.9010 C.3       3 GLC5        0.0000 
      8 CA         16.4090    1.4600   48.9960 C.3       9 GLL5        0.0000 
      9 CA         20.1500    2.3430   50.8060 C.3       6 GLP5        0.0000 
     10 CA         15.9915    0.0590   47.4740 C.3       3 GLC5        0.0000 
     11 CA         18.9120   -5.2555   50.6765 C.3       3 GLC5        0.0000 
     12 CA         17.3730   -4.1950   50.4820 C.3       9 GLL5        0.0000 
     13 CA         20.4510   -6.3160   50.8710 C.3       6 GLP5        0.0000 
     14 CA         18.1150   -5.2465   48.7160 C.3       3 GLC5        0.0000 
     15 CA         18.8570   -6.2980   46.9500 C.3       6 GLP5        0.0000 
     16 CA         16.0685   -5.4165   49.7855 C.3       3 GLC5        0.0000 
     17 CA         14.7640   -6.6380   49.0890 C.3       6 GLP5        0.0000 
     18 CA         14.9030    0.3870   53.0260 C.3       3 GLC5        0.0000 
     19 CA         13.6450   -1.4550   53.0100 C.3       9 GLL5        0.0000 
     20 CA         16.1610    2.2290   53.0420 C.3       6 GLP5        0.0000 
     21 CA         13.4405    3.7750   50.1400 C.3       3 GLC5        0.0000 
     22 CA         14.2520    1.8660   50.1830 C.3       9 GLL5        0.0000 
     23 CA         12.6290    5.6840   50.0970 C.3       6 GLP5        0.0000 
     24 CA         15.2065    2.0475   51.6125 C.3       3 GLC5        0.0000 
     25 CA         12.1585    2.0030   50.1300 C.3       3 GLC5        0.0000 
     26 CA         10.0650    2.1400   50.0770 C.3       6 GLP5        0.0000 
     27 CA         15.5620    0.4225   51.9695 C.3       3 GLC5        0.0000 
     28 CA         14.9630   -1.3840   50.8970 C.3       9 GLL5        0.0000 
     29 CA         18.6175   -1.3845   50.3015 C.3       3 GLC5        0.0000 
     30 CA         16.8050   -0.6940   49.5440 C.3       9 GLL5        0.0000 
     31 CA         20.4300   -2.0750   51.0590 C.3       6 GLP5        0.0000 
     32 CA         16.9230   -1.2350   47.7290 C.3       3 GLC5        0.0000 
     33 CA         17.0410   -1.7760   45.9140 C.3       6 GLP5        0.0000 
     34 CA         15.2620   -3.5255   49.2790 C.3       3 GLC5        0.0000 
     35 CA         16.7640   -2.8290   50.3480 C.3       9 GLL5        0.0000 
     36 CA         13.7600   -4.2220   48.2100 C.3       6 GLP5        0.0000 
     37 CA         18.5820    3.1190   49.0885 C.3       3 GLC5        0.0000 
     38 CA         16.6870    2.7640   48.3490 C.3       9 GLL5        0.0000 
     39 CA         20.4770    3.4740   49.8280 C.3       6 GLP5        0.0000 
     40 CA         17.3540    4.4570   47.4610 C.3       3 GLC5        0.0000 
     41 CA         18.0210    6.1500   46.5730 C.3       6 GLP5        0.0000 
     42 CA         15.1110    2.5190   47.3735 C.3       3 GLC5        0.0000 
     43 CA         13.5350    2.2740   46.3980 C.3       6 GLP5        0.0000 
     44 N          13.5955    2.4015   52.1185 N.am      2 SEC2        0.0000 
     45 N          13.3650    2.5150   50.5400 N.am      8 SEL2        0.0000 
     46 N          13.8260    2.2880   53.6970 N.am      5 SEP2        0.0000 
     47 CA         13.0655   -2.5335   48.6940 C.3       3 GLC5        0.0000 
     48 CA         12.3710   -0.8450   49.1780 C.3       9 GLL5        0.0000 
     49 CA         10.7265   -1.7840   48.9030 C.3       3 GLC5        0.0000 
     50 CA          9.0820   -2.7230   48.6280 C.3       6 GLP5        0.0000 
     51 CA         11.2180    0.6475   49.6275 C.3       3 GLC5        0.0000 
     52 CA         12.1710   -1.3065   47.2555 C.3       3 GLC5        0.0000 
     53 CA         11.9710   -1.7680   45.3330 C.3       6 GLP5        0.0000 
     54 CA         12.9530    0.7145   47.7880 C.3       3 GLC5        0.0000 
     55 CA          9.2625   -2.2060   51.9190 C.3       3 GLC5        0.0000 
     56 CA          9.6740   -1.1240   53.8170 C.3       9 GLL5        0.0000 
     57 CA          8.8510   -3.2880   50.0210 C.3       6 GLP5        0.0000 
     58 CA          9.8735    0.5210   53.2010 C.3       3 GLC5        0.0000 
     59 CA         10.0730    2.1660   52.5850 C.3       6 GLP5        0.0000 
     60 CA          7.8415   -0.4650   54.1590 C.3       3 GLC5        0.0000 
     61 CA          6.0090    0.1940   54.5010 C.3       6 GLP5        0.0000 
     62 CA         16.0512    1.5671   51.2630 C.3       3 GLC5        0.0000 
     63 CA         18.7492   -2.7935   50.7370 C.3       3 GLC5        0.0000 
     64 CA         10.9503    0.5615   51.9235 C.3       3 GLC5        0.0000 
     65 CA         11.2160   -1.0170   51.6170 C.3       9 GLL5        0.0000 
     66 CA         14.3015    1.9155   48.0938 C.3       3 GLC5        0.0000 
     67 CA         10.9425    0.4365   52.9845 C.3       3 GLC5        0.0000 
     68 CA         11.2060   -1.1860   53.0220 C.3       9 GLL5        0.0000 
     69 CA         10.7779   -2.6318   51.2925 C.3       3 GLC5        0.0000 
     70 CA         10.0390   -4.1490   50.4430 C.3       6 GLP5        0.0000 
     71 CA         13.8860   -2.7527   49.6421 C.3       3 GLC5        0.0000 
     72 CA         13.6830   -1.2970   51.5960 C.3       9 GLL5        0.0000 
@<TRIPOS>BOND
@<TRIPOS>SUBSTRUCTURE
     1 ALC1        1 GROUP        1 X    ALC  0     ROOT ALC X 1
     2 SEC2       44 GROUP        1 X    SEC  0     **** SEC X 2
     3 GLC5        4 GROUP        1 X    GLC  0     **** GLC X 6
     4 ALP1        3 GROUP        1 Y    ALP  0     ROOT ALP Y 8
     5 SEP2       46 GROUP        1 Y    SEP  0     **** SEP Y 9
     6 GLP5        6 GROUP        1 Y    GLP  0     **** GLP Y 13
     7 ALL1        2 GROUP        1 Z    ALL  0     ROOT ALL Z 15
     8 SEL2       45 GROUP        1 Z    SEL  0     **** SEL Z 16
     9 GLL5        5 GROUP        1 Z    GLL  0     **** GLL Z 20
@<TRIPOS>SET

