#    Name: 3rlr_3RR_1_ligand
#    Modification time : Tue Mar 25 11:39:37 2014

@<TRIPOS>MOLECULE
3rlr_3RR_1_ligand
   35    37     1     0     0
SMALL
NO_CHARGES


@<TRIPOS>ATOM
      1 N1         17.4370   -1.9070   49.6060 N.ar      1 3RR901      0.0000 
      2 N3         17.2740    0.3930   48.8600 N.pl3     1 3RR901      0.0000 
      3 C4         15.5890   -0.3350   50.1480 C.ar      1 3RR901      0.0000 
      4 C5         15.3590    1.0360   49.7960 C.2       1 3RR901      0.0000 
      5 C6         16.4090    1.4600   48.9960 C.2       1 3RR901      0.0000 
      6 C7         17.3730   -4.1950   50.4820 C.3       1 3RR901      0.0000 
      7 C8         13.6830   -1.2970   51.5960 C.ar      1 3RR901      0.0000 
      8 C10        11.2160   -1.0170   51.6170 C.ar      1 3RR901      0.0000 
      9 C13        13.6450   -1.4550   53.0100 C.ar      1 3RR901      0.0000 
     10 C15        14.2520    1.8660   50.1830 C.1       1 3RR901      0.0000 
     11 C12        12.4180   -1.4000   53.7460 C.ar      1 3RR901      0.0000 
     12 C9         12.4390   -1.0690   50.9070 C.ar      1 3RR901      0.0000 
     13 C11        11.2060   -1.1860   53.0220 C.ar      1 3RR901      0.0000 
     14 C2         14.9630   -1.3840   50.8970 C.ar      1 3RR901      0.0000 
     15 C3         16.8050   -0.6940   49.5440 C.ar      1 3RR901      0.0000 
     16 C1         16.7640   -2.8290   50.3480 C.ar      1 3RR901      0.0000 
     17 C16        16.6870    2.7640   48.3490 C.3       1 3RR901      0.0000 
     18 C14        13.4710   -1.7550   55.9190 C.3       1 3RR901      0.0000 
     19 N4         13.3650    2.5150   50.5400 N.1       1 3RR901      0.0000 
     20 N2         15.5770   -2.6260   50.9800 N.ar      1 3RR901      0.0000 
     21 O1         12.3000   -1.5410   55.1170 O.3       1 3RR901      0.0000 
     22 CL2        12.3710   -0.8450   49.1780 Cl        1 3RR901      0.0000 
     23 CL1         9.6740   -1.1240   53.8170 Cl        1 3RR901      0.0000 
     24 H          18.0979    0.4181   48.3489 H         1 3RR901      0.0000 
     25 H          10.3418   -0.8577   51.1162 H         1 3RR901      0.0000 
     26 H          14.5244   -1.6138   53.5224 H         1 3RR901      0.0000 
     27 H          18.2767   -4.1585   50.9086 H         1 3RR901      0.0000 
     28 H          16.8082   -4.8000   51.0432 H         1 3RR901      0.0000 
     29 H          17.4860   -4.6400   49.5936 H         1 3RR901      0.0000 
     30 H          17.5478    3.1608   48.6679 H         1 3RR901      0.0000 
     31 H          16.7541    2.6785   47.3549 H         1 3RR901      0.0000 
     32 H          15.9681    3.4330   48.5378 H         1 3RR901      0.0000 
     33 H          13.9531   -2.5910   55.6568 H         1 3RR901      0.0000 
     34 H          14.1228   -1.0015   55.8330 H         1 3RR901      0.0000 
     35 H          13.2461   -1.8386   56.8898 H         1 3RR901      0.0000 
@<TRIPOS>BOND
     1   15    1 ar   
     2   16    1 ar   
     3    5    2 1    
     4   15    2 1    
     5   24    2 1    
     6    4    3 1    
     7   14    3 ar   
     8   15    3 ar   
     9    5    4 2    
    10   10    4 1    
    11   17    5 1    
    12   16    6 1    
    13   27    6 1    
    14   28    6 1    
    15   29    6 1    
    16    9    7 ar   
    17   12    7 ar   
    18   14    7 1    
    19   12    8 ar   
    20   13    8 ar   
    21   25    8 1    
    22   11    9 ar   
    23   26    9 1    
    24   19   10 3    
    25   13   11 ar   
    26   21   11 1    
    27   22   12 1    
    28   23   13 1    
    29   20   14 ar   
    30   20   16 ar   
    31   30   17 1    
    32   31   17 1    
    33   32   17 1    
    34   21   18 1    
    35   33   18 1    
    36   34   18 1    
    37   35   18 1    
@<TRIPOS>SUBSTRUCTURE
     1 3RR901      1 GROUP   
@<TRIPOS>SET

