#    Name: 1ptw_AMP_4_INTS_M
#    Modification time : Mon Mar 24 22:18:29 2014

@<TRIPOS>MOLECULE
1ptw_AMP_4_INTS_M
   45     0    12     0     0
SMALL
NO_CHARGES


@<TRIPOS>ATOM
      1 N         -18.4895    3.0120   -6.6945 N.am      2 SEC2        0.0000 
      2 N         -19.5460    3.8960   -6.5150 N.am     10 SEL2        0.0000 
      3 N         -17.4330    2.1280   -6.8740 N.am      6 SEP2        0.0000 
      4 Zn        -18.2180    3.6840   -3.5270 Zn        3 ZIC7        0.0000 
      5 Zn        -18.6510    2.8090   -4.4480 Zn       11 ZIL7        0.0000 
      6 Zn        -17.7850    4.5590   -2.6060 Zn        7 ZIP7        0.0000 
      7 N         -18.0420    2.4685   -5.6610 N.am      2 SEC2        0.0000 
      8 N         -18.6510    2.8090   -4.4480 N.am     10 SEL2        0.0000 
      9 Zn        -18.7685    6.0630   -4.9895 Zn        3 ZIC7        0.0000 
     10 Zn        -19.3010    5.2300   -4.4100 Zn       11 ZIL7        0.0000 
     11 Zn        -18.2360    6.8960   -5.5690 Zn        7 ZIP7        0.0000 
     12 Zn        -18.5430    4.8945   -3.5080 Zn        3 ZIC7        0.0000 
     13 N         -20.2915    6.1705   -4.4240 N.am      2 SEC2        0.0000 
     14 N         -19.3010    5.2300   -4.4100 N.am     10 SEL2        0.0000 
     15 N         -21.2820    7.1110   -4.4380 N.am      6 SEP2        0.0000 
     16 CA        -22.4675   -0.7165   -8.3865 C.3       4 GLC5        0.0000 
     17 CA        -23.1880    0.8580   -7.2790 C.3      12 GLL5        0.0000 
     18 CA        -21.7470   -2.2910   -9.4940 C.3       8 GLP5        0.0000 
     19 CA        -24.5295    4.0515   -6.9375 C.3       4 GLC5        0.0000 
     20 CA        -24.2010    1.9700   -7.5700 C.3      12 GLL5        0.0000 
     21 CA        -24.8580    6.1330   -6.3050 C.3       8 GLP5        0.0000 
     22 CA        -25.6760    2.7295   -8.0720 C.3       4 GLC5        0.0000 
     23 CA        -27.1510    3.4890   -8.5740 C.3       8 GLP5        0.0000 
     24 N         -23.1805    5.3575  -11.3190 N.am      2 SEC2        0.0000 
     25 N         -23.4860    3.9720  -10.5540 N.am     10 SEL2        0.0000 
     26 N         -22.8750    6.7430  -12.0840 N.am      6 SEP2        0.0000 
     27 CA        -22.4630    1.5245  -11.5515 C.3       4 GLC5        0.0000 
     28 CA        -24.1440    2.8680  -11.0750 C.3      12 GLL5        0.0000 
     29 CA        -20.7820    0.1810  -12.0280 C.3       8 GLP5        0.0000 
     30 CA        -22.9930    1.5990  -13.3810 C.3       4 GLC5        0.0000 
     31 CA        -24.5140    2.5060  -12.3930 C.3      12 GLL5        0.0000 
     32 CA        -21.4720    0.6920  -14.3690 C.3       8 GLP5        0.0000 
     33 O         -24.2905    4.7270  -13.5965 O.2       1 ALC1        0.0000 
     34 O         -24.2530    3.2480  -13.4710 O.2       9 ALL1        0.0000 
     35 O         -24.3280    6.2060  -13.7220 O.2       5 ALP1        0.0000 
     36 N         -25.8395    0.7620  -13.7195 N.am      2 SEC2        0.0000 
     37 N         -25.1750    1.3360  -12.5630 N.am     10 SEL2        0.0000 
     38 N         -26.5040    0.1880  -14.8760 N.am      6 SEP2        0.0000 
     39 CA        -27.5580    0.8070  -11.2725 C.3       4 GLC5        0.0000 
     40 CA        -25.4390    0.5830  -11.4830 C.3      12 GLL5        0.0000 
     41 CA        -29.6770    1.0310  -11.0620 C.3       8 GLP5        0.0000 
     42 CA        -23.6535    2.5520   -4.0688 C.3       4 GLC5        0.0000 
     43 CA        -22.8550    2.6250   -5.7720 C.3      12 GLL5        0.0000 
     44 CA        -24.8280    1.8620   -2.5750 C.3       8 GLP5        0.0000 
     45 CA        -23.6685    4.6875   -5.9337 C.3       4 GLC5        0.0000 
@<TRIPOS>BOND
@<TRIPOS>SUBSTRUCTURE
     1 ALC1       33 GROUP        1 X    ALC  0     ROOT ALC X 1
     2 SEC2        1 GROUP        1 X    SEC  0     **** SEC X 2
     3 ZIC7        4 GROUP        1 X    ZIC  0     **** ZIC X 5
     4 GLC5       16 GROUP        1 X    GLC  0     **** GLC X 6
     5 ALP1       35 GROUP        1 Y    ALP  0     ROOT ALP Y 8
     6 SEP2        3 GROUP        1 Y    SEP  0     **** SEP Y 9
     7 ZIP7        6 GROUP        1 Y    ZIP  0     **** ZIP Y 12
     8 GLP5       18 GROUP        1 Y    GLP  0     **** GLP Y 13
     9 ALL1       34 GROUP        1 Z    ALL  0     ROOT ALL Z 15
    10 SEL2        2 GROUP        1 Z    SEL  0     **** SEL Z 16
    11 ZIL7        5 GROUP        1 Z    ZIL  0     **** ZIL Z 19
    12 GLL5       17 GROUP        1 Z    GLL  0     **** GLL Z 20
@<TRIPOS>SET

