#    Name: 1ptw_AMP_4_ligand
#    Modification time : Mon Mar 24 22:18:29 2014

@<TRIPOS>MOLECULE
1ptw_AMP_4_ligand
   35    37     1     0     0
SMALL
NO_CHARGES


@<TRIPOS>ATOM
      1 P         -19.4900    3.8880   -5.0300 P.3       1 AMP510      0.0000 
      2 O1P       -19.5460    3.8960   -6.5150 O.co2     1 AMP510      0.0000 
      3 O2P       -18.6510    2.8090   -4.4480 O.co2     1 AMP510      0.0000 
      4 O3P       -19.3010    5.2300   -4.4100 O.co2     1 AMP510      0.0000 
      5 O5'       -20.9660    3.4860   -4.5820 O.3       1 AMP510      0.0000 
      6 C5'       -22.1030    3.8590   -5.3530 C.3       1 AMP510      0.0000 
      7 C4'       -22.8550    2.6250   -5.7720 C.3       1 AMP510      0.0000 
      8 O4'       -23.9850    2.9890   -6.6060 O.3       1 AMP510      0.0000 
      9 C3'       -22.0650    1.6540   -6.6370 C.3       1 AMP510      0.0000 
     10 O3'       -21.2220    0.8150   -5.8510 O.3       1 AMP510      0.0000 
     11 C2'       -23.1880    0.8580   -7.2790 C.3       1 AMP510      0.0000 
     12 O2'       -23.7250   -0.0960   -6.3830 O.3       1 AMP510      0.0000 
     13 C1'       -24.2010    1.9700   -7.5700 C.3       1 AMP510      0.0000 
     14 N9        -24.0420    2.5500   -8.9020 N.pl3     1 AMP510      0.0000 
     15 C8        -23.4470    3.7340   -9.2670 C.2       1 AMP510      0.0000 
     16 N7        -23.4860    3.9720  -10.5540 N.2       1 AMP510      0.0000 
     17 C5        -24.1440    2.8680  -11.0750 C.ar      1 AMP510      0.0000 
     18 C6        -24.5140    2.5060  -12.3930 C.ar      1 AMP510      0.0000 
     19 N6        -24.2530    3.2480  -13.4710 N.pl3     1 AMP510      0.0000 
     20 N1        -25.1750    1.3360  -12.5630 N.ar      1 AMP510      0.0000 
     21 C2        -25.4390    0.5830  -11.4830 C.ar      1 AMP510      0.0000 
     22 N3        -25.1410    0.8140  -10.2040 N.ar      1 AMP510      0.0000 
     23 C4        -24.4890    1.9830  -10.0670 C.ar      1 AMP510      0.0000 
     24 H         -21.8134    4.4095   -6.2582 H         1 AMP510      0.0000 
     25 H         -22.7861    4.5002   -4.7799 H         1 AMP510      0.0000 
     26 H         -23.2131    2.0905   -4.9081 H         1 AMP510      0.0000 
     27 H         -21.5720    2.2005   -7.3878 H         1 AMP510      0.0000 
     28 H         -22.8487    0.4765   -8.1955 H         1 AMP510      0.0000 
     29 H         -25.1896    1.5528   -7.4556 H         1 AMP510      0.0000 
     30 H         -23.0293    4.3387   -8.5827 H         1 AMP510      0.0000 
     31 H         -23.7087    2.8092  -14.1860 H         1 AMP510      0.0000 
     32 H         -24.6251    4.1761  -13.4670 H         1 AMP510      0.0000 
     33 H         -25.9806   -0.3623  -11.6867 H         1 AMP510      0.0000 
     34 H         -20.9006    1.3977   -5.1046 H         1 AMP510      0.0000 
     35 H         -22.9579   -0.3638   -5.8000 H         1 AMP510      0.0000 
@<TRIPOS>BOND
     1    2    1 ar   
     2    3    1 ar   
     3    4    1 ar   
     4    5    1 1    
     5    6    5 1    
     6    7    6 1    
     7   24    6 1    
     8   25    6 1    
     9    8    7 1    
    10    9    7 1    
    11   26    7 1    
    12   13    8 1    
    13   10    9 1    
    14   11    9 1    
    15   27    9 1    
    16   34   10 1    
    17   12   11 1    
    18   13   11 1    
    19   28   11 1    
    20   35   12 1    
    21   14   13 1    
    22   29   13 1    
    23   15   14 1    
    24   23   14 1    
    25   16   15 2    
    26   30   15 1    
    27   17   16 1    
    28   18   17 ar   
    29   23   17 ar   
    30   19   18 1    
    31   20   18 ar   
    32   31   19 1    
    33   32   19 1    
    34   21   20 ar   
    35   22   21 ar   
    36   33   21 1    
    37   23   22 ar   
@<TRIPOS>SUBSTRUCTURE
     1 AMP510      1 GROUP   
@<TRIPOS>SET

