#    Name: 3cty_FAD_2_INTS_M
#    Modification time : Mon Mar 24 22:21:01 2014

@<TRIPOS>MOLECULE
3cty_FAD_2_INTS_M
  122     0     9     0     0
SMALL
NO_CHARGES


@<TRIPOS>ATOM
      1 N          60.2090    9.9695   33.2805 N.am      2 SEC2        0.0000 
      2 N          59.7460   11.3180   33.2480 N.am      8 SEL2        0.0000 
      3 N          60.6720    8.6210   33.3130 N.am      5 SEP2        0.0000 
      4 CA         55.4295   11.6255   32.8345 C.3       3 GLC5        0.0000 
      5 CA         56.1220   11.0440   34.5150 C.3       9 GLL5        0.0000 
      6 CA         54.7370   12.2070   31.1540 C.3       6 GLP5        0.0000 
      7 CA         55.1380   11.7845   37.1530 C.3       3 GLC5        0.0000 
      8 CA         55.9740   10.5210   35.9370 C.3       9 GLL5        0.0000 
      9 CA         54.3020   13.0480   38.3690 C.3       6 GLP5        0.0000 
     10 O          56.8310    9.3470   38.3550 O.2       1 ALC1        0.0000 
     11 O          57.2690    8.8900   37.2500 O.2       7 ALL1        0.0000 
     12 O          56.3930    9.8040   39.4600 O.2       4 ALP1        0.0000 
     13 CA         53.5055    6.8625   36.2860 C.3       3 GLC5        0.0000 
     14 CA         55.0600    8.3150   36.3450 C.3       9 GLL5        0.0000 
     15 CA         51.9510    5.4100   36.2270 C.3       6 GLP5        0.0000 
     16 N          54.1725    5.9000   36.6680 N.am      2 SEC2        0.0000 
     17 N          55.0740    7.1020   37.0670 N.am      8 SEL2        0.0000 
     18 N          53.2710    4.6980   36.2690 N.am      5 SEP2        0.0000 
     19 O          55.2890    7.4620   38.4120 O.2       1 ALC1        0.0000 
     20 O          55.0740    7.1020   37.0670 O.2       7 ALL1        0.0000 
     21 O          55.5040    7.8220   39.7570 O.2       4 ALP1        0.0000 
     22 CA         54.2390   11.2135   37.6690 C.3       3 GLC5        0.0000 
     23 CA         54.1760    9.3790   36.9690 C.3       9 GLL5        0.0000 
     24 CA         53.1250    7.6055   37.8400 C.3       3 GLC5        0.0000 
     25 CA         52.0740    5.8320   38.7110 C.3       6 GLP5        0.0000 
     26 CA         53.4360   11.0080   35.6585 C.3       3 GLC5        0.0000 
     27 CA         52.6960   12.6370   34.3480 C.3       6 GLP5        0.0000 
     28 CA         49.4655   11.2855   38.4920 C.3       3 GLC5        0.0000 
     29 CA         49.3390    9.3400   37.8880 C.3       9 GLL5        0.0000 
     30 CA         49.5920   13.2310   39.0960 C.3       6 GLP5        0.0000 
     31 CA         48.4715    7.7760   38.9195 C.3       3 GLC5        0.0000 
     32 CA         47.6040    6.2120   39.9510 C.3       6 GLP5        0.0000 
     33 O          46.7850    9.1915   38.2895 O.2       1 ALC1        0.0000 
     34 O          48.1150    9.2000   37.3790 O.2       7 ALL1        0.0000 
     35 O          45.4550    9.1830   39.2000 O.2       4 ALP1        0.0000 
     36 N          48.3500    9.5025   40.2800 N.am      2 SEC2        0.0000 
     37 N          49.4900    9.5900   39.2240 N.am      8 SEL2        0.0000 
     38 N          47.2100    9.4150   41.3360 N.am      5 SEP2        0.0000 
     39 CA         50.1735   11.4800   39.4110 C.3       3 GLC5        0.0000 
     40 CA         50.7550    9.7290   39.7260 C.3       9 GLL5        0.0000 
     41 CA         52.3545    9.6015   40.7735 C.3       3 GLC5        0.0000 
     42 CA         53.9540    9.4740   41.8210 C.3       6 GLP5        0.0000 
     43 CA         51.0330    7.7600   39.8745 C.3       3 GLC5        0.0000 
     44 CA         51.3110    5.7910   40.0230 C.3       6 GLP5        0.0000 
     45 CA         49.5590    8.5810   40.9025 C.3       3 GLC5        0.0000 
     46 CA         48.3630    7.4330   42.0790 C.3       6 GLP5        0.0000 
     47 N          52.3350    8.5700   40.0830 N.am      2 SEC2        0.0000 
     48 N          51.9270    9.6540   39.0640 N.am      8 SEL2        0.0000 
     49 N          52.7430    7.4860   41.1020 N.am      5 SEP2        0.0000 
     50 CA         51.9020    7.6145   38.2045 C.3       3 GLC5        0.0000 
     51 CA         51.7300    9.3970   37.6980 C.3       9 GLL5        0.0000 
     52 N          65.4965   15.2580   27.3790 N.am      2 SEC2        0.0000 
     53 N          66.5150   14.7490   26.6670 N.am      8 SEL2        0.0000 
     54 N          64.4780   15.7670   28.0910 N.am      5 SEP2        0.0000 
     55 O          68.8045   13.9620   25.9740 O.2       1 ALC1        0.0000 
     56 O          67.8660   12.9560   26.2220 O.2       7 ALL1        0.0000 
     57 O          69.7430   14.9680   25.7260 O.2       4 ALP1        0.0000 
     58 CA         65.5595    6.4175   24.2440 C.3       3 GLC5        0.0000 
     59 CA         66.2690    7.0430   26.1900 C.3       9 GLL5        0.0000 
     60 CA         64.8500    5.7920   22.2980 C.3       6 GLP5        0.0000 
     61 CA         64.2470    3.3040   25.7570 C.3       3 GLC5        0.0000 
     62 CA         65.5080    4.6590   26.2190 C.3       9 GLL5        0.0000 
     63 CA         62.9860    1.9490   25.2950 C.3       6 GLP5        0.0000 
     64 CA         61.6465    6.6935   28.3365 C.3       3 GLC5        0.0000 
     65 CA         62.7230    5.7410   26.9890 C.3       9 GLL5        0.0000 
     66 CA         60.5700    7.6460   29.6840 C.3       6 GLP5        0.0000 
     67 CA         62.8545    3.8450   26.1420 C.3       3 GLC5        0.0000 
     68 CA         61.8040    8.2125   27.6955 C.3       3 GLC5        0.0000 
     69 CA         63.7370    8.0760   26.8880 C.3       9 GLL5        0.0000 
     70 CA         59.8710    8.3490   28.5030 C.3       6 GLP5        0.0000 
     71 CA         64.4860   12.8115   29.3095 C.3       3 GLC5        0.0000 
     72 CA         63.1820   11.6390   28.6000 C.3       9 GLL5        0.0000 
     73 CA         65.7900   13.9840   30.0190 C.3       6 GLP5        0.0000 
     74 CA         60.8210   10.2760   28.6445 C.3       3 GLC5        0.0000 
     75 CA         61.7710   12.2030   28.7860 C.3       9 GLL5        0.0000 
     76 O          60.1980   13.8235   27.6815 O.2       1 ALC1        0.0000 
     77 O          61.5570   13.2160   27.8100 O.2       7 ALL1        0.0000 
     78 O          58.8390   14.4310   27.5530 O.2       4 ALP1        0.0000 
     79 O          60.1020   12.7495   27.4760 O.2       1 ALC1        0.0000 
     80 O          58.6470   12.2830   27.1420 O.2       4 ALP1        0.0000 
     81 CA         61.0995   10.7130   30.5285 C.3       3 GLC5        0.0000 
     82 CA         61.5380   12.8360   30.1780 C.3       9 GLL5        0.0000 
     83 CA         60.6610    8.5900   30.8790 C.3       6 GLP5        0.0000 
     84 CA         63.6640   13.4100   30.0985 C.3       3 GLC5        0.0000 
     85 N          63.1000   12.0025   32.1115 N.am      2 SEC2        0.0000 
     86 N          61.7630   11.8580   31.1970 N.am      8 SEL2        0.0000 
     87 N          64.4370   12.1470   33.0260 N.am      5 SEP2        0.0000 
     88 CA         58.4020   13.3925   29.0770 C.3       3 GLC5        0.0000 
     89 CA         60.1150   13.3490   30.2590 C.3       9 GLL5        0.0000 
     90 CA         56.6890   13.4360   27.8950 C.3       6 GLP5        0.0000 
     91 CA         60.5210   15.5075   30.4100 C.3       3 GLC5        0.0000 
     92 CA         60.9270   17.6660   30.5610 C.3       6 GLP5        0.0000 
     93 N          59.4025   15.9485   33.9510 N.am      2 SEC2        0.0000 
     94 N          58.7040   14.8300   33.4220 N.am      8 SEL2        0.0000 
     95 N          60.1010   17.0670   34.4800 N.am      5 SEP2        0.0000 
     96 N          57.9780   14.8160   34.5650 N.am      2 SEC2        0.0000 
     97 N          57.2520   14.8020   35.7080 N.am      5 SEP2        0.0000 
     98 N          57.0790   15.3045   29.9255 N.am      2 SEC2        0.0000 
     99 N          57.6180   14.8630   31.1250 N.am      8 SEL2        0.0000 
    100 N          56.5400   15.7460   28.7260 N.am      5 SEP2        0.0000 
    101 CA         54.3720   11.7097   34.7870 C.3       3 GLC5        0.0000 
    102 CA         58.1820    9.3880   35.8483 C.3       3 GLC5        0.0000 
    103 CA         60.1810    8.9920   35.6430 C.3       6 GLP5        0.0000 
    104 CA         50.5765    7.3040   37.5172 C.3       3 GLC5        0.0000 
    105 CA         50.5390    9.2360   37.0690 C.3       9 GLL5        0.0000 
    106 CA         51.2140    5.3200   37.5560 C.3       6 GLP5        0.0000 
    107 CA         50.7287   10.9337   36.6856 C.3       3 GLC5        0.0000 
    108 CA         50.6230   12.5250   35.7830 C.3       6 GLP5        0.0000 
    109 CA         66.5692    8.4305   28.0825 C.3       3 GLC5        0.0000 
    110 CA         64.7900    8.9930   26.6840 C.3       9 GLL5        0.0000 
    111 CA         67.6920    8.1330   29.6600 C.3       6 GLP5        0.0000 
    112 CA         64.3885    5.5488   24.5673 C.3       3 GLC5        0.0000 
    113 CA         65.2200    6.1560   26.3920 C.3       9 GLL5        0.0000 
    114 CA         63.4130    5.6900   22.8290 C.3       6 GLP5        0.0000 
    115 CA         66.6191    6.1186   27.9445 C.3       3 GLC5        0.0000 
    116 CA         67.6120    6.6080   29.6340 C.3       6 GLP5        0.0000 
    117 CA         67.2186    5.2346   26.9365 C.3       3 GLC5        0.0000 
    118 CA         68.8110    4.8400   27.6180 C.3       6 GLP5        0.0000 
    119 CA         67.0921    5.7211   24.8645 C.3       3 GLC5        0.0000 
    120 CA         68.5580    5.8130   23.4740 C.3       6 GLP5        0.0000 
    121 CA         63.3687    5.9420   24.8487 C.3       3 GLC5        0.0000 
    122 CA         63.9260    6.6470   26.7480 C.3       9 GLL5        0.0000 
@<TRIPOS>BOND
@<TRIPOS>SUBSTRUCTURE
     1 ALC1       10 GROUP        1 X    ALC  0     ROOT ALC X 1
     2 SEC2        1 GROUP        1 X    SEC  0     **** SEC X 2
     3 GLC5        4 GROUP        1 X    GLC  0     **** GLC X 6
     4 ALP1       12 GROUP        1 Y    ALP  0     ROOT ALP Y 8
     5 SEP2        3 GROUP        1 Y    SEP  0     **** SEP Y 9
     6 GLP5        6 GROUP        1 Y    GLP  0     **** GLP Y 13
     7 ALL1       11 GROUP        1 Z    ALL  0     ROOT ALL Z 15
     8 SEL2        2 GROUP        1 Z    SEL  0     **** SEL Z 16
     9 GLL5        5 GROUP        1 Z    GLL  0     **** GLL Z 20
@<TRIPOS>SET

