#    Name: 3cty_FAD_2_ligand
#    Modification time : Mon Mar 24 22:21:01 2014

@<TRIPOS>MOLECULE
3cty_FAD_2_ligand
   84    89     1     0     0
SMALL
NO_CHARGES


@<TRIPOS>ATOM
      1 PA         58.3060   11.2800   32.8930 P.3       1 FAD1001     0.0000 
      2 O1A        59.7460   11.3180   33.2480 O.co2     1 FAD1001     0.0000 
      3 O2A        57.8320   10.2780   31.8960 O.co2     1 FAD1001     0.0000 
      4 O5B        57.5520   11.1370   34.3040 O.3       1 FAD1001     0.0000 
      5 C5B        56.1220   11.0440   34.5150 C.3       1 FAD1001     0.0000 
      6 C4B        55.9740   10.5210   35.9370 C.3       1 FAD1001     0.0000 
      7 O4B        54.6080   10.6410   36.4080 O.3       1 FAD1001     0.0000 
      8 C3B        56.3920    9.0470   36.1700 C.3       1 FAD1001     0.0000 
      9 O3B        57.2690    8.8900   37.2500 O.3       1 FAD1001     0.0000 
     10 C2B        55.0600    8.3150   36.3450 C.3       1 FAD1001     0.0000 
     11 O2B        55.0740    7.1020   37.0670 O.3       1 FAD1001     0.0000 
     12 C1B        54.1760    9.3790   36.9690 C.3       1 FAD1001     0.0000 
     13 N9A        52.7280    9.2660   36.7380 N.pl3     1 FAD1001     0.0000 
     14 C8A        52.0480    9.0210   35.5720 C.2       1 FAD1001     0.0000 
     15 N7A        50.7330    8.9930   35.7130 N.2       1 FAD1001     0.0000 
     16 C5A        50.5390    9.2360   37.0690 C.ar      1 FAD1001     0.0000 
     17 C6A        49.3390    9.3400   37.8880 C.ar      1 FAD1001     0.0000 
     18 N6A        48.1150    9.2000   37.3790 N.pl3     1 FAD1001     0.0000 
     19 N1A        49.4900    9.5900   39.2240 N.ar      1 FAD1001     0.0000 
     20 C2A        50.7550    9.7290   39.7260 C.ar      1 FAD1001     0.0000 
     21 N3A        51.9270    9.6540   39.0640 N.ar      1 FAD1001     0.0000 
     22 C4A        51.7300    9.3970   37.6980 C.ar      1 FAD1001     0.0000 
     23 N1         65.5450   12.6480   26.7460 N.2       1 FAD1001     0.0000 
     24 C2         66.6100   13.4960   26.5530 C.2       1 FAD1001     0.0000 
     25 O2         66.5150   14.7490   26.6670 O.2       1 FAD1001     0.0000 
     26 N3         67.8660   12.9560   26.2220 N.am      1 FAD1001     0.0000 
     27 C4         68.1330   11.5850   26.0590 C.2       1 FAD1001     0.0000 
     28 O4         69.2940   11.2110   25.7610 O.2       1 FAD1001     0.0000 
     29 C4X        67.0200   10.7100   26.2570 C.2       1 FAD1001     0.0000 
     30 N5         67.2040    9.3010   26.1140 N.2       1 FAD1001     0.0000 
     31 C5X        66.1030    8.4630   26.3260 C.ar      1 FAD1001     0.0000 
     32 C6         66.2690    7.0430   26.1900 C.ar      1 FAD1001     0.0000 
     33 C7         65.2200    6.1560   26.3920 C.ar      1 FAD1001     0.0000 
     34 C7M        65.5080    4.6590   26.2190 C.3       1 FAD1001     0.0000 
     35 C8         63.9260    6.6470   26.7480 C.ar      1 FAD1001     0.0000 
     36 C8M        62.7230    5.7410   26.9890 C.3       1 FAD1001     0.0000 
     37 C9         63.7370    8.0760   26.8880 C.ar      1 FAD1001     0.0000 
     38 C9A        64.7900    8.9930   26.6840 C.ar      1 FAD1001     0.0000 
     39 N10        64.6270   10.4420   26.8180 N.pl3     1 FAD1001     0.0000 
     40 C10        65.7390   11.2810   26.6050 C.2       1 FAD1001     0.0000 
     41 C1'        63.3010   11.0510   27.1740 C.3       1 FAD1001     0.0000 
     42 C2'        63.1820   11.6390   28.6000 C.3       1 FAD1001     0.0000 
     43 O2'        63.4830   10.6110   29.5500 O.3       1 FAD1001     0.0000 
     44 C3'        61.7710   12.2030   28.7860 C.3       1 FAD1001     0.0000 
     45 O3'        61.5570   13.2160   27.8100 O.3       1 FAD1001     0.0000 
     46 C4'        61.5380   12.8360   30.1780 C.3       1 FAD1001     0.0000 
     47 O4'        61.7630   11.8580   31.1970 O.3       1 FAD1001     0.0000 
     48 C5'        60.1150   13.3490   30.2590 C.3       1 FAD1001     0.0000 
     49 O5'        59.9120   13.9490   31.5300 O.3       1 FAD1001     0.0000 
     50 P          58.4690   14.1680   32.1310 P.3       1 FAD1001     0.0000 
     51 O1P        58.7040   14.8300   33.4220 O.co2     1 FAD1001     0.0000 
     52 O2P        57.6180   14.8630   31.1250 O.co2     1 FAD1001     0.0000 
     53 O3P        57.8130   12.7160   32.3570 O.3       1 FAD1001     0.0000 
     54 H          55.6664   10.3421   33.8417 H         1 FAD1001     0.0000 
     55 H          55.6482   12.0058   34.4517 H         1 FAD1001     0.0000 
     56 H          56.6166   11.1323   36.6009 H         1 FAD1001     0.0000 
     57 H          56.8094    8.7054   35.2213 H         1 FAD1001     0.0000 
     58 H          54.6598    8.1827   35.3153 H         1 FAD1001     0.0000 
     59 H          54.3813    9.4038   38.0416 H         1 FAD1001     0.0000 
     60 H          52.5282    8.8792   34.7035 H         1 FAD1001     0.0000 
     61 H          48.0657    8.9969   36.4011 H         1 FAD1001     0.0000 
     62 H          47.3562    9.3107   38.0209 H         1 FAD1001     0.0000 
     63 H          50.8155    9.9260   40.8026 H         1 FAD1001     0.0000 
     64 H          68.6686   13.6310   26.0857 H         1 FAD1001     0.0000 
     65 H          67.2080    6.6895   25.9327 H         1 FAD1001     0.0000 
     66 H          62.8000    8.4177   27.1446 H         1 FAD1001     0.0000 
     67 H          62.4973   10.2909   27.0516 H         1 FAD1001     0.0000 
     68 H          63.0571   11.8611   26.4508 H         1 FAD1001     0.0000 
     69 H          63.8859   12.4567   28.6636 H         1 FAD1001     0.0000 
     70 H          61.0585   11.4012   28.6612 H         1 FAD1001     0.0000 
     71 H          62.2108   13.6697   30.2734 H         1 FAD1001     0.0000 
     72 H          59.4398   12.5023   30.0954 H         1 FAD1001     0.0000 
     73 H          59.9654   14.0634   29.4424 H         1 FAD1001     0.0000 
     74 H          65.8210    4.4455   25.2935 H         1 FAD1001     0.0000 
     75 H          66.2173    4.3421   26.8487 H         1 FAD1001     0.0000 
     76 H          64.6949    4.1023   26.3892 H         1 FAD1001     0.0000 
     77 H          62.4984    5.1987   26.1794 H         1 FAD1001     0.0000 
     78 H          62.8866    5.0975   27.7367 H         1 FAD1001     0.0000 
     79 H          61.9052    6.2650   27.2269 H         1 FAD1001     0.0000 
     80 H          57.0473    9.6391   37.8743 H         1 FAD1001     0.0000 
     81 H          55.2129    7.3700   38.0204 H         1 FAD1001     0.0000 
     82 H          62.9596   10.8526   30.3671 H         1 FAD1001     0.0000 
     83 H          60.6023   13.4900   27.9265 H         1 FAD1001     0.0000 
     84 H          60.9297   11.8640   31.7498 H         1 FAD1001     0.0000 
@<TRIPOS>BOND
     1    2    1 ar   
     2    3    1 ar   
     3    4    1 1    
     4   53    1 1    
     5    5    4 1    
     6    6    5 1    
     7   54    5 1    
     8   55    5 1    
     9    7    6 1    
    10    8    6 1    
    11   56    6 1    
    12   12    7 1    
    13    9    8 1    
    14   10    8 1    
    15   57    8 1    
    16   80    9 1    
    17   11   10 1    
    18   12   10 1    
    19   58   10 1    
    20   81   11 1    
    21   13   12 1    
    22   59   12 1    
    23   14   13 1    
    24   22   13 1    
    25   15   14 2    
    26   60   14 1    
    27   16   15 1    
    28   17   16 ar   
    29   22   16 ar   
    30   18   17 1    
    31   19   17 ar   
    32   61   18 1    
    33   62   18 1    
    34   20   19 ar   
    35   21   20 ar   
    36   63   20 1    
    37   22   21 ar   
    38   24   23 1    
    39   40   23 2    
    40   25   24 2    
    41   26   24 am   
    42   27   26 am   
    43   64   26 1    
    44   28   27 2    
    45   29   27 1    
    46   30   29 2    
    47   40   29 1    
    48   31   30 1    
    49   32   31 ar   
    50   38   31 ar   
    51   33   32 ar   
    52   65   32 1    
    53   34   33 1    
    54   35   33 ar   
    55   74   34 1    
    56   75   34 1    
    57   76   34 1    
    58   36   35 1    
    59   37   35 ar   
    60   77   36 1    
    61   78   36 1    
    62   79   36 1    
    63   38   37 ar   
    64   66   37 1    
    65   39   38 1    
    66   40   39 1    
    67   41   39 1    
    68   42   41 1    
    69   67   41 1    
    70   68   41 1    
    71   43   42 1    
    72   44   42 1    
    73   69   42 1    
    74   82   43 1    
    75   45   44 1    
    76   46   44 1    
    77   70   44 1    
    78   83   45 1    
    79   47   46 1    
    80   48   46 1    
    81   71   46 1    
    82   84   47 1    
    83   49   48 1    
    84   72   48 1    
    85   73   48 1    
    86   50   49 1    
    87   51   50 ar   
    88   52   50 ar   
    89   53   50 1    
@<TRIPOS>SUBSTRUCTURE
     1 FAD1001     1 GROUP   
@<TRIPOS>SET

