#    Name: 1o0s_NAI_2_INTS_M
#    Modification time : Mon Mar 24 19:27:57 2014

@<TRIPOS>MOLECULE
1o0s_NAI_2_INTS_M
   81     0     9     0     0
SMALL
NO_CHARGES


@<TRIPOS>ATOM
      1 N          -6.8570   59.8620   67.7530 N.am      2 SEC2        0.0000 
      2 N          -6.9980   61.2110   67.2200 N.am      8 SEL2        0.0000 
      3 N          -6.7160   58.5130   68.2860 N.am      5 SEP2        0.0000 
      4 CA        -12.9425   60.3960   69.7840 C.3       3 GLC5        0.0000 
      5 CA        -11.7640   61.4300   68.3770 C.3       9 GLL5        0.0000 
      6 CA        -14.1210   59.3620   71.1910 C.3       6 GLP5        0.0000 
      7 N         -12.7035   58.7770   68.2615 N.am      2 SEC2        0.0000 
      8 N         -12.5080   59.6340   66.8750 N.am      8 SEL2        0.0000 
      9 N         -12.8990   57.9200   69.6480 N.am      5 SEP2        0.0000 
     10 CA        -14.9920   61.9670   65.3190 C.3       3 GLC5        0.0000 
     11 CA        -13.3680   61.9320   66.6780 C.3       9 GLL5        0.0000 
     12 CA        -16.6160   62.0020   63.9600 C.3       6 GLP5        0.0000 
     13 N         -15.7900   61.2390   65.9990 N.am      2 SEC2        0.0000 
     14 N         -14.1870   61.4250   65.6290 N.am      8 SEL2        0.0000 
     15 N         -17.3930   61.0530   66.3690 N.am      5 SEP2        0.0000 
     16 CA        -14.0760   60.6530   69.6150 C.3       3 GLC5        0.0000 
     17 CA        -14.0310   61.9440   68.0390 C.3       9 GLL5        0.0000 
     18 CA        -15.4115   60.5190   67.8640 C.3       3 GLC5        0.0000 
     19 CA        -16.7920   59.0940   67.6890 C.3       6 GLP5        0.0000 
     20 CA        -17.5685   60.6970   68.6835 C.3       3 GLC5        0.0000 
     21 CA        -18.3450   62.3000   69.6780 C.3       9 GLL5        0.0000 
     22 CA        -18.3195   62.1855   67.7560 C.3       3 GLC5        0.0000 
     23 CA        -18.2940   62.0710   65.8340 C.3       6 GLP5        0.0000 
     24 CA        -16.5170   61.0895   68.1950 C.3       3 GLC5        0.0000 
     25 CA        -16.2420   63.0850   68.7010 C.3       9 GLL5        0.0000 
     26 CA        -17.2680   62.5780   67.2675 C.3       3 GLC5        0.0000 
     27 CA        -15.2690   63.0650   70.5915 C.3       3 GLC5        0.0000 
     28 CA        -14.2960   63.0450   72.4820 C.3       6 GLP5        0.0000 
     29 N          -4.4810   62.1335   68.1280 N.am      2 SEC2        0.0000 
     30 N          -5.0170   62.3430   69.6190 N.am      8 SEL2        0.0000 
     31 N          -3.9450   61.9240   66.6370 N.am      5 SEP2        0.0000 
     32 N          -6.4290   59.6465   70.5460 N.am      2 SEC2        0.0000 
     33 N          -7.1310   60.8840   70.0830 N.am      8 SEL2        0.0000 
     34 N          -5.7270   58.4090   71.0090 N.am      5 SEP2        0.0000 
     35 CA         -8.9865   61.6580   73.2195 C.3       3 GLC5        0.0000 
     36 CA         -8.1000   63.2880   71.9740 C.3       9 GLL5        0.0000 
     37 CA         -9.8730   60.0280   74.4650 C.3       6 GLP5        0.0000 
     38 CA         -9.3810   62.5520   74.0810 C.3       3 GLC5        0.0000 
     39 CA         -7.9390   63.9380   73.3470 C.3       9 GLL5        0.0000 
     40 CA        -10.8230   61.1660   74.8150 C.3       6 GLP5        0.0000 
     41 N          -7.9530   66.8700   75.4570 N.am      2 SEC2        0.0000 
     42 N          -8.0770   66.3090   74.0260 N.am      8 SEL2        0.0000 
     43 N          -7.8290   67.4310   76.8880 N.am      5 SEP2        0.0000 
     44 N          -5.1430   66.1075   75.9880 N.am      2 SEC2        0.0000 
     45 N          -5.4100   66.3280   74.4860 N.am      8 SEL2        0.0000 
     46 N          -4.8760   65.8870   77.4900 N.am      5 SEP2        0.0000 
     47 CA         -7.8620   64.8545   75.9175 C.3       3 GLC5        0.0000 
     48 CA         -6.2010   64.0080   74.9110 C.3       9 GLL5        0.0000 
     49 CA         -9.5230   65.7010   76.9240 C.3       6 GLP5        0.0000 
     50 CA         -2.6980   64.7480   73.7315 C.3       3 GLC5        0.0000 
     51 CA         -3.8350   63.2010   74.5630 C.3       9 GLL5        0.0000 
     52 CA         -1.5610   66.2950   72.9000 C.3       6 GLP5        0.0000 
     53 CA         -1.5475   64.4310   75.0500 C.3       3 GLC5        0.0000 
     54 CA         -2.6320   62.5590   74.9650 C.3       9 GLL5        0.0000 
     55 CA         -0.4630   66.3030   75.1350 C.3       6 GLP5        0.0000 
     56 N          -1.1830   63.0040   71.4355 N.am      2 SEC2        0.0000 
     57 N          -1.4210   62.6090   72.8730 N.am      8 SEL2        0.0000 
     58 N          -0.9450   63.3990   69.9980 N.am      5 SEP2        0.0000 
     59 N          -0.3170   63.5200   71.9840 N.am      2 SEC2        0.0000 
     60 N           0.7870   64.4310   71.0950 N.am      5 SEP2        0.0000 
     61 O           1.0335   62.4025   73.8280 O.2       1 ALC1        0.0000 
     62 O          -0.2100   62.1450   74.5930 O.2       7 ALL1        0.0000 
     63 O           2.2770   62.6600   73.0630 O.2       4 ALP1        0.0000 
     64 CA         -6.6975   62.1295   77.6795 C.3       3 GLC5        0.0000 
     65 CA         -4.8970   62.7670   76.6300 C.3       9 GLL5        0.0000 
     66 CA         -8.4980   61.4920   78.7290 C.3       6 GLP5        0.0000 
     67 CA        -10.4013   60.0538   67.8310 C.3       3 GLC5        0.0000 
     68 CA        -10.5940   62.4260   68.4590 C.3       9 GLL5        0.0000 
     69 CA         -9.1250   58.6290   67.9840 C.3       6 GLP5        0.0000 
     70 CA        -14.3325   60.0783   66.6695 C.3       3 GLC5        0.0000 
     71 CA        -12.1760   61.0290   66.9380 C.3       9 GLL5        0.0000 
     72 CA        -15.8930   58.6760   66.5310 C.3       6 GLP5        0.0000 
     73 CA        -17.2560   64.3683   67.0980 C.3       3 GLC5        0.0000 
     74 CA        -16.7750   64.4990   68.7120 C.3       9 GLL5        0.0000 
     75 CA        -17.0480   64.1560   65.2450 C.3       6 GLP5        0.0000 
     76 CA        -17.0675   65.6912   70.1935 C.3       3 GLC5        0.0000 
     77 CA        -16.6710   66.8020   71.4360 C.3       6 GLP5        0.0000 
     78 CA         -8.5727   65.1725   75.1280 C.3       3 GLC5        0.0000 
     79 CA         -3.0241   60.3050   76.4796 C.3       3 GLC5        0.0000 
     80 CA         -3.7460   62.1010   77.1280 C.3       9 GLL5        0.0000 
     81 CA         -2.8640   58.4190   76.5820 C.3       6 GLP5        0.0000 
@<TRIPOS>BOND
@<TRIPOS>SUBSTRUCTURE
     1 ALC1       61 GROUP        1 X    ALC  0     ROOT ALC X 1
     2 SEC2        1 GROUP        1 X    SEC  0     **** SEC X 2
     3 GLC5        4 GROUP        1 X    GLC  0     **** GLC X 6
     4 ALP1       63 GROUP        1 Y    ALP  0     ROOT ALP Y 8
     5 SEP2        3 GROUP        1 Y    SEP  0     **** SEP Y 9
     6 GLP5        6 GROUP        1 Y    GLP  0     **** GLP Y 13
     7 ALL1       62 GROUP        1 Z    ALL  0     ROOT ALL Z 15
     8 SEL2        2 GROUP        1 Z    SEL  0     **** SEL Z 16
     9 GLL5        5 GROUP        1 Z    GLL  0     **** GLL Z 20
@<TRIPOS>SET

