#    Name: 1o0s_NAI_2_ligand
#    Modification time : Mon Mar 24 19:27:57 2014

@<TRIPOS>MOLECULE
1o0s_NAI_2_ligand
   71    75     1     0     0
SMALL
NO_CHARGES


@<TRIPOS>ATOM
      1 PA         -7.9860   62.3630   67.7400 P.3       1 NAI930      0.0000 
      2 O1A        -8.2970   63.3500   66.5270 O.co2     1 NAI930      0.0000 
      3 O2A        -6.9980   61.2110   67.2200 O.co2     1 NAI930      0.0000 
      4 O5B        -9.3500   61.7110   68.2890 O.3       1 NAI930      0.0000 
      5 C5B       -10.5940   62.4260   68.4590 C.3       1 NAI930      0.0000 
      6 C4B       -11.7640   61.4300   68.3770 C.3       1 NAI930      0.0000 
      7 O4B       -12.9470   61.9970   68.9890 O.3       1 NAI930      0.0000 
      8 C3B       -12.1760   61.0290   66.9380 C.3       1 NAI930      0.0000 
      9 O3B       -12.5080   59.6340   66.8750 O.3       1 NAI930      0.0000 
     10 C2B       -13.3680   61.9320   66.6780 C.3       1 NAI930      0.0000 
     11 O2B       -14.1870   61.4250   65.6290 O.3       1 NAI930      0.0000 
     12 C1B       -14.0310   61.9440   68.0390 C.3       1 NAI930      0.0000 
     13 N9A       -14.9220   63.1190   68.2100 N.pl3     1 NAI930      0.0000 
     14 C8A       -14.8100   64.4770   67.9200 C.2       1 NAI930      0.0000 
     15 N7A       -15.7870   65.3890   68.1510 N.2       1 NAI930      0.0000 
     16 C5A       -16.7750   64.4990   68.7120 C.ar      1 NAI930      0.0000 
     17 C6A       -18.1530   64.6620   69.1900 C.ar      1 NAI930      0.0000 
     18 N6A       -18.7880   65.7890   69.2660 N.pl3     1 NAI930      0.0000 
     19 N1A       -18.8570   63.5960   69.6840 N.ar      1 NAI930      0.0000 
     20 C2A       -18.3450   62.3000   69.6780 C.ar      1 NAI930      0.0000 
     21 N3A       -17.0930   61.9180   69.2750 N.ar      1 NAI930      0.0000 
     22 C4A       -16.2420   63.0850   68.7010 C.ar      1 NAI930      0.0000 
     23 O3         -7.3290   63.1910   68.8800 O.3       1 NAI930      0.0000 
     24 PN         -6.5810   62.3730   69.9740 P.3       1 NAI930      0.0000 
     25 O1N        -5.0170   62.3430   69.6190 O.co2     1 NAI930      0.0000 
     26 O2N        -7.1310   60.8840   70.0830 O.co2     1 NAI930      0.0000 
     27 O5D        -6.8050   63.1000   71.3690 O.3       1 NAI930      0.0000 
     28 C5D        -8.1000   63.2880   71.9740 C.3       1 NAI930      0.0000 
     29 C4D        -7.9390   63.9380   73.3470 C.3       1 NAI930      0.0000 
     30 O4D        -7.0710   63.1280   74.1900 O.3       1 NAI930      0.0000 
     31 C3D        -7.3060   65.3500   73.3170 C.3       1 NAI930      0.0000 
     32 O3D        -8.0770   66.3090   74.0260 O.3       1 NAI930      0.0000 
     33 C2D        -5.9280   65.1280   73.9060 C.3       1 NAI930      0.0000 
     34 O2D        -5.4100   66.3280   74.4860 O.3       1 NAI930      0.0000 
     35 C1D        -6.2010   64.0080   74.9110 C.3       1 NAI930      0.0000 
     36 N1N        -4.9260   63.2980   75.3720 N.pl3     1 NAI930      0.0000 
     37 C2N        -3.8350   63.2010   74.5630 C.2       1 NAI930      0.0000 
     38 C3N        -2.6320   62.5590   74.9650 C.2       1 NAI930      0.0000 
     39 C7N        -1.4020   62.4380   74.0920 C.2       1 NAI930      0.0000 
     40 O7N        -1.4210   62.6090   72.8730 O.2       1 NAI930      0.0000 
     41 N7N        -0.2100   62.1450   74.5930 N.am      1 NAI930      0.0000 
     42 C4N        -2.6130   62.0030   76.2880 C.3       1 NAI930      0.0000 
     43 C5N        -3.7460   62.1010   77.1280 C.2       1 NAI930      0.0000 
     44 C6N        -4.8970   62.7670   76.6300 C.2       1 NAI930      0.0000 
     45 H         -10.7372   63.1741   67.6786 H         1 NAI930      0.0000 
     46 H         -10.6438   62.9202   69.4298 H         1 NAI930      0.0000 
     47 H         -11.4890   60.5203   68.9023 H         1 NAI930      0.0000 
     48 H         -11.3844   61.3159   66.2939 H         1 NAI930      0.0000 
     49 H         -12.9822   62.9143   66.4919 H         1 NAI930      0.0000 
     50 H         -14.5805   61.0322   68.1549 H         1 NAI930      0.0000 
     51 H         -13.8944   64.8047   67.4905 H         1 NAI930      0.0000 
     52 H         -18.2918   66.5961   68.9459 H         1 NAI930      0.0000 
     53 H         -19.7154   65.7473   69.6377 H         1 NAI930      0.0000 
     54 H         -19.0088   61.5258   70.0278 H         1 NAI930      0.0000 
     55 H          -8.6202   62.3348   72.1104 H         1 NAI930      0.0000 
     56 H          -8.7357   63.9381   71.3648 H         1 NAI930      0.0000 
     57 H          -8.9112   64.0264   73.8180 H         1 NAI930      0.0000 
     58 H          -7.1737   65.5987   72.2711 H         1 NAI930      0.0000 
     59 H          -5.3122   64.7223   73.1292 H         1 NAI930      0.0000 
     60 H          -6.7089   64.4366   75.7501 H         1 NAI930      0.0000 
     61 H          -3.8582   63.6093   73.5978 H         1 NAI930      0.0000 
     62 H          -0.1662   62.0288   75.5853 H         1 NAI930      0.0000 
     63 H           0.5374   62.0668   73.9333 H         1 NAI930      0.0000 
     64 H          -1.6961   62.4318   76.8444 H         1 NAI930      0.0000 
     65 H          -2.3020   60.8936   76.2066 H         1 NAI930      0.0000 
     66 H          -3.7398   61.7095   78.0560 H         1 NAI930      0.0000 
     67 H          -5.7234   62.8397   77.2545 H         1 NAI930      0.0000 
     68 H         -11.8600   59.2432   66.2212 H         1 NAI930      0.0000 
     69 H         -14.1244   60.4302   65.7097 H         1 NAI930      0.0000 
     70 H          -8.6634   66.7315   73.3349 H         1 NAI930      0.0000 
     71 H          -6.1839   66.9611   74.5051 H         1 NAI930      0.0000 
@<TRIPOS>BOND
     1    2    1 ar   
     2    3    1 ar   
     3    4    1 1    
     4   23    1 1    
     5    5    4 1    
     6    6    5 1    
     7   45    5 1    
     8   46    5 1    
     9    7    6 1    
    10    8    6 1    
    11   47    6 1    
    12   12    7 1    
    13    9    8 1    
    14   10    8 1    
    15   48    8 1    
    16   68    9 1    
    17   11   10 1    
    18   12   10 1    
    19   49   10 1    
    20   69   11 1    
    21   13   12 1    
    22   50   12 1    
    23   14   13 1    
    24   22   13 1    
    25   15   14 2    
    26   51   14 1    
    27   16   15 1    
    28   17   16 ar   
    29   22   16 ar   
    30   18   17 1    
    31   19   17 ar   
    32   52   18 1    
    33   53   18 1    
    34   20   19 ar   
    35   21   20 ar   
    36   54   20 1    
    37   22   21 ar   
    38   24   23 1    
    39   25   24 ar   
    40   26   24 ar   
    41   27   24 1    
    42   28   27 1    
    43   29   28 1    
    44   55   28 1    
    45   56   28 1    
    46   30   29 1    
    47   31   29 1    
    48   57   29 1    
    49   35   30 1    
    50   32   31 1    
    51   33   31 1    
    52   58   31 1    
    53   70   32 1    
    54   34   33 1    
    55   35   33 1    
    56   59   33 1    
    57   71   34 1    
    58   36   35 1    
    59   60   35 1    
    60   37   36 1    
    61   44   36 1    
    62   38   37 2    
    63   61   37 1    
    64   39   38 1    
    65   42   38 1    
    66   40   39 2    
    67   41   39 am   
    68   62   41 1    
    69   63   41 1    
    70   43   42 1    
    71   64   42 1    
    72   65   42 1    
    73   44   43 2    
    74   66   43 1    
    75   67   44 1    
@<TRIPOS>SUBSTRUCTURE
     1 NAI930      1 GROUP   
@<TRIPOS>SET

