#    Name: 3SX4_2_CAVITY_N1_6.mol2
#    Modification time : Tue Mar 11 01:28:28 2014

@<TRIPOS>MOLECULE
3SX4_2_CAVITY_N1_6.mol2
   81     0     7     0     0
SMALL
NO_CHARGES


@<TRIPOS>ATOM
      1 CZ         67.6444   74.5260   76.6929 C.ar      5 PHE5        0.0000 
      2 O          66.7390   75.5988   76.1644 O.2       2 ALA2        0.0000 
      3 DU         66.5184   73.5379   76.6163 H         7 CUB7        0.0000 
      4 O          65.6130   74.6108   76.0879 O.2       2 ALA2        0.0000 
      5 DU         65.3924   72.5499   76.5398 H         7 CUB7        0.0000 
      6 OG         64.4869   73.6227   76.0114 O.2       1 SER1        0.0000 
      7 OG         63.3609   72.6346   75.9348 O.2       1 SER1        0.0000 
      8 OG         65.2101   74.9612   77.4897 O.2       1 SER1        0.0000 
      9 OG         68.2121   70.0966   66.7275 O.2       1 SER1        0.0000 
     10 OG         67.8093   70.4471   68.1293 O.2       1 SER1        0.0000 
     11 OG         66.9038   71.5199   67.6008 O.2       1 SER1        0.0000 
     12 CZ         68.4942   67.3134   69.1096 C.ar      5 PHE5        0.0000 
     13 OG         67.5887   68.3862   68.5811 O.2       1 SER1        0.0000 
     14 OG         66.6832   69.4590   68.0527 O.2       1 SER1        0.0000 
     15 OG         65.7778   70.5318   67.5243 O.2       1 SER1        0.0000 
     16 CA         67.3682   66.3254   69.0330 C.3       6 GLY6        0.0000 
     17 OG         66.4627   67.3982   68.5046 O.2       1 SER1        0.0000 
     18 OG         65.5572   68.4710   67.9762 O.2       1 SER1        0.0000 
     19 CA         66.2422   65.3373   68.9565 C.3       6 GLY6        0.0000 
     20 OD1        63.9460   69.8728   73.5832 O.3       3 ASP3        0.0000 
     21 CZ         68.9527   73.1027   75.8195 C.ar      5 PHE5        0.0000 
     22 CZ         68.0472   74.1755   75.2911 C.ar      5 PHE5        0.0000 
     23 CZ         67.1418   75.2483   74.7627 C.ar      5 PHE5        0.0000 
     24 DU         67.8267   72.1147   75.7430 H         7 CUB7        0.0000 
     25 DU         66.9212   73.1875   75.2146 H         7 CUB7        0.0000 
     26 O          66.0158   74.2603   74.6862 O.2       2 ALA2        0.0000 
     27 O          65.1103   75.3331   74.1577 O.2       2 ALA2        0.0000 
     28 N          64.8898   73.2722   74.6096 N.2       2 ALA2        0.0000 
     29 N          63.9843   74.3450   74.0812 N.2       2 ALA2        0.0000 
     30 DU         64.6692   71.2114   75.0615 H         7 CUB7        0.0000 
     31 N          63.7637   72.2842   74.5331 N.2       2 ALA2        0.0000 
     32 OG         68.5324   71.7856   69.6076 O.2       1 SER1        0.0000 
     33 OG         67.4064   70.7976   69.5310 O.2       1 SER1        0.0000 
     34 OG         66.5010   71.8704   69.0026 O.2       1 SER1        0.0000 
     35 OG         68.0914   67.6639   70.5113 O.2       1 SER1        0.0000 
     36 OG         67.1859   68.7367   69.9829 O.2       1 SER1        0.0000 
     37 DU         66.2804   69.8095   69.4545 H         7 CUB7        0.0000 
     38 OG         65.3750   70.8823   68.9261 O.2       1 SER1        0.0000 
     39 DU         66.9653   66.6758   70.4348 H         7 CUB7        0.0000 
     40 O          66.0599   67.7486   69.9064 O.2       2 ALA2        0.0000 
     41 O          65.1544   68.8214   69.3779 O.2       2 ALA2        0.0000 
     42 CA         65.8393   65.6878   70.3582 C.3       6 GLY6        0.0000 
     43 O          64.9339   66.7606   69.8298 O.2       2 ALA2        0.0000 
     44 OG         70.1611   72.0513   71.6143 O.2       1 SER1        0.0000 
     45 CZ         69.2556   73.1241   71.0858 C.ar      5 PHE5        0.0000 
     46 OG         69.9406   69.9905   72.0661 O.2       1 SER1        0.0000 
     47 OG         69.0351   71.0633   71.5377 O.2       1 SER1        0.0000 
     48 CZ         68.1296   72.1361   71.0093 C.ar      5 PHE5        0.0000 
     49 CZ         67.2242   73.2089   70.4809 C.ar      5 PHE5        0.0000 
     50 OG         67.9091   70.0752   71.4612 O.2       1 SER1        0.0000 
     51 DU         67.0036   71.1480   70.9328 H         7 CUB7        0.0000 
     52 DU         66.0982   72.2208   70.4044 H         7 CUB7        0.0000 
     53 NZ         65.1927   73.2936   69.8759 N.2       4 LYS4        0.0000 
     54 DU         66.7831   69.0872   71.3847 H         7 CUB7        0.0000 
     55 O          65.8776   70.1600   70.8562 O.2       2 ALA2        0.0000 
     56 NZ         64.9722   71.2328   70.3278 N.2       4 LYS4        0.0000 
     57 O          65.6571   68.0991   71.3081 O.2       2 ALA2        0.0000 
     58 CZ         69.7583   72.4018   73.0160 C.ar      5 PHE5        0.0000 
     59 CZ         68.8528   73.4746   72.4876 C.ar      5 PHE5        0.0000 
     60 CZ         67.9474   74.5474   71.9592 C.ar      5 PHE5        0.0000 
     61 DU         68.6323   71.4137   72.9395 H         7 CUB7        0.0000 
     62 CZ         67.7268   72.4865   72.4111 C.ar      5 PHE5        0.0000 
     63 NZ         66.8214   73.5594   71.8826 N.2       4 LYS4        0.0000 
     64 DU         67.5063   70.4257   72.8629 H         7 CUB7        0.0000 
     65 NZ         65.6954   72.5713   71.8061 N.2       4 LYS4        0.0000 
     66 NZ         64.7899   73.6441   71.2777 N.2       4 LYS4        0.0000 
     67 DU         66.3803   69.4376   72.7864 H         7 CUB7        0.0000 
     68 O          65.4748   70.5104   72.2580 O.2       2 ALA2        0.0000 
     69 NZ         64.5694   71.5832   71.7296 N.2       4 LYS4        0.0000 
     70 CZ         69.3555   72.7523   74.4178 C.ar      5 PHE5        0.0000 
     71 CZ         68.4500   73.8251   73.8894 C.ar      5 PHE5        0.0000 
     72 CZ         67.5446   74.8979   73.3609 C.ar      5 PHE5        0.0000 
     73 O          66.6391   75.9707   72.8325 O.2       2 ALA2        0.0000 
     74 DU         68.2295   71.7642   74.3412 H         7 CUB7        0.0000 
     75 DU         67.3240   72.8370   73.8128 H         7 CUB7        0.0000 
     76 DU         66.4186   73.9098   73.2844 H         7 CUB7        0.0000 
     77 NZ         65.5131   74.9826   72.7560 N.2       4 LYS4        0.0000 
     78 N          65.2926   72.9218   73.2079 N.2       2 ALA2        0.0000 
     79 N          64.3871   73.9946   72.6795 N.2       2 ALA2        0.0000 
     80 DU         65.0720   70.8609   73.6597 H         7 CUB7        0.0000 
     81 N          64.1666   71.9337   73.1313 N.2       2 ALA2        0.0000 
@<TRIPOS>BOND
@<TRIPOS>SUBSTRUCTURE
     1 SER1        6 GROUP   
     2 ALA2        2 GROUP   
     3 ASP3       20 GROUP   
     4 LYS4       53 GROUP   
     5 PHE5        1 GROUP   
     6 GLY6       16 GROUP   
     7 CUB7        3 GROUP   
@<TRIPOS>SET

