#    Name: 3sx4_KXA_2_INTS_M
#    Modification time : Mon Mar 24 18:44:51 2014

@<TRIPOS>MOLECULE
3sx4_KXA_2_INTS_M
   53     0     9     0     0
SMALL
NO_CHARGES


@<TRIPOS>ATOM
      1 CA         65.7155   69.4765   64.5970 C.3       3 GLC5        0.0000 
      2 CA         66.8070   70.3110   66.0960 C.3       9 GLL5        0.0000 
      3 CA         64.6240   68.6420   63.0980 C.3       6 GLP5        0.0000 
      4 CA         69.4310   67.7385   69.6030 C.3       3 GLC5        0.0000 
      5 CA         67.5300   68.1270   69.7910 C.3       9 GLL5        0.0000 
      6 CA         71.3320   67.3500   69.4150 C.3       6 GLP5        0.0000 
      7 CA         67.8170   67.1705   67.9985 C.3       3 GLC5        0.0000 
      8 CA         68.1040   66.2140   66.2060 C.3       6 GLP5        0.0000 
      9 CA         63.1830   72.8915   69.9800 C.3       3 GLC5        0.0000 
     10 CA         65.3770   72.6480   70.0300 C.3       9 GLL5        0.0000 
     11 CA         60.9890   73.1350   69.9300 C.3       6 GLP5        0.0000 
     12 CA         66.5515   74.0875   69.2890 C.3       3 GLC5        0.0000 
     13 CA         67.7260   75.5270   68.5480 C.3       6 GLP5        0.0000 
     14 OD1        63.0650   71.8190   69.8480 O.co2     2 ASC3        0.0000 
     15 OD1        64.0200   72.5940   69.5680 O.co2     8 ASL3        0.0000 
     16 OD1        62.1100   71.0440   70.1280 O.co2     5 ASP3        0.0000 
     17 OD1        64.1630   74.2575   69.8845 O.co2     2 ASC3        0.0000 
     18 OD1        64.3060   75.9210   70.2010 O.co2     5 ASP3        0.0000 
     19 OD1        63.7630   73.7740   68.9790 O.co2     2 ASC3        0.0000 
     20 OD1        63.5060   74.9540   68.3900 O.co2     5 ASP3        0.0000 
     21 O          63.0650   71.8190   69.8480 O.2       1 ALC1        0.0000 
     22 O          64.0200   72.5940   69.5680 O.2       7 ALL1        0.0000 
     23 O          62.1100   71.0440   70.1280 O.2       4 ALP1        0.0000 
     24 O          64.1630   74.2575   69.8845 O.2       1 ALC1        0.0000 
     25 O          64.3060   75.9210   70.2010 O.2       4 ALP1        0.0000 
     26 O          63.7630   73.7740   68.9790 O.2       1 ALC1        0.0000 
     27 O          63.5060   74.9540   68.3900 O.2       4 ALP1        0.0000 
     28 O          64.0960   72.3455   67.9490 O.2       1 ALC1        0.0000 
     29 O          64.1720   72.0970   66.3300 O.2       4 ALP1        0.0000 
     30 CA         70.4060   71.5140   64.8380 C.3       3 GLC5        0.0000 
     31 CA         68.5350   71.3550   64.3760 C.3       9 GLL5        0.0000 
     32 CA         72.2770   71.6730   65.3000 C.3       6 GLP5        0.0000 
     33 CA         67.9880   71.0260   62.5825 C.3       3 GLC5        0.0000 
     34 CA         67.4410   70.6970   60.7890 C.3       6 GLP5        0.0000 
     35 CA         69.6045   72.4525   63.4615 C.3       3 GLC5        0.0000 
     36 CA         70.6740   73.5500   62.5470 C.3       6 GLP5        0.0000 
     37 CA         66.9745   72.5355   64.7220 C.3       3 GLC5        0.0000 
     38 CA         65.4140   73.7160   65.0680 C.3       6 GLP5        0.0000 
     39 CA         69.0040   73.2675   65.4085 C.3       3 GLC5        0.0000 
     40 CA         69.4730   75.1800   66.4410 C.3       6 GLP5        0.0000 
     41 CA         64.7390   70.9105   66.3830 C.3       3 GLC5        0.0000 
     42 CA         64.9630   69.1640   67.6530 C.3       9 GLL5        0.0000 
     43 CA         64.5150   72.6570   65.1130 C.3       6 GLP5        0.0000 
     44 CA         64.5785   67.3905   67.2535 C.3       3 GLC5        0.0000 
     45 CA         64.1940   65.6170   66.8540 C.3       6 GLP5        0.0000 
     46 CA         69.2155   62.6110   68.3473 C.3       3 GLC5        0.0000 
     47 CA         68.2110   63.7740   69.6260 C.3       9 GLL5        0.0000 
     48 CA         69.6840   61.6260   66.6660 C.3       6 GLP5        0.0000 
     49 CA         68.0072   65.3020   67.9497 C.3       3 GLC5        0.0000 
     50 CA         70.0005   70.3595   66.2627 C.3       3 GLC5        0.0000 
     51 CA         67.9380   71.0940   65.9480 C.3       9 GLL5        0.0000 
     52 CA         71.7280   69.3320   66.0400 C.3       6 GLP5        0.0000 
     53 CA         67.3397   68.2138   66.4745 C.3       3 GLC5        0.0000 
@<TRIPOS>BOND
@<TRIPOS>SUBSTRUCTURE
     1 ALC1       21 GROUP        1 X    ALC  0     ROOT ALC X 1
     2 ASC3       14 GROUP        1 X    ASC  0     **** ASC X 3
     3 GLC5        1 GROUP        1 X    GLC  0     **** GLC X 6
     4 ALP1       23 GROUP        1 Y    ALP  0     ROOT ALP Y 8
     5 ASP3       16 GROUP        1 Y    ASP  0     **** ASP Y 10
     6 GLP5        3 GROUP        1 Y    GLP  0     **** GLP Y 13
     7 ALL1       22 GROUP        1 Z    ALL  0     ROOT ALL Z 15
     8 ASL3       15 GROUP        1 Z    ASL  0     **** ASL Z 17
     9 GLL5        2 GROUP        1 Z    GLL  0     **** GLL Z 20
@<TRIPOS>SET

