#    Name: 3sx4_KXA_2_ligand
#    Modification time : Mon Mar 24 18:44:51 2014

@<TRIPOS>MOLECULE
3sx4_KXA_2_ligand
   49    52     1     0     0
SMALL
NO_CHARGES


@<TRIPOS>ATOM
      1 C01        68.2110   63.7740   69.6260 C.ar      1 KXA2        0.0000 
      2 C02        69.2830   63.4180   70.4310 C.ar      1 KXA2        0.0000 
      3 C03        68.1220   71.4620   68.3040 C.ar      1 KXA2        0.0000 
      4 C04        67.6100   65.0060   69.7610 C.ar      1 KXA2        0.0000 
      5 C05        69.7650   64.2950   71.3860 C.ar      1 KXA2        0.0000 
      6 C06        68.6080   71.6800   67.0230 C.ar      1 KXA2        0.0000 
      7 C07        66.8070   70.3110   66.0960 C.ar      1 KXA2        0.0000 
      8 C08        66.9780   70.6920   68.4730 C.ar      1 KXA2        0.0000 
      9 C09        66.4900   70.4350   69.8060 C.ar      1 KXA2        0.0000 
     10 C10        66.7700   69.2270   70.3580 C.ar      1 KXA2        0.0000 
     11 C11        65.7300   71.3040   70.5700 C.ar      1 KXA2        0.0000 
     12 C12        68.0790   65.8960   70.7370 C.ar      1 KXA2        0.0000 
     13 C13        69.1640   65.5390   71.5370 C.ar      1 KXA2        0.0000 
     14 C14        67.9380   71.0940   65.9480 C.ar      1 KXA2        0.0000 
     15 C15        66.3440   70.1160   67.3900 C.ar      1 KXA2        0.0000 
     16 C16        66.3140   68.9170   71.6330 C.ar      1 KXA2        0.0000 
     17 C17        65.3110   70.9060   71.8480 C.ar      1 KXA2        0.0000 
     18 C18        66.7590   67.5560   72.0020 C.2       1 KXA2        0.0000 
     19 C19        67.5300   68.1270   69.7910 C.3       1 KXA2        0.0000 
     20 C20        64.5140   71.7890   72.7170 C.3       1 KXA2        0.0000 
     21 C21        69.9600   65.8340   73.6780 C.3       1 KXA2        0.0000 
     22 C22        65.3770   72.6480   70.0300 C.3       1 KXA2        0.0000 
     23 N23        65.5900   69.6970   72.4210 N.ar      1 KXA2        0.0000 
     24 N24        67.4790   67.1460   70.8580 N.am      1 KXA2        0.0000 
     25 N25        64.0200   72.5940   69.5680 N.4       1 KXA2        0.0000 
     26 O26        66.5550   66.9430   73.0220 O.2       1 KXA2        0.0000 
     27 O27        69.5850   66.4390   72.4610 O.3       1 KXA2        0.0000 
     28 CL1        68.5350   71.3550   64.3760 Cl        1 KXA2        0.0000 
     29 CL2        64.9630   69.1640   67.6530 Cl        1 KXA2        0.0000 
     30 H          67.8621   63.1038   68.9177 H         1 KXA2        0.0000 
     31 H          69.7237   62.4904   70.3152 H         1 KXA2        0.0000 
     32 H          68.5998   71.8632   69.1153 H         1 KXA2        0.0000 
     33 H          66.8275   65.2794   69.1595 H         1 KXA2        0.0000 
     34 H          70.5594   64.0321   71.9794 H         1 KXA2        0.0000 
     35 H          69.4338   72.2534   66.8667 H         1 KXA2        0.0000 
     36 H          66.3395   69.9004   65.3028 H         1 KXA2        0.0000 
     37 H          68.5402   68.4253   69.5977 H         1 KXA2        0.0000 
     38 H          67.0527   67.7529   68.9083 H         1 KXA2        0.0000 
     39 H          66.0620   72.8943   69.2169 H         1 KXA2        0.0000 
     40 H          65.4961   73.3903   70.8212 H         1 KXA2        0.0000 
     41 H          64.9949   72.6417   72.9211 H         1 KXA2        0.0000 
     42 H          63.6425   72.0379   72.2944 H         1 KXA2        0.0000 
     43 H          64.3018   71.3553   73.5927 H         1 KXA2        0.0000 
     44 H          70.7070   65.1810   73.5534 H         1 KXA2        0.0000 
     45 H          70.2691   66.5086   74.3484 H         1 KXA2        0.0000 
     46 H          69.2002   65.3343   74.0940 H         1 KXA2        0.0000 
     47 H          63.3862   72.3563   70.3041 H         1 KXA2        0.0000 
     48 H          63.7196   73.4717   69.1945 H         1 KXA2        0.0000 
     49 H          63.9001   71.9121   68.8464 H         1 KXA2        0.0000 
@<TRIPOS>BOND
     1    2    1 ar   
     2    4    1 ar   
     3   30    1 1    
     4    5    2 ar   
     5   31    2 1    
     6    6    3 ar   
     7    8    3 ar   
     8   32    3 1    
     9   12    4 ar   
    10   33    4 1    
    11   13    5 ar   
    12   34    5 1    
    13   14    6 ar   
    14   35    6 1    
    15   14    7 ar   
    16   15    7 ar   
    17   36    7 1    
    18    9    8 1    
    19   15    8 ar   
    20   10    9 ar   
    21   11    9 ar   
    22   16   10 ar   
    23   19   10 1    
    24   17   11 ar   
    25   22   11 1    
    26   13   12 ar   
    27   24   12 1    
    28   27   13 1    
    29   28   14 1    
    30   29   15 1    
    31   18   16 1    
    32   23   16 ar   
    33   20   17 1    
    34   23   17 ar   
    35   24   18 am   
    36   26   18 2    
    37   24   19 1    
    38   37   19 1    
    39   38   19 1    
    40   41   20 1    
    41   42   20 1    
    42   43   20 1    
    43   27   21 1    
    44   44   21 1    
    45   45   21 1    
    46   46   21 1    
    47   25   22 1    
    48   39   22 1    
    49   40   22 1    
    50   47   25 1    
    51   48   25 1    
    52   49   25 1    
@<TRIPOS>SUBSTRUCTURE
     1 KXA2        1 GROUP   
@<TRIPOS>SET

