#    Name: 3q4u_LDN_2_INTS_M
#    Modification time : Tue Mar 25 08:53:32 2014

@<TRIPOS>MOLECULE
3q4u_LDN_2_INTS_M
   61     0     6     0     0
SMALL
NO_CHARGES


@<TRIPOS>ATOM
      1 CA         22.5570   20.0040   15.8175 C.3       2 GLC5        0.0000 
      2 CA         21.4160   18.8530   14.3950 C.3       6 GLL5        0.0000 
      3 CA         23.6980   21.1550   17.2400 C.3       4 GLP5        0.0000 
      4 CA         19.7745   14.3095   12.8165 C.3       2 GLC5        0.0000 
      5 CA         18.3200   15.3240   13.8700 C.3       6 GLL5        0.0000 
      6 CA         21.2290   13.2950   11.7630 C.3       4 GLP5        0.0000 
      7 CA         17.3430   13.7865   14.8170 C.3       2 GLC5        0.0000 
      8 CA         16.3660   12.2490   15.7640 C.3       4 GLP5        0.0000 
      9 CA         16.1335   14.6100   15.0190 C.3       2 GLC5        0.0000 
     10 CA         17.2070   16.1980   13.9040 C.3       6 GLL5        0.0000 
     11 CA         15.0600   13.0220   16.1340 C.3       4 GLP5        0.0000 
     12 CA         14.8610   23.1695    9.9480 C.3       2 GLC5        0.0000 
     13 CA         15.6140   24.1650   11.5840 C.3       6 GLL5        0.0000 
     14 CA         14.1080   22.1740    8.3120 C.3       4 GLP5        0.0000 
     15 CA         13.7275   22.9125   10.2585 C.3       2 GLC5        0.0000 
     16 CA         13.3470   23.6510   12.2050 C.3       6 GLL5        0.0000 
     17 CA         11.5955   23.7855   13.5795 C.3       2 GLC5        0.0000 
     18 CA          9.8440   23.9200   14.9540 C.3       4 GLP5        0.0000 
     19 CA         16.4690   29.2925   12.1975 C.3       2 GLC5        0.0000 
     20 CA         14.5180   29.3490   11.3070 C.3       6 GLL5        0.0000 
     21 CA         18.4200   29.2360   13.0880 C.3       4 GLP5        0.0000 
     22 N          12.9600   19.6485   15.5315 N.am      1 SEC2        0.0000 
     23 N          14.3510   19.2970   14.7660 N.am      5 SEL2        0.0000 
     24 N          11.5690   20.0000   16.2970 N.am      3 SEP2        0.0000 
     25 CA         20.7632   18.4735   16.1995 C.3       2 GLC5        0.0000 
     26 CA         20.3850   19.7930   14.4750 C.3       6 GLL5        0.0000 
     27 CA         20.6260   17.6240   17.9640 C.3       4 GLP5        0.0000 
     28 CA         22.8630   17.0835   15.1247 C.3       2 GLC5        0.0000 
     29 CA         24.4520   15.9900   15.9350 C.3       4 GLP5        0.0000 
     30 CA         18.8253   19.7218   16.0772 C.3       2 GLC5        0.0000 
     31 CA         17.9240   19.8700   17.7430 C.3       4 GLP5        0.0000 
     32 CA         17.7022   15.6970   15.6700 C.3       2 GLC5        0.0000 
     33 CA         17.6410   15.6330   17.4530 C.3       4 GLP5        0.0000 
     34 CA         16.8972   17.2685   12.0523 C.3       2 GLC5        0.0000 
     35 CA         16.4940   17.6640   10.1410 C.3       4 GLP5        0.0000 
     36 CA         15.4552   16.4315   13.3517 C.3       2 GLC5        0.0000 
     37 CA         17.3940   17.5480   14.0230 C.3       6 GLL5        0.0000 
     38 CA         13.6100   15.9900   12.7400 C.3       4 GLP5        0.0000 
     39 CA         20.5470   17.4550   16.0643 C.3       2 GLC5        0.0000 
     40 CA         19.8040   17.0710   14.0950 C.3       6 GLL5        0.0000 
     41 CA         19.7670   18.1505   16.1122 C.3       2 GLC5        0.0000 
     42 CA         18.7480   18.0000   14.1730 C.3       6 GLL5        0.0000 
     43 CA         14.8555   23.4610   13.9477 C.3       2 GLC5        0.0000 
     44 CA         15.1480   21.9920   12.5000 C.3       6 GLL5        0.0000 
     45 CA         14.9320   25.2780   14.9270 C.3       4 GLP5        0.0000 
     46 CA         15.8765   21.7225   14.6893 C.3       2 GLC5        0.0000 
     47 CA         16.9740   21.8010   16.4100 C.3       4 GLP5        0.0000 
     48 CA         14.6135   21.6550   10.7659 C.3       2 GLC5        0.0000 
     49 CA         14.4100   21.2960   13.4370 C.3       6 GLL5        0.0000 
     50 CA         14.4980   20.8660    9.0150 C.3       4 GLP5        0.0000 
     51 CA         17.9975   18.8220   15.9205 C.3       2 GLC5        0.0000 
     52 CA         16.3295   18.3302   11.9655 C.3       2 GLC5        0.0000 
     53 CA         16.2500   18.4050   14.1210 C.3       6 GLL5        0.0000 
     54 CA         14.8875   17.4933   13.2650 C.3       2 GLC5        0.0000 
     55 CA         16.0800   19.5880   13.4590 C.3       6 GLL5        0.0000 
     56 CA         16.5695   20.3987   15.1000 C.3       2 GLC5        0.0000 
     57 CA         19.1575   17.4008   11.9775 C.3       2 GLC5        0.0000 
     58 CA         19.0390   17.2660    9.8210 C.3       4 GLP5        0.0000 
     59 CA         18.2892   16.5277   15.7748 C.3       2 GLC5        0.0000 
     60 CA         14.6119   24.9130   13.3094 C.3       2 GLC5        0.0000 
     61 CA         14.6790   23.2440   12.0650 C.3       6 GLL5        0.0000 
@<TRIPOS>BOND
@<TRIPOS>SUBSTRUCTURE
     1 SEC2       22 GROUP        1 X    SEC  0     ROOT SEC X 2
     2 GLC5        1 GROUP        1 X    GLC  0     **** GLC X 6
     3 SEP2       24 GROUP        1 Y    SEP  0     ROOT SEP Y 9
     4 GLP5        3 GROUP        1 Y    GLP  0     **** GLP Y 13
     5 SEL2       23 GROUP        1 Z    SEL  0     ROOT SEL Z 16
     6 GLL5        2 GROUP        1 Z    GLL  0     **** GLL Z 20
@<TRIPOS>SET

