#    Name: 3q4u_LDN_2_ligand
#    Modification time : Tue Mar 25 08:53:33 2014

@<TRIPOS>MOLECULE
3q4u_LDN_2_ligand
   52    57     1     0     0
SMALL
NO_CHARGES


@<TRIPOS>ATOM
      1 CAA        21.4160   18.8530   14.3950 C.ar      1 LDN1        0.0000 
      2 CAB        20.3850   19.7930   14.4750 C.ar      1 LDN1        0.0000 
      3 CAC        18.3200   15.3240   13.8700 C.ar      1 LDN1        0.0000 
      4 CAD        17.2070   16.1980   13.9040 C.ar      1 LDN1        0.0000 
      5 CAE        15.6140   24.1650   11.5840 C.ar      1 LDN1        0.0000 
      6 CAF        13.3470   23.6510   12.2050 C.ar      1 LDN1        0.0000 
      7 CAG        15.2280   25.4500   11.1880 C.ar      1 LDN1        0.0000 
      8 CAH        12.9730   24.9540   11.8290 C.ar      1 LDN1        0.0000 
      9 CAI        21.1320   17.5010   14.2340 C.ar      1 LDN1        0.0000 
     10 CAJ        19.0680   19.3540   14.3480 C.ar      1 LDN1        0.0000 
     11 CAK        16.3820   21.4680   12.0860 C.2       1 LDN1        0.0000 
     12 CAL        15.1740   18.2270   14.9240 C.2       1 LDN1        0.0000 
     13 CAM        14.4100   21.2960   13.4370 C.2       1 LDN1        0.0000 
     14 CAN        12.2180   28.8620   11.9990 C.3       1 LDN1        0.0000 
     15 CAO        14.5180   29.3490   11.3070 C.3       1 LDN1        0.0000 
     16 CAP        12.1630   27.6220   11.0950 C.3       1 LDN1        0.0000 
     17 CAQ        14.5580   28.1060   10.4120 C.3       1 LDN1        0.0000 
     18 NAR        19.5720   15.7680   13.9730 N.ar      1 LDN1        0.0000 
     19 NAS        16.8200   20.2880   12.5370 N.2       1 LDN1        0.0000 
     20 NAT        14.3510   19.2970   14.7660 N.2       1 LDN1        0.0000 
     21 NAU        13.1350   29.8690   11.4200 N.4       1 LDN1        0.0000 
     22 CAV        14.6790   23.2440   12.0650 C.ar      1 LDN1        0.0000 
     23 CAW        15.1480   21.9920   12.5000 C.2       1 LDN1        0.0000 
     24 CAX        13.9070   25.8380   11.2990 C.ar      1 LDN1        0.0000 
     25 CAY        17.3940   17.5480   14.0230 C.ar      1 LDN1        0.0000 
     26 CAZ        16.2500   18.4050   14.1210 C.2       1 LDN1        0.0000 
     27 CBA        19.8040   17.0710   14.0950 C.ar      1 LDN1        0.0000 
     28 CBB        18.7480   18.0000   14.1730 C.ar      1 LDN1        0.0000 
     29 CBC        16.0800   19.5880   13.4590 C.2       1 LDN1        0.0000 
     30 NBD        13.5440   27.1460   10.9070 N.3       1 LDN1        0.0000 
     31 NBE        14.8710   20.0870   13.9470 N.pl3     1 LDN1        0.0000 
     32 H          22.3965   19.1679   14.4563 H         1 LDN1        0.0000 
     33 H          20.5931   20.7777   14.6230 H         1 LDN1        0.0000 
     34 H          18.1155   14.3011   13.7591 H         1 LDN1        0.0000 
     35 H          16.2614   15.7954   13.8375 H         1 LDN1        0.0000 
     36 H          16.6094   23.8919   11.5195 H         1 LDN1        0.0000 
     37 H          12.6470   23.0068   12.5784 H         1 LDN1        0.0000 
     38 H          15.9329   26.0992   10.8157 H         1 LDN1        0.0000 
     39 H          11.9930   25.2507   11.9505 H         1 LDN1        0.0000 
     40 H          21.8932   16.8111   14.2161 H         1 LDN1        0.0000 
     41 H          18.2956   20.0502   14.3837 H         1 LDN1        0.0000 
     42 H          16.9470   22.0317   11.4131 H         1 LDN1        0.0000 
     43 H          15.0176   17.4779   15.5037 H         1 LDN1        0.0000 
     44 H          13.5049   21.6739   13.7656 H         1 LDN1        0.0000 
     45 H          12.5611   28.5530   12.9861 H         1 LDN1        0.0000 
     46 H          11.2103   29.2671   12.0887 H         1 LDN1        0.0000 
     47 H          15.1768   30.1069   10.8754 H         1 LDN1        0.0000 
     48 H          14.9057   29.0779   12.2924 H         1 LDN1        0.0000 
     49 H          11.7184   27.9053   10.1512 H         1 LDN1        0.0000 
     50 H          11.5563   26.8705   11.5805 H         1 LDN1        0.0000 
     51 H          15.5500   27.6749   10.4621 H         1 LDN1        0.0000 
     52 H          14.3382   28.4045    9.3947 H         1 LDN1        0.0000 
@<TRIPOS>BOND
     1    2    1 ar   
     2    9    1 ar   
     3   32    1 1    
     4   10    2 ar   
     5   33    2 1    
     6    4    3 ar   
     7   18    3 ar   
     8   34    3 1    
     9   25    4 ar   
    10   35    4 1    
    11    7    5 ar   
    12   22    5 ar   
    13   36    5 1    
    14    8    6 ar   
    15   22    6 ar   
    16   37    6 1    
    17   24    7 ar   
    18   38    7 1    
    19   24    8 ar   
    20   39    8 1    
    21   27    9 ar   
    22   40    9 1    
    23   28   10 ar   
    24   41   10 1    
    25   19   11 2    
    26   23   11 1    
    27   42   11 1    
    28   20   12 2    
    29   26   12 1    
    30   43   12 1    
    31   23   13 2    
    32   31   13 1    
    33   44   13 1    
    34   16   14 1    
    35   21   14 1    
    36   45   14 1    
    37   46   14 1    
    38   17   15 1    
    39   21   15 1    
    40   47   15 1    
    41   48   15 1    
    42   30   16 1    
    43   49   16 1    
    44   50   16 1    
    45   30   17 1    
    46   51   17 1    
    47   52   17 1    
    48   27   18 ar   
    49   29   19 1    
    50   31   20 1    
    51   23   22 1    
    52   30   24 1    
    53   26   25 1    
    54   28   25 ar   
    55   29   26 2    
    56   28   27 ar   
    57   31   29 1    
@<TRIPOS>SUBSTRUCTURE
     1 LDN1        1 GROUP   
@<TRIPOS>SET

