#    Name: 3bo5_SAH_1_INTS_M
#    Modification time : Mon Mar 24 19:55:41 2014

@<TRIPOS>MOLECULE
3bo5_SAH_1_INTS_M
   67     0     9     0     0
SMALL
NO_CHARGES


@<TRIPOS>ATOM
      1 O          19.0580   12.2555   18.9590 O.2       1 ALC1        0.0000 
      2 O          20.3870   12.4830   18.6330 O.2       7 ALL1        0.0000 
      3 O          17.7290   12.0280   19.2850 O.2       4 ALP1        0.0000 
      4 CA         22.9245   10.6710   17.6755 C.3       3 GLC5        0.0000 
      5 CA         21.0120   11.1210   18.6380 C.3       9 GLL5        0.0000 
      6 CA         24.8370   10.2210   16.7130 C.3       6 GLP5        0.0000 
      7 CA         23.5580    8.8035   20.1140 C.3       3 GLC5        0.0000 
      8 CA         23.5480   10.4340   20.5540 C.3       9 GLL5        0.0000 
      9 CA         23.5680    7.1730   19.6740 C.3       6 GLP5        0.0000 
     10 N          18.5645   11.5710   16.6150 N.am      2 SEC2        0.0000 
     11 N          19.7270   10.8570   16.6110 N.am      8 SEL2        0.0000 
     12 N          17.4020   12.2850   16.6190 N.am      5 SEP2        0.0000 
     13 N          21.8345    8.2890   17.3670 N.am      2 SEC2        0.0000 
     14 N          20.6870    9.0650   17.4180 N.am      8 SEL2        0.0000 
     15 N          22.9820    7.5130   17.3160 N.am      5 SEP2        0.0000 
     16 CA         24.8795   12.7790   22.4215 C.3       3 GLC5        0.0000 
     17 CA         24.3840   12.0260   20.6950 C.3       9 GLL5        0.0000 
     18 CA         25.3750   13.5320   24.1480 C.3       6 GLP5        0.0000 
     19 CA         24.5100   11.5905   18.1085 C.3       3 GLC5        0.0000 
     20 CA         24.1830   12.9600   19.5040 C.3       9 GLL5        0.0000 
     21 CA         26.7785   14.0685   20.7050 C.3       3 GLC5        0.0000 
     22 CA         25.1370   14.1180   19.4910 C.3       9 GLL5        0.0000 
     23 CA         28.4200   14.0190   21.9190 C.3       6 GLP5        0.0000 
     24 N          27.0560   12.1620   18.6610 N.am      2 SEC2        0.0000 
     25 N          26.3990   13.7410   18.8740 N.am      8 SEL2        0.0000 
     26 N          27.7130   10.5830   18.4480 N.am      5 SEP2        0.0000 
     27 N          21.9475   15.6485   23.9270 N.am      2 SEC2        0.0000 
     28 N          22.1950   16.1710   22.5570 N.am      8 SEL2        0.0000 
     29 N          21.7000   15.1260   25.2970 N.am      5 SEP2        0.0000 
     30 CA         20.7680   15.9735   22.6395 C.3       3 GLC5        0.0000 
     31 CA         22.2670   17.3380   21.8840 C.3       9 GLL5        0.0000 
     32 CA         19.2690   14.6090   23.3950 C.3       6 GLP5        0.0000 
     33 CA         22.7015   20.1755   23.5675 C.3       3 GLC5        0.0000 
     34 CA         22.1170   18.6710   22.3220 C.3       9 GLL5        0.0000 
     35 CA         23.2860   21.6800   24.8130 C.3       6 GLP5        0.0000 
     36 O          21.3020   18.3870   24.7475 O.2       1 ALC1        0.0000 
     37 O          21.7510   19.0640   23.5440 O.2       7 ALL1        0.0000 
     38 O          20.8530   17.7100   25.9510 O.2       4 ALP1        0.0000 
     39 N          22.1285   21.0630   21.6135 N.am      2 SEC2        0.0000 
     40 N          22.3330   19.6310   21.3380 N.am      8 SEL2        0.0000 
     41 N          21.9240   22.4950   21.8890 N.am      5 SEP2        0.0000 
     42 CA         20.8175   18.9910   20.0855 C.3       3 GLC5        0.0000 
     43 CA         22.6670   19.2990   20.0620 C.3       9 GLL5        0.0000 
     44 CA         18.9680   18.6830   20.1090 C.3       6 GLP5        0.0000 
     45 CA         23.4755   20.8620   21.2260 C.3       3 GLC5        0.0000 
     46 CA         24.2840   22.4250   22.3900 C.3       6 GLP5        0.0000 
     47 CA         21.3625   20.9940   20.1515 C.3       3 GLC5        0.0000 
     48 CA         20.0580   22.6890   20.2410 C.3       6 GLP5        0.0000 
     49 CA         24.4645   18.4875   20.6305 C.3       3 GLC5        0.0000 
     50 CA         26.2620   17.6760   21.1990 C.3       6 GLP5        0.0000 
     51 CA         20.7735   17.1780   20.0170 C.3       3 GLC5        0.0000 
     52 CA         22.6530   17.0780   20.5660 C.3       9 GLL5        0.0000 
     53 CA         18.8940   17.2780   19.4680 C.3       6 GLP5        0.0000 
     54 CA         24.4575   17.3770   20.8825 C.3       3 GLC5        0.0000 
     55 CA         22.4540    8.9162   20.0847 C.3       3 GLC5        0.0000 
     56 CA         21.8570   10.9250   21.0000 C.3       9 GLL5        0.0000 
     57 CA         20.0240    9.2838   21.2958 C.3       3 GLC5        0.0000 
     58 CA         20.8230   10.3940   19.9910 C.3       9 GLL5        0.0000 
     59 CA         18.7080    7.9080   22.0960 C.3       6 GLP5        0.0000 
     60 CA         24.4015   10.7255   18.6687 C.3       3 GLC5        0.0000 
     61 CA         25.5190   16.1602   20.1478 C.3       3 GLC5        0.0000 
     62 CA         20.3580   18.3223   21.8435 C.3       3 GLC5        0.0000 
     63 CA         18.5240   18.6400   21.5840 C.3       6 GLP5        0.0000 
     64 CA         22.8930   17.2332   23.9955 C.3       3 GLC5        0.0000 
     65 CA         23.5940   16.4620   25.8880 C.3       6 GLP5        0.0000 
     66 CA         23.6770   18.3453   22.6930 C.3       3 GLC5        0.0000 
     67 CA         25.1620   18.6860   23.2830 C.3       6 GLP5        0.0000 
@<TRIPOS>BOND
@<TRIPOS>SUBSTRUCTURE
     1 ALC1        1 GROUP        1 X    ALC  0     ROOT ALC X 1
     2 SEC2       10 GROUP        1 X    SEC  0     **** SEC X 2
     3 GLC5        4 GROUP        1 X    GLC  0     **** GLC X 6
     4 ALP1        3 GROUP        1 Y    ALP  0     ROOT ALP Y 8
     5 SEP2       12 GROUP        1 Y    SEP  0     **** SEP Y 9
     6 GLP5        6 GROUP        1 Y    GLP  0     **** GLP Y 13
     7 ALL1        2 GROUP        1 Z    ALL  0     ROOT ALL Z 15
     8 SEL2       11 GROUP        1 Z    SEL  0     **** SEL Z 16
     9 GLL5        5 GROUP        1 Z    GLL  0     **** GLL Z 20
@<TRIPOS>SET

