#    Name: 3bo5_SAH_1_ligand
#    Modification time : Mon Mar 24 19:55:41 2014

@<TRIPOS>MOLECULE
3bo5_SAH_1_ligand
   45    47     1     0     0
SMALL
NO_CHARGES


@<TRIPOS>ATOM
      1 N          20.3870   12.4830   18.6330 N.4       1 SAH305      0.0000 
      2 CA         21.0120   11.1210   18.6380 C.3       1 SAH305      0.0000 
      3 CB         20.8230   10.3940   19.9910 C.3       1 SAH305      0.0000 
      4 CG         21.8570   10.9250   21.0000 C.3       1 SAH305      0.0000 
      5 SD         23.5480   10.4340   20.5540 S.3       1 SAH305      0.0000 
      6 C          20.4250   10.3110   17.4600 C.2       1 SAH305      0.0000 
      7 O          19.7270   10.8570   16.6110 O.co2     1 SAH305      0.0000 
      8 OXT        20.6870    9.0650   17.4180 O.co2     1 SAH305      0.0000 
      9 C5'        24.3840   12.0260   20.6950 C.3       1 SAH305      0.0000 
     10 C4'        24.1830   12.9600   19.5040 C.3       1 SAH305      0.0000 
     11 O4'        22.8940   13.5790   19.5420 O.3       1 SAH305      0.0000 
     12 C3'        25.1370   14.1180   19.4910 C.3       1 SAH305      0.0000 
     13 O3'        26.3990   13.7410   18.8740 O.3       1 SAH305      0.0000 
     14 C2'        24.4150   15.1710   18.7020 C.3       1 SAH305      0.0000 
     15 O2'        24.3370   14.8400   17.3030 O.3       1 SAH305      0.0000 
     16 C1'        23.0020   14.9780   19.2160 C.3       1 SAH305      0.0000 
     17 N9         22.7410   15.7060   20.4740 N.pl3     1 SAH305      0.0000 
     18 C8         22.4520   15.1770   21.7290 C.2       1 SAH305      0.0000 
     19 N7         22.1950   16.1710   22.5570 N.2       1 SAH305      0.0000 
     20 C5         22.2670   17.3380   21.8840 C.ar      1 SAH305      0.0000 
     21 C6         22.1170   18.6710   22.3220 C.ar      1 SAH305      0.0000 
     22 N6         21.7510   19.0640   23.5440 N.pl3     1 SAH305      0.0000 
     23 N1         22.3330   19.6310   21.3380 N.ar      1 SAH305      0.0000 
     24 C2         22.6670   19.2990   20.0620 C.ar      1 SAH305      0.0000 
     25 N3         22.8000   18.0110   19.5840 N.ar      1 SAH305      0.0000 
     26 C4         22.6530   17.0780   20.5660 C.ar      1 SAH305      0.0000 
     27 H          22.0826   11.2269   18.4549 H         1 SAH305      0.0000 
     28 H          20.9723    9.3356   19.8472 H         1 SAH305      0.0000 
     29 H          19.8284   10.5879   20.3603 H         1 SAH305      0.0000 
     30 H          21.7465   10.5105   21.9769 H         1 SAH305      0.0000 
     31 H          21.9230   11.9898   21.0175 H         1 SAH305      0.0000 
     32 H          25.4168   11.7352   20.8393 H         1 SAH305      0.0000 
     33 H          23.9806   12.4204   21.6190 H         1 SAH305      0.0000 
     34 H          24.3027   12.4088   18.5881 H         1 SAH305      0.0000 
     35 H          25.2623   14.4642   20.4925 H         1 SAH305      0.0000 
     36 H          24.7353   16.1070   18.9224 H         1 SAH305      0.0000 
     37 H          22.3062   15.2392   18.4678 H         1 SAH305      0.0000 
     38 H          22.4510   14.2304   21.9192 H         1 SAH305      0.0000 
     39 H          22.8424   20.0949   19.3665 H         1 SAH305      0.0000 
     40 H          19.5921   12.5290   19.2381 H         1 SAH305      0.0000 
     41 H          21.0285   13.1871   18.9376 H         1 SAH305      0.0000 
     42 H          20.0757   12.7455   17.7197 H         1 SAH305      0.0000 
     43 H          26.2562   13.8707   17.8928 H         1 SAH305      0.0000 
     44 H          23.5337   14.2500   17.2212 H         1 SAH305      0.0000 
     45 H          21.5109   18.2212   24.0257 H         1 SAH305      0.0000 
@<TRIPOS>BOND
     1    2    1 1    
     2   40    1 1    
     3   41    1 1    
     4   42    1 1    
     5    3    2 1    
     6    6    2 1    
     7   27    2 1    
     8    4    3 1    
     9   28    3 1    
    10   29    3 1    
    11    5    4 1    
    12   30    4 1    
    13   31    4 1    
    14    9    5 1    
    15    7    6 ar   
    16    8    6 ar   
    17   10    9 1    
    18   32    9 1    
    19   33    9 1    
    20   11   10 1    
    21   12   10 1    
    22   34   10 1    
    23   16   11 1    
    24   13   12 1    
    25   14   12 1    
    26   35   12 1    
    27   43   13 1    
    28   15   14 1    
    29   16   14 1    
    30   36   14 1    
    31   44   15 1    
    32   17   16 1    
    33   37   16 1    
    34   18   17 1    
    35   26   17 1    
    36   19   18 2    
    37   38   18 1    
    38   20   19 1    
    39   21   20 ar   
    40   26   20 ar   
    41   22   21 1    
    42   23   21 ar   
    43   45   22 1    
    44   24   23 ar   
    45   25   24 ar   
    46   39   24 1    
    47   26   25 ar   
@<TRIPOS>SUBSTRUCTURE
     1 SAH305      1 GROUP   
@<TRIPOS>SET

