#    Name: 4az0_S61_1_INTS_M
#    Modification time : Tue Mar 25 06:23:05 2014

@<TRIPOS>MOLECULE
4az0_S61_1_INTS_M
   69     0     6     0     0
SMALL
NO_CHARGES


@<TRIPOS>ATOM
      1 CA        -37.3895   10.9275   15.5170 C.3       2 GLC5        0.0000 
      2 CA        -36.2270    9.5390   15.4780 C.3       6 GLL5        0.0000 
      3 CA        -38.5520   12.3160   15.5560 C.3       4 GLP5        0.0000 
      4 CA        -38.0175    8.5105   15.4350 C.3       2 GLC5        0.0000 
      5 CA        -39.8080    7.4820   15.3920 C.3       4 GLP5        0.0000 
      6 CA        -35.5590   10.7665   13.7440 C.3       2 GLC5        0.0000 
      7 CA        -34.8910   11.9940   12.0100 C.3       4 GLP5        0.0000 
      8 CA        -34.2065   11.3645   14.0000 C.3       2 GLC5        0.0000 
      9 CA        -33.5220   10.7350   15.9900 C.3       6 GLL5        0.0000 
     10 CA        -30.3375   11.9675   16.2240 C.3       2 GLC5        0.0000 
     11 CA        -32.0720   11.2100   15.7410 C.3       6 GLL5        0.0000 
     12 CA        -28.6030   12.7250   16.7070 C.3       4 GLP5        0.0000 
     13 CA        -31.4505   10.2000   17.6090 C.3       2 GLC5        0.0000 
     14 CA        -30.8290    9.1900   19.4770 C.3       4 GLP5        0.0000 
     15 CA        -31.6880   12.7220   14.6485 C.3       2 GLC5        0.0000 
     16 CA        -31.3040   14.2340   13.5560 C.3       4 GLP5        0.0000 
     17 N         -29.7660    9.1475   13.9960 N.am      1 SEC2        0.0000 
     18 N         -30.3230   10.3620   14.3520 N.am      5 SEL2        0.0000 
     19 N         -29.2090    7.9330   13.6400 N.am      3 SEP2        0.0000 
     20 N         -29.3340   10.9275   15.1610 N.am      1 SEC2        0.0000 
     21 N         -28.3450   11.4930   15.9700 N.am      3 SEP2        0.0000 
     22 N         -30.9405    9.8745   12.8095 N.am      1 SEC2        0.0000 
     23 N         -31.5580    9.3870   11.2670 N.am      3 SEP2        0.0000 
     24 N         -31.9195   10.0905   12.3420 N.am      1 SEC2        0.0000 
     25 N         -32.2810   10.7940   13.4170 N.am      5 SEL2        0.0000 
     26 N         -36.6115   13.0235   16.4950 N.am      1 SEC2        0.0000 
     27 N         -34.9970   13.2620   16.1840 N.am      5 SEL2        0.0000 
     28 N         -38.2260   12.7850   16.8060 N.am      3 SEP2        0.0000 
     29 CA        -33.0010   13.2845   19.0540 C.3       2 GLC5        0.0000 
     30 CA        -34.9970   13.1500   18.5480 C.3       6 GLL5        0.0000 
     31 CA        -31.0050   13.4190   19.5600 C.3       4 GLP5        0.0000 
     32 CA        -33.6900   11.5340   19.3080 C.3       2 GLC5        0.0000 
     33 CA        -32.3830    9.9180   20.0680 C.3       4 GLP5        0.0000 
     34 CA        -36.6315   11.6320   18.7555 C.3       2 GLC5        0.0000 
     35 CA        -38.2660   10.1140   18.9630 C.3       4 GLP5        0.0000 
     36 CA        -32.3790   12.8455   21.0745 C.3       2 GLC5        0.0000 
     37 CA        -33.7530   12.2720   22.5890 C.3       6 GLL5        0.0000 
     38 CA        -36.7180   10.0855   21.4925 C.3       2 GLC5        0.0000 
     39 CA        -36.0910   11.7630   22.6290 C.3       6 GLL5        0.0000 
     40 CA        -37.3450    8.4080   20.3560 C.3       4 GLP5        0.0000 
     41 CA        -38.2725   10.8635   21.0760 C.3       2 GLC5        0.0000 
     42 CA        -37.3000   11.8050   22.0260 C.3       6 GLL5        0.0000 
     43 CA        -39.2450    9.9220   20.1260 C.3       4 GLP5        0.0000 
     44 CA        -36.4469    8.5545   17.4473 C.3       2 GLC5        0.0000 
     45 CA        -37.4430    8.8740   18.9420 C.3       4 GLP5        0.0000 
     46 CA        -32.1737    5.3792   16.1805 C.3       2 GLC5        0.0000 
     47 CA        -34.2180    6.5230   16.5810 C.3       6 GLL5        0.0000 
     48 CA        -30.7530    3.9710   15.6720 C.3       4 GLP5        0.0000 
     49 CA        -33.6098    5.5938   18.0810 C.3       2 GLC5        0.0000 
     50 CA        -32.9710    7.0520   16.7970 C.3       6 GLL5        0.0000 
     51 CA        -33.6250    4.4000   19.4730 C.3       4 GLP5        0.0000 
     52 CA        -31.8457    8.4600   18.0913 C.3       2 GLC5        0.0000 
     53 CA        -33.3671    7.9739   18.6382 C.3       2 GLC5        0.0000 
     54 CA        -32.7540    8.4080   16.6140 C.3       6 GLL5        0.0000 
     55 CA        -33.5600    8.3500   20.6250 C.3       4 GLP5        0.0000 
     56 CA        -33.0185    9.9562   18.0832 C.3       2 GLC5        0.0000 
     57 CA        -33.7860    9.2540   16.2070 C.3       6 GLL5        0.0000 
     58 CA        -33.9695   10.3453   22.3547 C.3       2 GLC5        0.0000 
     59 CA        -33.5660    8.3940   22.4380 C.3       4 GLP5        0.0000 
     60 CA        -33.1945   10.9569   21.5644 C.3       2 GLC5        0.0000 
     61 CA        -33.6390   11.6950   23.8500 C.3       6 GLL5        0.0000 
     62 CA        -33.8795    9.9110   23.3030 C.3       2 GLC5        0.0000 
     63 CA        -33.9915   11.2185   26.0955 C.3       2 GLC5        0.0000 
     64 CA        -33.7900   11.0090   28.0230 C.3       4 GLP5        0.0000 
     65 CA        -33.2553   13.0331   24.7209 C.3       2 GLC5        0.0000 
     66 CA        -34.7470   11.1610   24.4860 C.3       6 GLL5        0.0000 
     67 CA        -32.2890   14.4940   25.5890 C.3       4 GLP5        0.0000 
     68 CA        -34.8030    9.9350   22.8443 C.3       2 GLC5        0.0000 
     69 CA        -35.9890   11.1890   23.8720 C.3       6 GLL5        0.0000 
@<TRIPOS>BOND
@<TRIPOS>SUBSTRUCTURE
     1 SEC2       17 GROUP        1 X    SEC  0     ROOT SEC X 2
     2 GLC5        1 GROUP        1 X    GLC  0     **** GLC X 6
     3 SEP2       19 GROUP        1 Y    SEP  0     ROOT SEP Y 9
     4 GLP5        3 GROUP        1 Y    GLP  0     **** GLP Y 13
     5 SEL2       18 GROUP        1 Z    SEL  0     ROOT SEL Z 16
     6 GLL5        2 GROUP        1 Z    GLL  0     **** GLL Z 20
@<TRIPOS>SET

