#    Name: 4az0_S61_1_ligand
#    Modification time : Tue Mar 25 06:23:05 2014

@<TRIPOS>MOLECULE
4az0_S61_1_ligand
   45    47     1     0     0
SMALL
NO_CHARGES


@<TRIPOS>ATOM
      1 C26       -36.2270    9.5390   15.4780 C.3       1 S611262     0.0000 
      2 C25       -35.0660    8.7130   15.9760 C.ar      1 S611262     0.0000 
      3 C24       -35.2550    7.3440   16.1780 C.ar      1 S611262     0.0000 
      4 C23       -34.2180    6.5230   16.5810 C.ar      1 S611262     0.0000 
      5 C22       -32.9710    7.0520   16.7970 C.ar      1 S611262     0.0000 
      6 C21       -32.7540    8.4080   16.6140 C.ar      1 S611262     0.0000 
      7 C20       -33.7860    9.2540   16.2070 C.ar      1 S611262     0.0000 
      8 C16       -33.5220   10.7350   15.9900 C.3       1 S611262     0.0000 
      9 C17       -32.0720   11.2100   15.7410 C.3       1 S611262     0.0000 
     10 C18       -31.4710   10.7410   14.4370 C.2       1 S611262     0.0000 
     11 O27       -30.3230   10.3620   14.3520 O.co2     1 S611262     0.0000 
     12 O19       -32.2810   10.7940   13.4170 O.co2     1 S611262     0.0000 
     13 N15       -34.0680   11.4350   17.1510 N.am      1 S611262     0.0000 
     14 C14       -34.7000   12.6190   17.1910 C.2       1 S611262     0.0000 
     15 O28       -34.9970   13.2620   16.1840 O.2       1 S611262     0.0000 
     16 C10       -34.9970   13.1500   18.5480 C.2       1 S611262     0.0000 
     17 N9        -34.7850   12.2670   19.5470 N.pl3     1 S611262     0.0000 
     18 C11       -35.4520   14.3870   19.0370 C.2       1 S611262     0.0000 
     19 C12       -35.5280   14.2680   20.4140 C.2       1 S611262     0.0000 
     20 O13       -35.8900   15.0890   21.4200 O.2       1 S611262     0.0000 
     21 N7        -35.1130   12.9690   20.6940 N.am      1 S611262     0.0000 
     22 C5        -34.9930   12.3210   21.9540 C.ar      1 S611262     0.0000 
     23 C4        -33.7530   12.2720   22.5890 C.ar      1 S611262     0.0000 
     24 C3        -33.6390   11.6950   23.8500 C.ar      1 S611262     0.0000 
     25 C2        -34.7470   11.1610   24.4860 C.ar      1 S611262     0.0000 
     26 C1        -35.9890   11.1890   23.8720 C.ar      1 S611262     0.0000 
     27 C6        -36.0910   11.7630   22.6290 C.ar      1 S611262     0.0000 
     28 F8        -37.3000   11.8050   22.0260 F         1 S611262     0.0000 
     29 H         -36.1989    6.9389   16.0202 H         1 S611262     0.0000 
     30 H         -34.3870    5.5140   16.7178 H         1 S611262     0.0000 
     31 H         -32.1912    6.4457   17.0956 H         1 S611262     0.0000 
     32 H         -31.8116    8.8044   16.7810 H         1 S611262     0.0000 
     33 H         -34.1299   11.0557   15.1127 H         1 S611262     0.0000 
     34 H         -31.4463   10.8612   16.5828 H         1 S611262     0.0000 
     35 H         -32.0609   12.3147   15.7768 H         1 S611262     0.0000 
     36 H         -33.9222   10.8927   18.0811 H         1 S611262     0.0000 
     37 H         -34.4875   11.3855   19.4982 H         1 S611262     0.0000 
     38 H         -35.6604   15.1399   18.5195 H         1 S611262     0.0000 
     39 H         -32.9235   12.6625   22.1247 H         1 S611262     0.0000 
     40 H         -32.7157   11.6661   24.3147 H         1 S611262     0.0000 
     41 H         -34.6477   10.7392   25.4235 H         1 S611262     0.0000 
     42 H         -36.8056   10.7905   24.3381 H         1 S611262     0.0000 
     43 H         -35.9786   10.5016   15.3700 H         1 S611262     0.0000 
     44 H         -36.5558    9.2196   14.5893 H         1 S611262     0.0000 
     45 H         -37.0036    9.5055   16.1072 H         1 S611262     0.0000 
@<TRIPOS>BOND
     1    2    1 1    
     2   43    1 1    
     3   44    1 1    
     4   45    1 1    
     5    3    2 ar   
     6    7    2 ar   
     7    4    3 ar   
     8   29    3 1    
     9    5    4 ar   
    10   30    4 1    
    11    6    5 ar   
    12   31    5 1    
    13    7    6 ar   
    14   32    6 1    
    15    8    7 1    
    16    9    8 1    
    17   13    8 1    
    18   33    8 1    
    19   10    9 1    
    20   34    9 1    
    21   35    9 1    
    22   11   10 ar   
    23   12   10 ar   
    24   14   13 am   
    25   36   13 1    
    26   15   14 2    
    27   16   14 1    
    28   17   16 1    
    29   18   16 2    
    30   21   17 1    
    31   37   17 1    
    32   19   18 1    
    33   38   18 1    
    34   20   19 2    
    35   21   19 am   
    36   22   21 1    
    37   23   22 ar   
    38   27   22 ar   
    39   24   23 ar   
    40   39   23 1    
    41   25   24 ar   
    42   40   24 1    
    43   26   25 ar   
    44   41   25 1    
    45   27   26 ar   
    46   42   26 1    
    47   28   27 1    
@<TRIPOS>SUBSTRUCTURE
     1 S611262     1 GROUP   
@<TRIPOS>SET

