#    Name: 2XPK_2_CAVITY_N1_6.mol2
#    Modification time : Tue Mar 11 00:19:55 2014

@<TRIPOS>MOLECULE
2XPK_2_CAVITY_N1_6.mol2
  110     0     7     0     0
SMALL
NO_CHARGES


@<TRIPOS>ATOM
      1 N          32.0115   46.7667   14.7360 N.2       2 ALA2        0.0000 
      2 OG         30.9864   47.3252   15.6779 O.2       1 SER1        0.0000 
      3 CA         30.2016   47.8503   14.5123 C.3       6 GLY6        0.0000 
      4 N          32.2729   44.9188   13.7274 N.2       2 ALA2        0.0000 
      5 N          31.2478   45.4774   14.6693 N.2       2 ALA2        0.0000 
      6 OG         30.2226   46.0359   15.6112 O.2       1 SER1        0.0000 
      7 N          31.4881   45.4440   12.5619 N.2       2 ALA2        0.0000 
      8 DU         30.4630   46.0025   13.5038 H         7 CUB7        0.0000 
      9 N          29.4379   46.5611   14.4457 N.2       2 ALA2        0.0000 
     10 DU         29.6783   46.5277   12.3383 H         7 CUB7        0.0000 
     11 CZ         34.1674   41.5958   22.5376 C.ar      5 PHE5        0.0000 
     12 CZ         33.1422   42.1544   23.4794 C.ar      5 PHE5        0.0000 
     13 NZ         33.3826   42.1210   21.3720 N.2       4 LYS4        0.0000 
     14 OD1        32.3575   42.6795   22.3139 O.3       3 ASP3        0.0000 
     15 N          31.3324   43.2381   23.2558 N.2       2 ALA2        0.0000 
     16 CZ         31.5727   43.2046   21.1484 C.ar      5 PHE5        0.0000 
     17 CA         32.2939   43.1044   14.8262 C.3       6 GLY6        0.0000 
     18 NZ         31.2688   43.6630   15.7681 N.2       4 LYS4        0.0000 
     19 OG         30.2436   44.2215   16.7100 O.2       1 SER1        0.0000 
     20 CZ         29.2185   44.7800   17.6519 C.ar      5 PHE5        0.0000 
     21 DU         30.4840   44.1881   14.6026 H         7 CUB7        0.0000 
     22 N          29.4589   44.7466   15.5445 N.2       2 ALA2        0.0000 
     23 CA         30.7244   44.1547   12.4952 C.3       6 GLY6        0.0000 
     24 DU         29.6993   44.7132   13.4371 H         7 CUB7        0.0000 
     25 N          28.6742   45.2718   14.3790 N.2       2 ALA2        0.0000 
     26 CA         29.9397   44.6798   11.3297 C.3       6 GLY6        0.0000 
     27 DU         28.9145   45.2384   12.2716 H         7 CUB7        0.0000 
     28 N          27.8894   45.7969   13.2135 N.2       2 ALA2        0.0000 
     29 N          27.1047   46.3220   12.0480 N.2       2 ALA2        0.0000 
     30 O          33.4036   40.3065   22.4709 O.2       2 ALA2        0.0000 
     31 N          32.3785   40.8651   23.4128 N.2       2 ALA2        0.0000 
     32 CA         32.6189   40.8317   21.3054 C.3       6 GLY6        0.0000 
     33 N          31.5938   41.3902   22.2472 N.2       2 ALA2        0.0000 
     34 NZ         30.5686   41.9488   23.1891 N.2       4 LYS4        0.0000 
     35 NZ         31.8341   41.3568   20.1399 N.2       4 LYS4        0.0000 
     36 CZ         30.8090   41.9154   21.0817 C.ar      5 PHE5        0.0000 
     37 NZ         29.7839   42.4739   22.0236 N.2       4 LYS4        0.0000 
     38 NZ         32.0745   41.3234   18.0325 N.2       4 LYS4        0.0000 
     39 NZ         31.0494   41.8819   18.9743 N.2       4 LYS4        0.0000 
     40 CZ         30.0243   42.4405   19.9162 C.ar      5 PHE5        0.0000 
     41 NZ         33.3401   40.7315   14.9832 N.2       4 LYS4        0.0000 
     42 NZ         32.3149   41.2900   15.9251 N.2       4 LYS4        0.0000 
     43 NZ         31.2898   41.8485   16.8670 N.2       4 LYS4        0.0000 
     44 NZ         30.2647   42.4071   17.8088 N.2       4 LYS4        0.0000 
     45 CZ         29.2395   42.9656   18.7507 C.ar      5 PHE5        0.0000 
     46 CA         32.5553   41.2566   13.8177 C.3       6 GLY6        0.0000 
     47 CA         31.5302   41.8151   14.7596 C.3       6 GLY6        0.0000 
     48 NZ         30.5050   42.3737   15.7014 N.2       4 LYS4        0.0000 
     49 NZ         29.4799   42.9322   16.6433 N.2       4 LYS4        0.0000 
     50 CA         28.4548   43.4908   17.5852 C.3       6 GLY6        0.0000 
     51 CA         30.7454   42.3403   13.5941 C.3       6 GLY6        0.0000 
     52 DU         29.7203   42.8988   14.5359 H         7 CUB7        0.0000 
     53 N          28.6952   43.4573   15.4778 N.2       2 ALA2        0.0000 
     54 CA         27.6700   44.0159   16.4197 C.3       6 GLY6        0.0000 
     55 CA         29.9607   42.8654   12.4285 C.3       6 GLY6        0.0000 
     56 DU         28.9356   43.4239   13.3704 H         7 CUB7        0.0000 
     57 N          27.9104   43.9825   14.3123 N.2       2 ALA2        0.0000 
     58 N          26.8853   44.5410   15.2542 N.2       2 ALA2        0.0000 
     59 CA         29.1759   43.3905   11.2630 C.3       6 GLY6        0.0000 
     60 CA         28.1508   43.9491   12.2049 C.3       6 GLY6        0.0000 
     61 CA         27.1257   44.5076   13.1468 C.3       6 GLY6        0.0000 
     62 N          26.1006   45.0661   14.0887 N.2       2 ALA2        0.0000 
     63 CA         31.8552   39.5424   21.2387 C.3       6 GLY6        0.0000 
     64 O          30.8300   40.1009   22.1806 O.2       2 ALA2        0.0000 
     65 NZ         29.8049   40.6595   23.1224 N.2       4 LYS4        0.0000 
     66 CA         32.0955   39.5090   19.1313 C.3       6 GLY6        0.0000 
     67 CA         31.0704   40.0675   20.0732 C.3       6 GLY6        0.0000 
     68 DU         30.0453   40.6261   21.0151 H         7 CUB7        0.0000 
     69 NZ         29.0202   41.1846   21.9569 N.2       4 LYS4        0.0000 
     70 OG         32.3359   39.4756   17.0239 O.2       1 SER1        0.0000 
     71 OG         31.3108   40.0341   17.9658 O.2       1 SER1        0.0000 
     72 CZ         30.2857   40.5927   18.9077 C.ar      5 PHE5        0.0000 
     73 DU         29.2605   41.1512   19.8495 H         7 CUB7        0.0000 
     74 NZ         28.2354   41.7097   20.7914 N.2       4 LYS4        0.0000 
     75 N          31.5512   40.0007   15.8584 N.2       2 ALA2        0.0000 
     76 DU         30.5261   40.5593   16.8003 H         7 CUB7        0.0000 
     77 DU         29.5009   41.1178   17.7422 H         7 CUB7        0.0000 
     78 CA         28.4758   41.6763   18.6840 C.3       6 GLY6        0.0000 
     79 N          30.7664   40.5258   14.6929 N.2       2 ALA2        0.0000 
     80 DU         29.7413   41.0844   15.6348 H         7 CUB7        0.0000 
     81 DU         28.7162   41.6429   16.5766 H         7 CUB7        0.0000 
     82 CA         27.6911   42.2015   17.5185 C.3       6 GLY6        0.0000 
     83 N          29.9817   41.0510   13.5274 N.2       2 ALA2        0.0000 
     84 DU         28.9566   41.6095   14.4693 H         7 CUB7        0.0000 
     85 DU         27.9314   42.1681   15.4111 H         7 CUB7        0.0000 
     86 N          26.9063   42.7266   16.3530 N.2       2 ALA2        0.0000 
     87 N          29.1970   41.5761   12.3619 N.2       2 ALA2        0.0000 
     88 CA         28.1718   42.1346   13.3037 C.3       6 GLY6        0.0000 
     89 CA         27.1467   42.6932   14.2456 C.3       6 GLY6        0.0000 
     90 N          26.1216   43.2517   15.1875 N.2       2 ALA2        0.0000 
     91 CA         30.0663   38.8116   22.1139 C.3       6 GLY6        0.0000 
     92 CZ         30.3067   38.7782   20.0065 C.ar      5 PHE5        0.0000 
     93 CZ         29.2816   39.3368   20.9484 C.ar      5 PHE5        0.0000 
     94 NZ         28.2564   39.8953   21.8903 N.2       4 LYS4        0.0000 
     95 N          31.5722   38.1863   16.9572 N.2       2 ALA2        0.0000 
     96 CZ         30.5471   38.7448   17.8991 C.ar      5 PHE5        0.0000 
     97 CZ         28.4968   39.8619   19.7829 C.ar      5 PHE5        0.0000 
     98 CZ         29.7623   39.2700   16.7336 C.ar      5 PHE5        0.0000 
     99 CZ         28.7372   39.8285   17.6755 C.ar      5 PHE5        0.0000 
    100 CZ         27.7121   40.3870   18.6174 C.ar      5 PHE5        0.0000 
    101 N          28.9776   39.7951   15.5681 N.2       2 ALA2        0.0000 
    102 CZ         27.9525   40.3536   16.5100 C.ar      5 PHE5        0.0000 
    103 CA         26.9273   40.9122   17.4518 C.3       6 GLY6        0.0000 
    104 N          29.2180   39.7617   13.4607 N.2       2 ALA2        0.0000 
    105 N          28.1928   40.3202   14.4026 N.2       2 ALA2        0.0000 
    106 N          27.1677   40.8788   15.3445 N.2       2 ALA2        0.0000 
    107 CA         27.4081   40.8454   13.2371 C.3       6 GLY6        0.0000 
    108 CZ         28.2139   38.5058   15.5014 C.ar      5 PHE5        0.0000 
    109 CZ         26.1636   39.6229   17.3852 C.ar      5 PHE5        0.0000 
    110 CZ         26.4040   39.5895   15.2778 C.ar      5 PHE5        0.0000 
@<TRIPOS>BOND
@<TRIPOS>SUBSTRUCTURE
     1 SER1        2 GROUP   
     2 ALA2        1 GROUP   
     3 ASP3       14 GROUP   
     4 LYS4       13 GROUP   
     5 PHE5       11 GROUP   
     6 GLY6        3 GROUP   
     7 CUB7        8 GROUP   
@<TRIPOS>SET

