#    Name: 2xpk_Z0M_2_INTS_M
#    Modification time : Tue Mar 25 06:30:32 2014

@<TRIPOS>MOLECULE
2xpk_Z0M_2_INTS_M
   79     0     9     0     0
SMALL
NO_CHARGES


@<TRIPOS>ATOM
      1 CA         37.4730   39.3555   21.2645 C.3       3 GLC5        0.0000 
      2 CA         37.1190   40.3550   22.6910 C.3       9 GLL5        0.0000 
      3 CA         37.8270   38.3560   19.8380 C.3       6 GLP5        0.0000 
      4 CA         37.2655   42.6740   20.6420 C.3       3 GLC5        0.0000 
      5 CA         36.6200   41.6310   22.0220 C.3       9 GLL5        0.0000 
      6 CA         37.9110   43.7170   19.2620 C.3       6 GLP5        0.0000 
      7 CA         36.5670   40.1205   20.7325 C.3       3 GLC5        0.0000 
      8 CA         36.5140   38.6100   19.4430 C.3       6 GLP5        0.0000 
      9 CA         36.1470   41.7640   23.9310 C.3       3 GLC5        0.0000 
     10 CA         35.6740   41.8970   25.8400 C.3       6 GLP5        0.0000 
     11 N          33.9115   39.3110   23.0605 N.am      2 SEC2        0.0000 
     12 N          34.5270   40.4350   22.1940 N.am      8 SEL2        0.0000 
     13 N          33.2960   38.1870   23.9270 N.am      5 SEP2        0.0000 
     14 O          35.2530   43.5305   21.0460 O.2       1 ALC1        0.0000 
     15 O          34.4640   42.5900   21.4540 O.2       7 ALL1        0.0000 
     16 O          36.0420   44.4710   20.6380 O.2       4 ALP1        0.0000 
     17 CA         33.7785   43.0390   24.0975 C.3       3 GLC5        0.0000 
     18 CA         32.3260   42.8820   22.6840 C.3       9 GLL5        0.0000 
     19 CA         35.2310   43.1960   25.5110 C.3       6 GLP5        0.0000 
     20 N          33.3090   45.1320   22.5600 N.am      2 SEC2        0.0000 
     21 N          32.2250   44.2770   22.9320 N.am      8 SEL2        0.0000 
     22 N          34.3930   45.9870   22.1880 N.am      5 SEP2        0.0000 
     23 O          32.3270   44.9305   24.0310 O.2       1 ALC1        0.0000 
     24 O          32.2250   44.2770   22.9320 O.2       7 ALL1        0.0000 
     25 O          32.4290   45.5840   25.1300 O.2       4 ALP1        0.0000 
     26 CA         29.9145   43.8750   21.8595 C.3       3 GLC5        0.0000 
     27 CA         30.9170   42.3120   22.7330 C.3       9 GLL5        0.0000 
     28 CA         28.9120   45.4380   20.9860 C.3       6 GLP5        0.0000 
     29 N          30.8955   42.1975   25.3525 N.am      2 SEC2        0.0000 
     30 N          30.3760   42.5360   24.0300 N.am      8 SEL2        0.0000 
     31 N          31.4150   41.8590   26.6750 N.am      5 SEP2        0.0000 
     32 O          29.1230   43.0285   23.9935 O.2       1 ALC1        0.0000 
     33 O          30.3760   42.5360   24.0300 O.2       7 ALL1        0.0000 
     34 O          27.8700   43.5210   23.9570 O.2       4 ALP1        0.0000 
     35 CA         29.6715   37.8770   22.7205 C.3       3 GLC5        0.0000 
     36 CA         29.6420   40.0590   22.6320 C.3       9 GLL5        0.0000 
     37 CA         29.7010   35.6950   22.8090 C.3       6 GLP5        0.0000 
     38 CA         27.9305   39.1365   22.8960 C.3       3 GLC5        0.0000 
     39 CA         26.2190   38.2140   23.1600 C.3       6 GLP5        0.0000 
     40 O          27.7635   41.1710   22.6360 O.2       1 ALC1        0.0000 
     41 O          28.6400   40.7080   21.8700 O.2       7 ALL1        0.0000 
     42 O          26.8870   41.6340   23.4020 O.2       4 ALP1        0.0000 
     43 CA         32.6445   39.4440   20.3865 C.3       3 GLC5        0.0000 
     44 CA         32.3480   41.5920   20.4380 C.3       9 GLL5        0.0000 
     45 CA         32.9410   37.2960   20.3350 C.3       6 GLP5        0.0000 
     46 O          33.3740   41.9770   18.3035 O.2       1 ALC1        0.0000 
     47 O          32.4970   41.2720   19.1510 O.2       7 ALL1        0.0000 
     48 O          34.2510   42.6820   17.4560 O.2       4 ALP1        0.0000 
     49 CA         32.2470   38.4180   18.9115 C.3       3 GLC5        0.0000 
     50 CA         31.5530   39.5400   17.4880 C.3       9 GLL5        0.0000 
     51 CA         29.9970   38.3880   18.3090 C.3       3 GLC5        0.0000 
     52 CA         28.4410   37.2360   19.1300 C.3       6 GLP5        0.0000 
     53 CA         26.4995   41.3500   13.7115 C.3       3 GLC5        0.0000 
     54 CA         27.8050   40.9130   15.4080 C.3       9 GLL5        0.0000 
     55 CA         25.1940   41.7870   12.0150 C.3       6 GLP5        0.0000 
     56 CA         29.2020   38.7255   14.1170 C.3       3 GLC5        0.0000 
     57 CA         29.0900   40.3970   15.5110 C.3       9 GLL5        0.0000 
     58 CA         29.3140   37.0540   12.7230 C.3       6 GLP5        0.0000 
     59 CA         40.4025   41.3390   22.6115 C.3       3 GLC5        0.0000 
     60 CA         38.8990   40.3450   23.0280 C.3       9 GLL5        0.0000 
     61 CA         41.9060   42.3330   22.1950 C.3       6 GLP5        0.0000 
     62 CA         39.6005   39.5915   21.3785 C.3       3 GLC5        0.0000 
     63 CA         40.3020   38.8380   19.7290 C.3       6 GLP5        0.0000 
     64 CA         40.7020   40.3395   24.3610 C.3       3 GLC5        0.0000 
     65 CA         42.5050   40.3340   25.6940 C.3       6 GLP5        0.0000 
     66 CA         37.4955   38.7480   23.0577 C.3       3 GLC5        0.0000 
     67 CA         36.9820   37.1460   23.2560 C.3       6 GLP5        0.0000 
     68 CA         37.5265   40.9710   24.4727 C.3       3 GLC5        0.0000 
     69 CA         37.0440   41.5920   26.0860 C.3       6 GLP5        0.0000 
     70 CA         31.2967   44.0585   21.0130 C.3       3 GLC5        0.0000 
     71 CA         32.9950   42.7100   21.3040 C.3       9 GLL5        0.0000 
     72 CA         29.9330   45.3210   20.0320 C.3       6 GLP5        0.0000 
     73 CA         33.1833   44.7785   21.5425 C.3       3 GLC5        0.0000 
     74 CA         33.7060   46.7610   21.0910 C.3       6 GLP5        0.0000 
     75 CA         32.1423   38.6900   19.8730 C.3       3 GLC5        0.0000 
     76 CA         31.6770   40.2570   18.8540 C.3       9 GLL5        0.0000 
     77 CA         27.0590   43.8050   17.2572 C.3       3 GLC5        0.0000 
     78 CA         28.4910   42.8300   16.7360 C.3       9 GLL5        0.0000 
     79 CA         26.1150   45.1320   18.1360 C.3       6 GLP5        0.0000 
@<TRIPOS>BOND
@<TRIPOS>SUBSTRUCTURE
     1 ALC1       14 GROUP        1 X    ALC  0     ROOT ALC X 1
     2 SEC2       11 GROUP        1 X    SEC  0     **** SEC X 2
     3 GLC5        1 GROUP        1 X    GLC  0     **** GLC X 6
     4 ALP1       16 GROUP        1 Y    ALP  0     ROOT ALP Y 8
     5 SEP2       13 GROUP        1 Y    SEP  0     **** SEP Y 9
     6 GLP5        3 GROUP        1 Y    GLP  0     **** GLP Y 13
     7 ALL1       15 GROUP        1 Z    ALL  0     ROOT ALL Z 15
     8 SEL2       12 GROUP        1 Z    SEL  0     **** SEL Z 16
     9 GLL5        2 GROUP        1 Z    GLL  0     **** GLL Z 20
@<TRIPOS>SET

