#    Name: 2xpk_Z0M_2_ligand
#    Modification time : Tue Mar 25 06:30:32 2014

@<TRIPOS>MOLECULE
2xpk_Z0M_2_ligand
   52    54     1     0     0
SMALL
NO_CHARGES


@<TRIPOS>ATOM
      1 CAZ        37.1190   40.3550   22.6910 C.3       1 Z0M1625     0.0000 
      2 CAN        36.6200   41.6310   22.0220 C.3       1 Z0M1625     0.0000 
      3 CAL        35.0850   41.5060   21.9100 C.2       1 Z0M1625     0.0000 
      4 OAM        34.5270   40.4350   22.1940 O.2       1 Z0M1625     0.0000 
      5 NAK        34.4640   42.5900   21.4540 N.am      1 Z0M1625     0.0000 
      6 CAB        32.3260   42.8820   22.6840 C.3       1 Z0M1625     0.0000 
      7 OAG        32.2250   44.2770   22.9320 O.3       1 Z0M1625     0.0000 
      8 CAA        30.9170   42.3120   22.7330 C.3       1 Z0M1625     0.0000 
      9 OAH        30.3760   42.5360   24.0300 O.3       1 Z0M1625     0.0000 
     10 CAF        30.9700   40.8130   22.3880 C.3       1 Z0M1625     0.0000 
     11 CAI        29.6420   40.0590   22.6320 C.3       1 Z0M1625     0.0000 
     12 OAJ        28.6400   40.7080   21.8700 O.3       1 Z0M1625     0.0000 
     13 NAE        31.3830   40.7130   20.9630 N.pl3     1 Z0M1625     0.0000 
     14 CAQ        31.0100   39.9110   19.9680 C.2       1 Z0M1625     0.0000 
     15 CAD        32.3480   41.5920   20.4380 C.2       1 Z0M1625     0.0000 
     16 NAO        32.4970   41.2720   19.1510 N.pl3     1 Z0M1625     0.0000 
     17 CAP        31.6770   40.2570   18.8540 C.2       1 Z0M1625     0.0000 
     18 CAR        31.5530   39.5400   17.4880 C.3       1 Z0M1625     0.0000 
     19 CAS        31.4930   40.5230   16.3190 C.3       1 Z0M1625     0.0000 
     20 CAT        30.0790   41.0910   16.2120 C.ar      1 Z0M1625     0.0000 
     21 CAU        29.7760   42.3100   16.8350 C.ar      1 Z0M1625     0.0000 
     22 CAV        28.4910   42.8300   16.7360 C.ar      1 Z0M1625     0.0000 
     23 CAW        27.5150   42.1260   16.0210 C.ar      1 Z0M1625     0.0000 
     24 CAC        32.9950   42.7100   21.3040 C.3       1 Z0M1625     0.0000 
     25 CAX        27.8050   40.9130   15.4080 C.ar      1 Z0M1625     0.0000 
     26 CAY        29.0900   40.3970   15.5110 C.ar      1 Z0M1625     0.0000 
     27 SAZ        38.8990   40.3450   23.0280 S.3       1 Z0M1625     0.0000 
     28 H          36.9964   39.4737   22.0798 H         1 Z0M1625     0.0000 
     29 H          36.6990   40.1922   23.6720 H         1 Z0M1625     0.0000 
     30 H          37.0382   41.7162   21.0400 H         1 Z0M1625     0.0000 
     31 H          36.8601   42.4797   22.6291 H         1 Z0M1625     0.0000 
     32 H          34.9988   43.4534   21.1640 H         1 Z0M1625     0.0000 
     33 H          32.9303   42.4020   23.4206 H         1 Z0M1625     0.0000 
     34 H          30.3353   42.8081   21.9684 H         1 Z0M1625     0.0000 
     35 H          31.7452   40.3588   23.0028 H         1 Z0M1625     0.0000 
     36 H          29.4424   40.0925   23.6994 H         1 Z0M1625     0.0000 
     37 H          29.7953   39.0272   22.3281 H         1 Z0M1625     0.0000 
     38 H          30.3597   39.1886   20.0301 H         1 Z0M1625     0.0000 
     39 H          33.1055   41.7069   18.5253 H         1 Z0M1625     0.0000 
     40 H          30.6470   38.9286   17.4952 H         1 Z0M1625     0.0000 
     41 H          32.4132   38.8775   17.3617 H         1 Z0M1625     0.0000 
     42 H          31.7438   40.0065   15.4020 H         1 Z0M1625     0.0000 
     43 H          32.1929   41.3298   16.4917 H         1 Z0M1625     0.0000 
     44 H          30.5003   42.8094   17.3580 H         1 Z0M1625     0.0000 
     45 H          28.2554   43.7211   17.1811 H         1 Z0M1625     0.0000 
     46 H          26.5599   42.5203   15.9500 H         1 Z0M1625     0.0000 
     47 H          32.7953   43.6786   20.7558 H         1 Z0M1625     0.0000 
     48 H          27.0832   40.4089   14.8895 H         1 Z0M1625     0.0000 
     49 H          29.3196   39.4946   15.0678 H         1 Z0M1625     0.0000 
     50 H          32.3980   44.3788   23.9116 H         1 Z0M1625     0.0000 
     51 H          29.4591   42.9010   23.8683 H         1 Z0M1625     0.0000 
     52 H          28.2817   41.4235   22.4698 H         1 Z0M1625     0.0000 
@<TRIPOS>BOND
     1    2    1 1    
     2   27    1 1    
     3   28    1 1    
     4   29    1 1    
     5    3    2 1    
     6   30    2 1    
     7   31    2 1    
     8    4    3 2    
     9    5    3 am   
    10   24    5 1    
    11   32    5 1    
    12    7    6 1    
    13    8    6 1    
    14   24    6 1    
    15   33    6 1    
    16   50    7 1    
    17    9    8 1    
    18   10    8 1    
    19   34    8 1    
    20   51    9 1    
    21   11   10 1    
    22   13   10 1    
    23   35   10 1    
    24   12   11 1    
    25   36   11 1    
    26   37   11 1    
    27   52   12 1    
    28   14   13 1    
    29   15   13 2    
    30   17   14 2    
    31   38   14 1    
    32   16   15 1    
    33   24   15 1    
    34   17   16 1    
    35   39   16 1    
    36   18   17 1    
    37   19   18 1    
    38   40   18 1    
    39   41   18 1    
    40   20   19 1    
    41   42   19 1    
    42   43   19 1    
    43   21   20 ar   
    44   26   20 ar   
    45   22   21 ar   
    46   44   21 1    
    47   23   22 ar   
    48   45   22 1    
    49   25   23 ar   
    50   46   23 1    
    51   47   24 1    
    52   26   25 ar   
    53   48   25 1    
    54   49   26 1    
@<TRIPOS>SUBSTRUCTURE
     1 Z0M1625     1 GROUP   
@<TRIPOS>SET

