#    Name: 2dr3_ADP_4_INTS_M
#    Modification time : Tue Mar 25 10:16:14 2014

@<TRIPOS>MOLECULE
2dr3_ADP_4_INTS_M
   64     0    12     0     0
SMALL
NO_CHARGES


@<TRIPOS>ATOM
      1 NZ         41.8870  -39.9415  124.2535 N.4       3 LYC4        0.0000 
      2 NZ         43.1960  -39.9740  124.6980 N.4      11 LYL4        0.0000 
      3 NZ         40.5780  -39.9090  123.8090 N.4       7 LYP4        0.0000 
      4 N          43.3205  -38.9760  126.0080 N.am      2 SEC2        0.0000 
      5 N          43.1960  -39.9740  124.6980 N.am     10 SEL2        0.0000 
      6 N          43.4450  -37.9780  127.3180 N.am      6 SEP2        0.0000 
      7 N          43.8775  -40.2140  126.0690 N.am      2 SEC2        0.0000 
      8 N          44.5590  -40.4540  127.4400 N.am      6 SEP2        0.0000 
      9 N          43.4550  -41.3165  125.2840 N.am      2 SEC2        0.0000 
     10 N          43.7140  -42.6590  125.8700 N.am      6 SEP2        0.0000 
     11 N          41.8870  -39.9415  124.2535 N.am      2 SEC2        0.0000 
     12 N          40.5780  -39.9090  123.8090 N.am      6 SEP2        0.0000 
     13 NZ         42.1855  -38.9890  123.4595 N.4       3 LYC4        0.0000 
     14 NZ         43.7930  -38.0690  123.1100 N.4      11 LYL4        0.0000 
     15 N          43.7215  -37.1035  124.1585 N.am      2 SEC2        0.0000 
     16 N          43.7930  -38.0690  123.1100 N.am     10 SEL2        0.0000 
     17 N          43.6500  -36.1380  125.2070 N.am      6 SEP2        0.0000 
     18 N          44.6590  -42.1080  123.0090 N.am      2 SEC2        0.0000 
     19 N          44.5960  -40.4620  122.6390 N.am     10 SEL2        0.0000 
     20 N          44.7220  -43.7540  123.3790 N.am      6 SEP2        0.0000 
     21 N          46.8835  -43.0085  124.4625 N.am      2 SEC2        0.0000 
     22 N          46.4830  -41.4380  124.7560 N.am     10 SEL2        0.0000 
     23 N          47.2840  -44.5790  124.1690 N.am      6 SEP2        0.0000 
     24 N          45.6025  -42.5960  124.0675 N.am      2 SEC2        0.0000 
     25 N          45.0920  -39.7650  126.0075 N.am      2 SEC2        0.0000 
     26 N          45.6250  -39.0760  124.5750 N.am     10 SEL2        0.0000 
     27 CA         46.5510  -37.2165  126.0355 C.3       4 GLC5        0.0000 
     28 CA         48.4400  -38.2840  125.8190 C.3      12 GLL5        0.0000 
     29 CA         44.6620  -36.1490  126.2520 C.3       8 GLP5        0.0000 
     30 CA         48.5270  -39.1885  128.5555 C.3       4 GLC5        0.0000 
     31 CA         49.0510  -37.8140  127.1310 C.3      12 GLL5        0.0000 
     32 CA         48.0030  -40.5630  129.9800 C.3       8 GLP5        0.0000 
     33 CA         51.0185  -36.1235  125.1385 C.3       4 GLC5        0.0000 
     34 CA         49.7850  -36.4940  126.9490 C.3      12 GLL5        0.0000 
     35 CA         52.2520  -35.7530  123.3280 C.3       8 GLP5        0.0000 
     36 N          49.4250  -34.0995  126.3505 N.am      2 SEC2        0.0000 
     37 N          48.8360  -35.4240  126.9570 N.am     10 SEL2        0.0000 
     38 N          50.0140  -32.7750  125.7440 N.am      6 SEP2        0.0000 
     39 O          47.8585  -35.2025  127.8565 O.2       1 ALC1        0.0000 
     40 O          48.8360  -35.4240  126.9570 O.2       9 ALL1        0.0000 
     41 O          46.8810  -34.9810  128.7560 O.2       5 ALP1        0.0000 
     42 CA         51.3010  -34.5880  128.8035 C.3       4 GLC5        0.0000 
     43 CA         50.7380  -36.4750  128.1410 C.3      12 GLL5        0.0000 
     44 CA         51.8640  -32.7010  129.4660 C.3       8 GLP5        0.0000 
     45 O          50.3815  -34.3200  129.4055 O.2       1 ALC1        0.0000 
     46 O          50.2390  -35.6660  129.2170 O.2       9 ALL1        0.0000 
     47 O          50.5240  -32.9740  129.5940 O.2       5 ALP1        0.0000 
     48 CA         50.8225  -39.8555  129.2325 C.3       4 GLC5        0.0000 
     49 CA         50.8750  -37.9490  128.5430 C.3      12 GLL5        0.0000 
     50 CA         50.7700  -41.7620  129.9220 C.3       8 GLP5        0.0000 
     51 CA         55.3090  -37.3615  128.1420 C.3       4 GLC5        0.0000 
     52 CA         54.3320  -39.1360  128.8270 C.3      12 GLL5        0.0000 
     53 CA         56.2860  -35.5870  127.4570 C.3       8 GLP5        0.0000 
     54 CA         54.2115  -40.9335  132.0645 C.3       4 GLC5        0.0000 
     55 CA         54.1140  -38.8540  131.5640 C.3      12 GLL5        0.0000 
     56 CA         54.3090  -43.0130  132.5650 C.3       8 GLP5        0.0000 
     57 CA         54.9430  -37.2395  131.9025 C.3       4 GLC5        0.0000 
     58 CA         55.7720  -35.6250  132.2410 C.3       8 GLP5        0.0000 
     59 CA         51.9565  -40.2140  129.6700 C.3       4 GLC5        0.0000 
     60 CA         53.1430  -38.6660  129.4180 C.3      12 GLL5        0.0000 
     61 CA         54.1070  -36.8800  130.2035 C.3       4 GLC5        0.0000 
     62 CA         55.0710  -35.0940  130.9890 C.3       8 GLP5        0.0000 
     63 CA         49.4258  -40.0765  126.4245 C.3       4 GLC5        0.0000 
     64 CA         50.1060  -42.1040  126.3740 C.3       8 GLP5        0.0000 
@<TRIPOS>BOND
@<TRIPOS>SUBSTRUCTURE
     1 ALC1       39 GROUP        1 X    ALC  0     ROOT ALC X 1
     2 SEC2        4 GROUP        1 X    SEC  0     **** SEC X 2
     3 LYC4        1 GROUP        1 X    LYC  0     **** LYC X 4
     4 GLC5       27 GROUP        1 X    GLC  0     **** GLC X 6
     5 ALP1       41 GROUP        1 Y    ALP  0     ROOT ALP Y 8
     6 SEP2        6 GROUP        1 Y    SEP  0     **** SEP Y 9
     7 LYP4        3 GROUP        1 Y    LYP  0     **** LYP Y 11
     8 GLP5       29 GROUP        1 Y    GLP  0     **** GLP Y 13
     9 ALL1       40 GROUP        1 Z    ALL  0     ROOT ALL Z 15
    10 SEL2        5 GROUP        1 Z    SEL  0     **** SEL Z 16
    11 LYL4        2 GROUP        1 Z    LYL  0     **** LYL Z 18
    12 GLL5       28 GROUP        1 Z    GLL  0     **** GLL Z 20
@<TRIPOS>SET

