#    Name: 2dr3_ADP_4_ligand
#    Modification time : Tue Mar 25 10:16:15 2014

@<TRIPOS>MOLECULE
2dr3_ADP_4_ligand
   39    41     1     0     0
SMALL
NO_CHARGES


@<TRIPOS>ATOM
      1 PB         44.2550  -39.4340  123.8180 P.3       1 ADP3804     0.0000 
      2 O1B        43.1960  -39.9740  124.6980 O.co2     1 ADP3804     0.0000 
      3 O2B        43.7930  -38.0690  123.1100 O.co2     1 ADP3804     0.0000 
      4 O3B        44.5960  -40.4620  122.6390 O.co2     1 ADP3804     0.0000 
      5 PA         46.9170  -40.0370  124.6220 P.3       1 ADP3804     0.0000 
      6 O1A        46.4830  -41.4380  124.7560 O.co2     1 ADP3804     0.0000 
      7 O2A        47.7190  -39.7010  123.4150 O.co2     1 ADP3804     0.0000 
      8 O3A        45.6250  -39.0760  124.5750 O.3       1 ADP3804     0.0000 
      9 O5'        47.7280  -39.5250  125.9150 O.3       1 ADP3804     0.0000 
     10 C5'        48.4400  -38.2840  125.8190 C.3       1 ADP3804     0.0000 
     11 C4'        49.0510  -37.8140  127.1310 C.3       1 ADP3804     0.0000 
     12 O4'        50.0550  -38.7200  127.6260 O.3       1 ADP3804     0.0000 
     13 C3'        49.7850  -36.4940  126.9490 C.3       1 ADP3804     0.0000 
     14 O3'        48.8360  -35.4240  126.9570 O.3       1 ADP3804     0.0000 
     15 C2'        50.7380  -36.4750  128.1410 C.3       1 ADP3804     0.0000 
     16 O2'        50.2390  -35.6660  129.2170 O.3       1 ADP3804     0.0000 
     17 C1'        50.8750  -37.9490  128.5430 C.3       1 ADP3804     0.0000 
     18 N9         52.2830  -38.4470  128.4190 N.pl3     1 ADP3804     0.0000 
     19 C8         52.9040  -38.7450  127.2620 C.2       1 ADP3804     0.0000 
     20 N7         54.1480  -39.1610  127.5050 N.2       1 ADP3804     0.0000 
     21 C5         54.3320  -39.1360  128.8270 C.ar      1 ADP3804     0.0000 
     22 C6         55.4170  -39.4480  129.6770 C.ar      1 ADP3804     0.0000 
     23 N6         56.5670  -39.8930  129.1770 N.pl3     1 ADP3804     0.0000 
     24 N1         55.2650  -39.3000  131.0330 N.ar      1 ADP3804     0.0000 
     25 C2         54.1140  -38.8540  131.5640 C.ar      1 ADP3804     0.0000 
     26 N3         53.0670  -38.5480  130.7830 N.ar      1 ADP3804     0.0000 
     27 C4         53.1430  -38.6660  129.4180 C.ar      1 ADP3804     0.0000 
     28 H          47.7748  -37.4700  125.4484 H         1 ADP3804     0.0000 
     29 H          49.2639  -38.3535  125.0714 H         1 ADP3804     0.0000 
     30 H          48.2808  -37.6637  127.8603 H         1 ADP3804     0.0000 
     31 H          50.3540  -36.5604  126.0587 H         1 ADP3804     0.0000 
     32 H          51.6982  -36.1487  127.7844 H         1 ADP3804     0.0000 
     33 H          50.5267  -38.0700  129.5423 H         1 ADP3804     0.0000 
     34 H          52.4959  -38.6656  126.3751 H         1 ADP3804     0.0000 
     35 H          57.2988  -40.0601  129.8378 H         1 ADP3804     0.0000 
     36 H          56.5958  -40.0202  128.1855 H         1 ADP3804     0.0000 
     37 H          54.0338  -38.7437  132.6057 H         1 ADP3804     0.0000 
     38 H          48.2664  -35.5894  127.7621 H         1 ADP3804     0.0000 
     39 H          50.4371  -34.7241  128.9459 H         1 ADP3804     0.0000 
@<TRIPOS>BOND
     1    2    1 ar   
     2    3    1 ar   
     3    4    1 ar   
     4    8    1 1    
     5    6    5 ar   
     6    7    5 ar   
     7    8    5 1    
     8    9    5 1    
     9   10    9 1    
    10   11   10 1    
    11   28   10 1    
    12   29   10 1    
    13   12   11 1    
    14   13   11 1    
    15   30   11 1    
    16   17   12 1    
    17   14   13 1    
    18   15   13 1    
    19   31   13 1    
    20   38   14 1    
    21   16   15 1    
    22   17   15 1    
    23   32   15 1    
    24   39   16 1    
    25   18   17 1    
    26   33   17 1    
    27   19   18 1    
    28   27   18 1    
    29   20   19 2    
    30   34   19 1    
    31   21   20 1    
    32   22   21 ar   
    33   27   21 ar   
    34   23   22 1    
    35   24   22 ar   
    36   35   23 1    
    37   36   23 1    
    38   25   24 ar   
    39   26   25 ar   
    40   37   25 1    
    41   27   26 ar   
@<TRIPOS>SUBSTRUCTURE
     1 ADP3804     1 GROUP   
@<TRIPOS>SET

