#    Name: 1xh6_R94_1_INTS_M
#    Modification time : Tue Mar 25 09:51:23 2014

@<TRIPOS>MOLECULE
1xh6_R94_1_INTS_M
  101     0    12     0     0
SMALL
NO_CHARGES


@<TRIPOS>ATOM
      1 N           0.1545   38.2630   17.5645 N.am      2 SEC2        0.0000 
      2 N           1.0590   37.0850   17.1780 N.am     10 SEL2        0.0000 
      3 N          -0.7500   39.4410   17.9510 N.am      6 SEP2        0.0000 
      4 CA          2.6030   33.9630   15.6770 C.3       4 GLC5        0.0000 
      5 CA          3.2520   35.8760   14.7710 C.3      12 GLL5        0.0000 
      6 CA          1.9540   32.0500   16.5830 C.3       8 GLP5        0.0000 
      7 CA          5.2880   35.1595   12.7875 C.3       4 GLC5        0.0000 
      8 CA          4.0700   36.3320   13.7130 C.3      12 GLL5        0.0000 
      9 CA          6.5060   33.9870   11.8620 C.3       8 GLP5        0.0000 
     10 CA          3.1740   40.0620   13.4915 C.3       4 GLC5        0.0000 
     11 CA          5.0870   40.4190   13.4470 C.3      12 GLL5        0.0000 
     12 CA          1.2610   39.7050   13.5360 C.3       8 GLP5        0.0000 
     13 CA          2.8925   41.2790   17.1130 C.3       4 GLC5        0.0000 
     14 CA          4.2700   40.7680   15.7990 C.3      12 GLL5        0.0000 
     15 CA          1.5150   41.7900   18.4270 C.3       8 GLP5        0.0000 
     16 CA          2.7655   40.2365   14.6675 C.3       4 GLC5        0.0000 
     17 N           3.0780   33.3140   15.4765 N.am      2 SEC2        0.0000 
     18 N           2.7830   34.5790   14.7380 N.am     10 SEL2        0.0000 
     19 N           3.3730   32.0490   16.2150 N.am      6 SEP2        0.0000 
     20 O           3.0555   33.6380   13.5925 O.2       1 ALC1        0.0000 
     21 O           2.7830   34.5790   14.7380 O.2       9 ALL1        0.0000 
     22 O           3.3280   32.6970   12.4470 O.2       5 ALP1        0.0000 
     23 CA         -0.7735   35.5480   19.2565 C.3       4 GLC5        0.0000 
     24 CA          1.2890   34.9850   18.8480 C.3      12 GLL5        0.0000 
     25 CA         -2.8360   36.1110   19.6650 C.3       8 GLP5        0.0000 
     26 CA          1.3995   34.7580   21.8855 C.3       4 GLC5        0.0000 
     27 CA          1.5430   34.0910   19.8780 C.3      12 GLL5        0.0000 
     28 CA          1.2560   35.4250   23.8930 C.3       8 GLP5        0.0000 
     29 O           4.8970   31.5945   19.5290 O.2       1 ALC1        0.0000 
     30 O           4.3020   31.9500   21.1250 O.2       9 ALL1        0.0000 
     31 O           5.4920   31.2390   17.9330 O.2       5 ALP1        0.0000 
     32 O           5.5475   32.1155   20.2440 O.2       1 ALC1        0.0000 
     33 O           6.7930   32.2810   19.3630 O.2       5 ALP1        0.0000 
     34 CA          3.1470   30.5185   21.4960 C.3       4 GLC5        0.0000 
     35 CA          4.8260   31.2720   22.3510 C.3      12 GLL5        0.0000 
     36 CA          1.4680   29.7650   20.6410 C.3       8 GLP5        0.0000 
     37 CA          9.6975   33.2835   23.2190 C.3       4 GLC5        0.0000 
     38 CA          7.7540   32.7450   22.7840 C.3      12 GLL5        0.0000 
     39 CA         11.6410   33.8220   23.6540 C.3       8 GLP5        0.0000 
     40 OD1         7.3120   31.9270   20.5885 O.co2     3 ASC3        0.0000 
     41 OD1         7.8310   31.5730   21.8140 O.co2    11 ASL3        0.0000 
     42 OD1         6.7930   32.2810   19.3630 O.co2     7 ASP3        0.0000 
     43 CA          8.2855   29.7770   24.2655 C.3       4 GLC5        0.0000 
     44 CA          7.2760   30.2750   22.3610 C.3      12 GLL5        0.0000 
     45 CA          9.2950   29.2790   26.1700 C.3       8 GLP5        0.0000 
     46 CA          8.2245   28.6035   22.6910 C.3       4 GLC5        0.0000 
     47 CA          9.1730   26.9320   23.0210 C.3       8 GLP5        0.0000 
     48 O           5.4190   28.9530   23.9785 O.2       1 ALC1        0.0000 
     49 O           5.3390   28.8370   22.5820 O.2       9 ALL1        0.0000 
     50 O           5.4990   29.0690   25.3750 O.2       5 ALP1        0.0000 
     51 CA          3.0005   27.1070   22.2555 C.3       4 GLC5        0.0000 
     52 CA          4.9520   26.3930   22.3360 C.3      12 GLL5        0.0000 
     53 CA          1.0490   27.8210   22.1750 C.3       8 GLP5        0.0000 
     54 CA          4.0560   25.2435   19.5795 C.3       4 GLC5        0.0000 
     55 CA          4.7250   25.3160   21.4600 C.3      12 GLL5        0.0000 
     56 CA          3.3870   25.1710   17.6990 C.3       8 GLP5        0.0000 
     57 CA          3.7750   22.2270   22.5780 C.3       4 GLC5        0.0000 
     58 CA          4.5500   24.0400   21.9890 C.3      12 GLL5        0.0000 
     59 CA          3.0000   20.4140   23.1670 C.3       8 GLP5        0.0000 
     60 CA          5.9605   22.5610   22.0100 C.3       4 GLC5        0.0000 
     61 CA          7.3710   21.0820   22.0310 C.3       8 GLP5        0.0000 
     62 N           4.8575   22.3850   23.6660 N.am      2 SEC2        0.0000 
     63 N           4.5340   23.8190   23.3090 N.am     10 SEL2        0.0000 
     64 N           5.1810   20.9510   24.0230 N.am      6 SEP2        0.0000 
     65 CA          3.0045   24.4105   22.9785 C.3       4 GLC5        0.0000 
     66 CA          4.7440   24.8330   24.1500 C.3      12 GLL5        0.0000 
     67 CA          1.2650   23.9880   21.8070 C.3       8 GLP5        0.0000 
     68 CA          6.1620   23.1410   23.8030 C.3       4 GLC5        0.0000 
     69 CA          7.5800   21.4490   23.4560 C.3       8 GLP5        0.0000 
     70 CA          4.2372   41.1223   12.1842 C.3       4 GLC5        0.0000 
     71 CA          2.8710   41.2650   10.8320 C.3       8 GLP5        0.0000 
     72 CA          6.8912   40.0748   13.2087 C.3       4 GLC5        0.0000 
     73 CA          8.1790   39.1700   12.8810 C.3       8 GLP5        0.0000 
     74 CA          6.5732   43.1780   12.9945 C.3       4 GLC5        0.0000 
     75 CA          6.1200   41.5400   13.6260 C.3      12 GLL5        0.0000 
     76 CA          7.2830   44.3020   11.8550 C.3       8 GLP5        0.0000 
     77 CA          2.5608   36.3915   19.5065 C.3       4 GLC5        0.0000 
     78 CA          2.3290   35.3920   17.9960 C.3      12 GLL5        0.0000 
     79 CA          2.1370   37.6370   20.9210 C.3       8 GLP5        0.0000 
     80 CA          2.4693   33.5980   17.3375 C.3       4 GLC5        0.0000 
     81 CA          0.3820   34.7702   17.0625 C.3       4 GLC5        0.0000 
     82 CA         -1.0450   34.3520   15.7030 C.3       8 GLP5        0.0000 
     83 CA          2.7518   35.7180   20.2845 C.3       4 GLC5        0.0000 
     84 CA          2.8420   33.5940   20.0710 C.3      12 GLL5        0.0000 
     85 CA          2.6603   32.9245   18.1155 C.3       4 GLC5        0.0000 
     86 CA          1.7765   36.0875   20.1420 C.3       4 GLC5        0.0000 
     87 CA         -0.0785   33.9460   20.6275 C.3       4 GLC5        0.0000 
     88 CA         -1.5730   33.3540   21.8920 C.3       8 GLP5        0.0000 
     89 CA          1.6850   33.2940   17.9730 C.3       4 GLC5        0.0000 
     90 CA          1.8303   31.8038   20.3077 C.3       4 GLC5        0.0000 
     91 CA          3.7422   32.0322   24.2263 C.3       4 GLC5        0.0000 
     92 CA          2.4130   32.2360   25.6260 C.3       8 GLP5        0.0000 
     93 CA          6.7382   25.7032   22.7135 C.3       4 GLC5        0.0000 
     94 CA          8.6380   25.5520   23.5290 C.3       8 GLP5        0.0000 
     95 CA          6.4262   25.9243   20.7140 C.3       4 GLC5        0.0000 
     96 CA          8.0140   25.9940   19.5300 C.3       8 GLP5        0.0000 
     97 CA          2.9796   24.4676   21.8753 C.3       4 GLC5        0.0000 
     98 CA          3.0440   25.4543   24.8843 C.3       4 GLC5        0.0000 
     99 CA          1.2460   25.4230   25.8410 C.3       8 GLP5        0.0000 
    100 CA          6.5115   25.5457   24.4622 C.3       4 GLC5        0.0000 
    101 CA          8.1810   25.6060   24.9970 C.3       8 GLP5        0.0000 
@<TRIPOS>BOND
@<TRIPOS>SUBSTRUCTURE
     1 ALC1       20 GROUP        1 X    ALC  0     ROOT ALC X 1
     2 SEC2        1 GROUP        1 X    SEC  0     **** SEC X 2
     3 ASC3       40 GROUP        1 X    ASC  0     **** ASC X 3
     4 GLC5        4 GROUP        1 X    GLC  0     **** GLC X 6
     5 ALP1       22 GROUP        1 Y    ALP  0     ROOT ALP Y 8
     6 SEP2        3 GROUP        1 Y    SEP  0     **** SEP Y 9
     7 ASP3       42 GROUP        1 Y    ASP  0     **** ASP Y 10
     8 GLP5        6 GROUP        1 Y    GLP  0     **** GLP Y 13
     9 ALL1       21 GROUP        1 Z    ALL  0     ROOT ALL Z 15
    10 SEL2        2 GROUP        1 Z    SEL  0     **** SEL Z 16
    11 ASL3       41 GROUP        1 Z    ASL  0     **** ASL Z 17
    12 GLL5        5 GROUP        1 Z    GLL  0     **** GLL Z 20
@<TRIPOS>SET

