#    Name: 1xh6_R94_1_ligand
#    Modification time : Tue Mar 25 09:51:23 2014

@<TRIPOS>MOLECULE
1xh6_R94_1_ligand
   74    78     1     0     0
SMALL
NO_CHARGES


@<TRIPOS>ATOM
      1 O62         1.0590   37.0850   17.1780 O.2       1 R94351      0.0000 
      2 C61         2.0490   36.3820   16.9600 C.2       1 R94351      0.0000 
      3 C71         2.9150   36.7430   15.8230 C.ar      1 R94351      0.0000 
      4 C72         3.2520   35.8760   14.7710 C.ar      1 R94351      0.0000 
      5 C73         4.0700   36.3320   13.7130 C.ar      1 R94351      0.0000 
      6 C74         4.5570   37.6370   13.7220 C.ar      1 R94351      0.0000 
      7 C75         4.2340   38.5370   14.7620 C.ar      1 R94351      0.0000 
      8 N91         4.7240   39.8280   14.7530 N.3       1 R94351      0.0000 
      9 C92         5.0870   40.4190   13.4470 C.3       1 R94351      0.0000 
     10 C93         6.1200   41.5400   13.6260 C.3       1 R94351      0.0000 
     11 C94         5.6070   42.5680   14.6420 C.3       1 R94351      0.0000 
     12 C95         5.3080   41.8820   15.9840 C.3       1 R94351      0.0000 
     13 C96         4.2700   40.7680   15.7990 C.3       1 R94351      0.0000 
     14 C76         3.4220   38.0680   15.8090 C.ar      1 R94351      0.0000 
     15 O92         2.7830   34.5790   14.7380 O.3       1 R94351      0.0000 
     16 C54         2.3290   35.3920   17.9960 C.ar      1 R94351      0.0000 
     17 C55         3.6400   34.9000   18.1880 C.ar      1 R94351      0.0000 
     18 C56         3.8910   34.0040   19.2250 C.ar      1 R94351      0.0000 
     19 C53         1.2890   34.9850   18.8480 C.ar      1 R94351      0.0000 
     20 C52         1.5430   34.0910   19.8780 C.ar      1 R94351      0.0000 
     21 C51         2.8420   33.5940   20.0710 C.ar      1 R94351      0.0000 
     22 C42         3.1180   32.6760   21.1680 C.2       1 R94351      0.0000 
     23 O43         2.3840   32.5910   22.1620 O.2       1 R94351      0.0000 
     24 N41         4.3020   31.9500   21.1250 N.am      1 R94351      0.0000 
     25 C37         4.8260   31.2720   22.3510 C.3       1 R94351      0.0000 
     26 C36         5.3170   32.3850   23.3020 C.3       1 R94351      0.0000 
     27 C35         6.3600   33.3590   22.7450 C.3       1 R94351      0.0000 
     28 C34         7.7540   32.7450   22.7840 C.3       1 R94351      0.0000 
     29 N33         7.8310   31.5730   21.8140 N.4       1 R94351      0.0000 
     30 C32         7.2760   30.2750   22.3610 C.3       1 R94351      0.0000 
     31 C31         5.7950   30.1130   21.9840 C.3       1 R94351      0.0000 
     32 N23         5.3390   28.8370   22.5820 N.am      1 R94351      0.0000 
     33 C21         5.1350   27.7290   21.7710 C.2       1 R94351      0.0000 
     34 O22         5.0420   27.9100   20.5470 O.2       1 R94351      0.0000 
     35 C14         4.9520   26.3930   22.3360 C.ar      1 R94351      0.0000 
     36 C13         4.7250   25.3160   21.4600 C.ar      1 R94351      0.0000 
     37 C12         4.5500   24.0400   21.9890 C.ar      1 R94351      0.0000 
     38 N11         4.5340   23.8190   23.3090 N.ar      1 R94351      0.0000 
     39 C16         4.7440   24.8330   24.1500 C.ar      1 R94351      0.0000 
     40 C15         4.9400   26.1380   23.7050 C.ar      1 R94351      0.0000 
     41 H           4.2998   35.6962   12.9436 H         1 R94351      0.0000 
     42 H           5.1692   37.9625   12.9543 H         1 R94351      0.0000 
     43 H           4.2047   40.8399   12.9575 H         1 R94351      0.0000 
     44 H           5.5152   39.6594   12.7876 H         1 R94351      0.0000 
     45 H           6.2854   42.0294   12.6733 H         1 R94351      0.0000 
     46 H           7.0503   41.1152   13.9845 H         1 R94351      0.0000 
     47 H           4.6986   43.0236   14.2640 H         1 R94351      0.0000 
     48 H           6.3618   43.3317   14.7921 H         1 R94351      0.0000 
     49 H           4.9231   42.6183   16.6831 H         1 R94351      0.0000 
     50 H           6.2252   41.4556   16.3788 H         1 R94351      0.0000 
     51 H           4.1448   40.2527   16.7510 H         1 R94351      0.0000 
     52 H           3.3209   41.2249   15.5197 H         1 R94351      0.0000 
     53 H           3.1850   38.7001   16.5912 H         1 R94351      0.0000 
     54 H           4.3905   35.2041   17.5672 H         1 R94351      0.0000 
     55 H           4.8365   33.6393   19.3779 H         1 R94351      0.0000 
     56 H           0.3417   35.3543   18.7018 H         1 R94351      0.0000 
     57 H           0.7869   33.7884   20.5027 H         1 R94351      0.0000 
     58 H           4.8510   31.8512   20.2748 H         1 R94351      0.0000 
     59 H           3.9298   30.8092   22.8458 H         1 R94351      0.0000 
     60 H           5.7296   31.9046   24.2173 H         1 R94351      0.0000 
     61 H           4.4319   32.9666   23.6444 H         1 R94351      0.0000 
     62 H           6.3493   34.2711   23.3403 H         1 R94351      0.0000 
     63 H           6.1022   33.6069   21.7162 H         1 R94351      0.0000 
     64 H           7.9656   32.3952   23.7897 H         1 R94351      0.0000 
     65 H           8.4862   33.4953   22.5018 H         1 R94351      0.0000 
     66 H           7.3655   30.2650   23.4465 H         1 R94351      0.0000 
     67 H           7.8364   29.4346   21.9536 H         1 R94351      0.0000 
     68 H           5.7546   29.9811   20.8812 H         1 R94351      0.0000 
     69 H           5.1881   28.8149   23.5835 H         1 R94351      0.0000 
     70 H           4.6903   25.4741   20.4544 H         1 R94351      0.0000 
     71 H           4.4292   23.2447   21.3148 H         1 R94351      0.0000 
     72 H           4.7669   24.6670   25.1895 H         1 R94351      0.0000 
     73 H           5.0732   26.8983   24.3742 H         1 R94351      0.0000 
     74 H           3.1306   34.2000   13.8804 H         1 R94351      0.0000 
@<TRIPOS>BOND
     1    2    1 2    
     2    3    2 1    
     3   16    2 1    
     4    4    3 ar   
     5   14    3 ar   
     6    5    4 ar   
     7   15    4 1    
     8    6    5 ar   
     9   41    5 1    
    10    7    6 ar   
    11   42    6 1    
    12    8    7 1    
    13   14    7 ar   
    14    9    8 1    
    15   13    8 1    
    16   10    9 1    
    17   43    9 1    
    18   44    9 1    
    19   11   10 1    
    20   45   10 1    
    21   46   10 1    
    22   12   11 1    
    23   47   11 1    
    24   48   11 1    
    25   13   12 1    
    26   49   12 1    
    27   50   12 1    
    28   51   13 1    
    29   52   13 1    
    30   53   14 1    
    31   74   15 1    
    32   17   16 ar   
    33   19   16 ar   
    34   18   17 ar   
    35   54   17 1    
    36   21   18 ar   
    37   55   18 1    
    38   20   19 ar   
    39   56   19 1    
    40   21   20 ar   
    41   57   20 1    
    42   22   21 1    
    43   23   22 2    
    44   24   22 am   
    45   25   24 1    
    46   58   24 1    
    47   26   25 1    
    48   31   25 1    
    49   59   25 1    
    50   27   26 1    
    51   60   26 1    
    52   61   26 1    
    53   28   27 1    
    54   62   27 1    
    55   63   27 1    
    56   29   28 1    
    57   64   28 1    
    58   65   28 1    
    59   30   29 1    
    60   31   30 1    
    61   66   30 1    
    62   67   30 1    
    63   32   31 1    
    64   68   31 1    
    65   33   32 am   
    66   69   32 1    
    67   34   33 2    
    68   35   33 1    
    69   36   35 ar   
    70   40   35 ar   
    71   37   36 ar   
    72   70   36 1    
    73   38   37 ar   
    74   71   37 1    
    75   39   38 ar   
    76   40   39 ar   
    77   72   39 1    
    78   73   40 1    
@<TRIPOS>SUBSTRUCTURE
     1 R94351      1 GROUP   
@<TRIPOS>SET

