#    Name: 456c_CBP_2_INTS_M
#    Modification time : Tue Mar 25 04:44:33 2014

@<TRIPOS>MOLECULE
456c_CBP_2_INTS_M
   61     0    12     0     0
SMALL
NO_CHARGES


@<TRIPOS>ATOM
      1 Zn         18.8785    5.2690   58.9840 Zn        3 ZIC7        0.0000 
      2 Zn         18.5450    5.9010   60.0670 Zn       11 ZIL7        0.0000 
      3 Zn         19.2120    4.6370   57.9010 Zn        7 ZIP7        0.0000 
      4 O          19.3665    6.9795   60.7950 O.2       1 ALC1        0.0000 
      5 O          18.5450    5.9010   60.0670 O.2       9 ALL1        0.0000 
      6 O          20.1880    8.0580   61.5230 O.2       5 ALP1        0.0000 
      7 O          19.6225    5.9405   60.5900 O.2       1 ALC1        0.0000 
      8 O          20.7000    5.9800   61.1130 O.2       5 ALP1        0.0000 
      9 O          17.6475    5.3870   61.8195 O.2       1 ALC1        0.0000 
     10 O          17.6740    4.9330   60.5600 O.2       9 ALL1        0.0000 
     11 O          17.6210    5.8410   63.0790 O.2       5 ALP1        0.0000 
     12 Zn         18.5665    4.2275   58.2700 Zn        3 ZIC7        0.0000 
     13 Zn         17.9210    3.8180   58.6390 Zn       11 ZIL7        0.0000 
     14 CA         14.6085    2.9105   62.7255 C.3       4 GLC5        0.0000 
     15 CA         14.8300    1.3010   61.2390 C.3      12 GLL5        0.0000 
     16 CA         14.3870    4.5200   64.2120 C.3       8 GLP5        0.0000 
     17 N          16.9210    2.3555   64.4560 N.am      2 SEC2        0.0000 
     18 N          17.2120    2.4370   62.9410 N.am     10 SEL2        0.0000 
     19 N          16.6300    2.2740   65.9710 N.am      6 SEP2        0.0000 
     20 N          17.6560    3.5470   64.2100 N.am      2 SEC2        0.0000 
     21 N          18.1000    4.6570   65.4790 N.am      6 SEP2        0.0000 
     22 CA         22.4100    2.6065   59.7670 C.3       4 GLC5        0.0000 
     23 CA         21.8130    1.3780   61.0960 C.3      12 GLL5        0.0000 
     24 CA         23.0070    3.8350   58.4380 C.3       8 GLP5        0.0000 
     25 CA         21.6980   -1.6285   61.1280 C.3       4 GLC5        0.0000 
     26 CA         21.0490    0.2150   60.9320 C.3      12 GLL5        0.0000 
     27 CA         22.3470   -3.4720   61.3240 C.3       8 GLP5        0.0000 
     28 CA         20.8665   -1.4280   61.9610 C.3       4 GLC5        0.0000 
     29 CA         19.6800    0.2500   61.1450 C.3      12 GLL5        0.0000 
     30 CA         22.0530   -3.1060   62.7770 C.3       8 GLP5        0.0000 
     31 CA         25.2005    1.7620   62.2125 C.3       4 GLC5        0.0000 
     32 CA         25.1210    0.1220   60.8420 C.3      12 GLL5        0.0000 
     33 CA         25.2800    3.4020   63.5830 C.3       8 GLP5        0.0000 
     34 CA         23.2535    1.8850   58.7485 C.3       4 GLC5        0.0000 
     35 CA         23.5000   -0.0650   59.0590 C.3      12 GLL5        0.0000 
     36 CA         26.7735   -0.7665   56.6795 C.3       4 GLC5        0.0000 
     37 CA         26.6130   -2.4090   58.1530 C.3      12 GLL5        0.0000 
     38 CA         26.9340    0.8760   55.2060 C.3       8 GLP5        0.0000 
     39 CA         26.0535   -4.3305   58.8295 C.3       4 GLC5        0.0000 
     40 CA         25.4940   -6.2520   59.5060 C.3       8 GLP5        0.0000 
     41 CA         16.8978    0.4492   57.4477 C.3       4 GLC5        0.0000 
     42 CA         16.5290    0.7350   59.4810 C.3      12 GLL5        0.0000 
     43 CA         17.8440    0.2230   55.9120 C.3       8 GLP5        0.0000 
     44 CA         19.6668    0.1975   63.3980 C.3       4 GLC5        0.0000 
     45 CA         19.9460   -0.4410   65.4380 C.3       8 GLP5        0.0000 
     46 CA         21.1805    3.5335   60.1225 C.3       4 GLC5        0.0000 
     47 CA         21.2020    2.5650   61.4610 C.3      12 GLL5        0.0000 
     48 CA         21.8400    4.4910   58.6610 C.3       8 GLP5        0.0000 
     49 CA         22.0995    2.8910   62.9790 C.3       4 GLC5        0.0000 
     50 CA         19.8400    2.5870   61.7070 C.3      12 GLL5        0.0000 
     51 CA         23.0320    3.8050   64.6180 C.3       8 GLP5        0.0000 
     52 CA         24.4330    2.1475   59.8250 C.3       4 GLC5        0.0000 
     53 CA         23.9050    0.4860   60.2720 C.3      12 GLL5        0.0000 
     54 CA         24.3530    3.9910   59.0930 C.3       8 GLP5        0.0000 
     55 CA         27.0235    0.0112   61.8518 C.3       4 GLC5        0.0000 
     56 CA         28.5010    0.3500   63.1830 C.3       8 GLP5        0.0000 
     57 CA         26.8205    0.5809   58.9354 C.3       4 GLC5        0.0000 
     58 CA         25.9710   -0.7770   60.1990 C.3      12 GLL5        0.0000 
     59 CA         28.0870    1.9810   58.1180 C.3       8 GLP5        0.0000 
     60 CA         23.1836   -1.9271   60.1824 C.3       4 GLC5        0.0000 
     61 CA         24.3380   -0.9750   58.4160 C.3      12 GLL5        0.0000 
@<TRIPOS>BOND
@<TRIPOS>SUBSTRUCTURE
     1 ALC1        4 GROUP        1 X    ALC  0     ROOT ALC X 1
     2 SEC2       17 GROUP        1 X    SEC  0     **** SEC X 2
     3 ZIC7        1 GROUP        1 X    ZIC  0     **** ZIC X 5
     4 GLC5       14 GROUP        1 X    GLC  0     **** GLC X 6
     5 ALP1        6 GROUP        1 Y    ALP  0     ROOT ALP Y 8
     6 SEP2       19 GROUP        1 Y    SEP  0     **** SEP Y 9
     7 ZIP7        3 GROUP        1 Y    ZIP  0     **** ZIP Y 12
     8 GLP5       16 GROUP        1 Y    GLP  0     **** GLP Y 13
     9 ALL1        5 GROUP        1 Z    ALL  0     ROOT ALL Z 15
    10 SEL2       18 GROUP        1 Z    SEL  0     **** SEL Z 16
    11 ZIL7        2 GROUP        1 Z    ZIL  0     **** ZIL Z 19
    12 GLL5       15 GROUP        1 Z    GLL  0     **** GLL Z 20
@<TRIPOS>SET

