#    Name: 456c_CBP_2_ligand
#    Modification time : Tue Mar 25 04:44:33 2014

@<TRIPOS>MOLECULE
456c_CBP_2_ligand
   48    50     1     0     0
SMALL
NO_CHARGES


@<TRIPOS>ATOM
      1 O1         18.5450    5.9010   60.0670 O.3       1 CBP1        0.0000 
      2 N2         17.6740    4.9330   60.5600 N.am      1 CBP1        0.0000 
      3 C3         17.3140    3.9850   59.7060 C.2       1 CBP1        0.0000 
      4 O4         17.9210    3.8180   58.6390 O.2       1 CBP1        0.0000 
      5 C5         16.0730    3.2000   60.1520 C.3       1 CBP1        0.0000 
      6 C6         16.2010    1.7060   60.6370 C.3       1 CBP1        0.0000 
      7 C7         16.5290    0.7350   59.4810 C.3       1 CBP1        0.0000 
      8 C8         15.3740    0.6160   58.4860 C.3       1 CBP1        0.0000 
      9 O9         14.1610    0.3260   59.1520 O.3       1 CBP1        0.0000 
     10 C10        13.7310    1.2090   60.1670 C.3       1 CBP1        0.0000 
     11 C11        14.8300    1.3010   61.2390 C.3       1 CBP1        0.0000 
     12 S12        17.3990    1.3910   61.9890 S.o2      1 CBP1        0.0000 
     13 O13        17.2120    2.4370   62.9410 O.2       1 CBP1        0.0000 
     14 O14        17.2400    0.0520   62.4570 O.2       1 CBP1        0.0000 
     15 C15        19.0950    1.4220   61.5710 C.ar      1 CBP1        0.0000 
     16 C16        19.8400    2.5870   61.7070 C.ar      1 CBP1        0.0000 
     17 C17        21.2020    2.5650   61.4610 C.ar      1 CBP1        0.0000 
     18 C18        21.8130    1.3780   61.0960 C.ar      1 CBP1        0.0000 
     19 C19        21.0490    0.2150   60.9320 C.ar      1 CBP1        0.0000 
     20 C20        19.6800    0.2500   61.1450 C.ar      1 CBP1        0.0000 
     21 O21        23.1930    1.4450   60.9640 O.3       1 CBP1        0.0000 
     22 C22        23.9050    0.4860   60.2720 C.ar      1 CBP1        0.0000 
     23 C23        25.1210    0.1220   60.8420 C.ar      1 CBP1        0.0000 
     24 C24        25.9710   -0.7770   60.1990 C.ar      1 CBP1        0.0000 
     25 C25        25.5620   -1.3110   58.9850 C.ar      1 CBP1        0.0000 
     26 C26        24.3380   -0.9750   58.4160 C.ar      1 CBP1        0.0000 
     27 C27        23.5000   -0.0650   59.0590 C.ar      1 CBP1        0.0000 
     28 CL28       26.6130   -2.4090   58.1530 Cl        1 CBP1        0.0000 
     29 H          17.3533    4.9793   61.5191 H         1 CBP1        0.0000 
     30 H          15.3187    3.2123   59.3142 H         1 CBP1        0.0000 
     31 H          15.5618    3.7730   60.9774 H         1 CBP1        0.0000 
     32 H          16.7486   -0.2490   59.9006 H         1 CBP1        0.0000 
     33 H          17.4191    1.0957   58.9614 H         1 CBP1        0.0000 
     34 H          15.6444   -0.1689   57.7600 H         1 CBP1        0.0000 
     35 H          15.3216    1.5654   57.9273 H         1 CBP1        0.0000 
     36 H          12.8203    0.8631   60.6626 H         1 CBP1        0.0000 
     37 H          13.5551    2.2208   59.7928 H         1 CBP1        0.0000 
     38 H          14.5427    2.0419   61.9861 H         1 CBP1        0.0000 
     39 H          14.9353    0.3330   61.7303 H         1 CBP1        0.0000 
     40 H          19.3789    3.4613   61.9895 H         1 CBP1        0.0000 
     41 H          21.7568    3.4260   61.5490 H         1 CBP1        0.0000 
     42 H          21.5097   -0.6599   60.6539 H         1 CBP1        0.0000 
     43 H          19.1121   -0.5896   60.9861 H         1 CBP1        0.0000 
     44 H          25.3988    0.5223   61.7533 H         1 CBP1        0.0000 
     45 H          26.8636   -1.0320   60.6099 H         1 CBP1        0.0000 
     46 H          24.0509   -1.3954   57.5245 H         1 CBP1        0.0000 
     47 H          22.6031    0.1930   58.6461 H         1 CBP1        0.0000 
     48 H          19.1176    6.1549   60.8465 H         1 CBP1        0.0000 
@<TRIPOS>BOND
     1    2    1 1    
     2   48    1 1    
     3    3    2 am   
     4   29    2 1    
     5    4    3 2    
     6    5    3 1    
     7    6    5 1    
     8   30    5 1    
     9   31    5 1    
    10    7    6 1    
    11   11    6 1    
    12   12    6 1    
    13    8    7 1    
    14   32    7 1    
    15   33    7 1    
    16    9    8 1    
    17   34    8 1    
    18   35    8 1    
    19   10    9 1    
    20   11   10 1    
    21   36   10 1    
    22   37   10 1    
    23   38   11 1    
    24   39   11 1    
    25   13   12 2    
    26   14   12 2    
    27   15   12 1    
    28   16   15 ar   
    29   20   15 ar   
    30   17   16 ar   
    31   40   16 1    
    32   18   17 ar   
    33   41   17 1    
    34   19   18 ar   
    35   21   18 1    
    36   20   19 ar   
    37   42   19 1    
    38   43   20 1    
    39   22   21 1    
    40   23   22 ar   
    41   27   22 ar   
    42   24   23 ar   
    43   44   23 1    
    44   25   24 ar   
    45   45   24 1    
    46   26   25 ar   
    47   28   25 1    
    48   27   26 ar   
    49   46   26 1    
    50   47   27 1    
@<TRIPOS>SUBSTRUCTURE
     1 CBP1        1 GROUP   
@<TRIPOS>SET

