#    Name: 2ohv_NHL_1_INTS_M
#    Modification time : Tue Mar 25 22:41:19 2014

@<TRIPOS>MOLECULE
2ohv_NHL_1_INTS_M
   40     0     9     0     0
SMALL
NO_CHARGES


@<TRIPOS>ATOM
      1 CA         36.8065   30.9780   68.0290 C.3       3 GLC5        0.0000 
      2 CA         36.2470   32.8940   68.4700 C.3       9 GLL5        0.0000 
      3 CA         37.3660   29.0620   67.5880 C.3       6 GLP5        0.0000 
      4 CA         33.7885   32.8015   66.3750 C.3       3 GLC5        0.0000 
      5 CA         34.9780   32.3740   68.0820 C.3       9 GLL5        0.0000 
      6 CA         32.5990   33.2290   64.6680 C.3       6 GLP5        0.0000 
      7 CA         32.6465   32.4390   66.6655 C.3       3 GLC5        0.0000 
      8 CA         32.6940   31.6490   68.6630 C.3       9 GLL5        0.0000 
      9 CA         30.2435   30.4615   68.2205 C.3       3 GLC5        0.0000 
     10 CA         31.6820   31.4440   69.6360 C.3       9 GLL5        0.0000 
     11 CA         28.8050   29.4790   66.8050 C.3       6 GLP5        0.0000 
     12 CA         39.2910   32.5795   69.6955 C.3       3 GLC5        0.0000 
     13 CA         37.8870   33.7850   70.2440 C.3       9 GLL5        0.0000 
     14 CA         40.6950   31.3740   69.1470 C.3       6 GLP5        0.0000 
     15 N          39.2910   34.7800   66.5255 N.am      2 SEC2        0.0000 
     16 N          39.5110   35.2990   67.6190 N.am      8 SEL2        0.0000 
     17 N          39.0710   34.2610   65.4320 N.am      5 SEP2        0.0000 
     18 O          35.9995   37.5630   69.2930 O.2       1 ALC1        0.0000 
     19 O          37.2920   38.1220   69.2290 O.2       7 ALL1        0.0000 
     20 O          34.7070   37.0040   69.3570 O.2       4 ALP1        0.0000 
     21 CA         34.8123   34.2760   69.1125 C.3       3 GLC5        0.0000 
     22 CA         34.0120   35.9180   69.9490 C.3       6 GLP5        0.0000 
     23 CA         35.2073   34.3065   67.2575 C.3       3 GLC5        0.0000 
     24 CA         34.8020   35.9790   66.2390 C.3       6 GLP5        0.0000 
     25 CA         36.7908   32.3865   66.9205 C.3       3 GLC5        0.0000 
     26 CA         37.9690   32.1390   65.5650 C.3       6 GLP5        0.0000 
     27 CA         34.1489   30.3708   67.4073 C.3       3 GLC5        0.0000 
     28 CA         34.7160   28.7820   66.1990 C.3       6 GLP5        0.0000 
     29 CA         30.0418   32.2482   69.9270 C.3       3 GLC5        0.0000 
     30 CA         28.2770   32.8970   69.5310 C.3       6 GLP5        0.0000 
     31 CA         31.1962   32.9030   72.1352 C.3       3 GLC5        0.0000 
     32 CA         31.9310   31.7550   71.0100 C.3       9 GLL5        0.0000 
     33 CA         29.8270   33.7910   73.0560 C.3       6 GLP5        0.0000 
     34 CA         31.5437   29.8789   70.2064 C.3       3 GLC5        0.0000 
     35 CA         31.0280   28.1070   70.3330 C.3       6 GLP5        0.0000 
     36 CA         33.8294   34.1093   70.2677 C.3       3 GLC5        0.0000 
     37 CA         33.2000   32.2750   71.4190 C.3       9 GLL5        0.0000 
     38 CA         35.0102   34.5160   70.1478 C.3       3 GLC5        0.0000 
     39 CA         35.5000   33.0080   70.8410 C.3       9 GLL5        0.0000 
     40 CA         35.9951   35.6608   70.1612 C.3       3 GLC5        0.0000 
@<TRIPOS>BOND
@<TRIPOS>SUBSTRUCTURE
     1 ALC1       18 GROUP        1 X    ALC  0     ROOT ALC X 1
     2 SEC2       15 GROUP        1 X    SEC  0     **** SEC X 2
     3 GLC5        1 GROUP        1 X    GLC  0     **** GLC X 6
     4 ALP1       20 GROUP        1 Y    ALP  0     ROOT ALP Y 8
     5 SEP2       17 GROUP        1 Y    SEP  0     **** SEP Y 9
     6 GLP5        3 GROUP        1 Y    GLP  0     **** GLP Y 13
     7 ALL1       19 GROUP        1 Z    ALL  0     ROOT ALL Z 15
     8 SEL2       16 GROUP        1 Z    SEL  0     **** SEL Z 16
     9 GLL5        2 GROUP        1 Z    GLL  0     **** GLL Z 20
@<TRIPOS>SET

