#    Name: 2ohv_NHL_1_ligand
#    Modification time : Tue Mar 25 22:41:19 2014

@<TRIPOS>MOLECULE
2ohv_NHL_1_ligand
   37    38     1     0     0
SMALL
NO_CHARGES


@<TRIPOS>ATOM
      1 C8         36.2470   32.8940   68.4700 C.ar      1 NHL400      0.0000 
      2 C7         34.9780   32.3740   68.0820 C.ar      1 NHL400      0.0000 
      3 C3         33.9610   32.1660   69.0540 C.ar      1 NHL400      0.0000 
      4 C2         32.6940   31.6490   68.6630 C.ar      1 NHL400      0.0000 
      5 C1         31.6820   31.4440   69.6360 C.ar      1 NHL400      0.0000 
      6 C6         31.9310   31.7550   71.0100 C.ar      1 NHL400      0.0000 
      7 C5         33.2000   32.2750   71.4190 C.ar      1 NHL400      0.0000 
      8 C4         34.2260   32.4860   70.4540 C.ar      1 NHL400      0.0000 
      9 C10        35.5000   33.0080   70.8410 C.ar      1 NHL400      0.0000 
     10 C9         36.5170   33.2200   69.8520 C.ar      1 NHL400      0.0000 
     11 C11        37.8870   33.7850   70.2440 C.3       1 NHL400      0.0000 
     12 CG         38.0840   35.2250   69.6560 C.3       1 NHL400      0.0000 
     13 CD         39.4530   35.3250   68.9520 C.2       1 NHL400      0.0000 
     14 OE2        39.5110   35.2990   67.6190 O.co2     1 NHL400      0.0000 
     15 OE1        40.5100   35.4340   69.5830 O.co2     1 NHL400      0.0000 
     16 CB         37.9710   36.3020   70.7970 C.3       1 NHL400      0.0000 
     17 CA         38.1470   37.7960   70.4170 C.3       1 NHL400      0.0000 
     18 N          37.2920   38.1220   69.2290 N.4       1 NHL400      0.0000 
     19 C          37.7820   38.6400   71.6250 C.2       1 NHL400      0.0000 
     20 OXT        38.5120   38.7260   72.5890 O.co2     1 NHL400      0.0000 
     21 O          36.6110   39.2780   71.5890 O.co2     1 NHL400      0.0000 
     22 H          36.9753   33.0402   67.7744 H         1 NHL400      0.0000 
     23 H          34.8000   32.1507   67.1036 H         1 NHL400      0.0000 
     24 H          32.5160   31.4272   67.6858 H         1 NHL400      0.0000 
     25 H          30.7738   31.0745   69.3607 H         1 NHL400      0.0000 
     26 H          31.1995   31.6052   71.7028 H         1 NHL400      0.0000 
     27 H          33.3658   32.4924   72.3969 H         1 NHL400      0.0000 
     28 H          35.6860   33.2286   71.8130 H         1 NHL400      0.0000 
     29 H          38.6719   33.1467   69.8553 H         1 NHL400      0.0000 
     30 H          37.9647   33.8429   71.3234 H         1 NHL400      0.0000 
     31 H          37.3058   35.4075   68.9413 H         1 NHL400      0.0000 
     32 H          38.7198   36.0450   71.5818 H         1 NHL400      0.0000 
     33 H          36.9775   36.1751   71.2864 H         1 NHL400      0.0000 
     34 H          39.1849   37.9498   70.1804 H         1 NHL400      0.0000 
     35 H          37.7798   37.9743   68.3686 H         1 NHL400      0.0000 
     36 H          36.4672   37.5575   69.1990 H         1 NHL400      0.0000 
     37 H          36.9938   39.0764   69.2367 H         1 NHL400      0.0000 
@<TRIPOS>BOND
     1    2    1 ar   
     2   10    1 ar   
     3   22    1 1    
     4    3    2 ar   
     5   23    2 1    
     6    4    3 ar   
     7    8    3 ar   
     8    5    4 ar   
     9   24    4 1    
    10    6    5 ar   
    11   25    5 1    
    12    7    6 ar   
    13   26    6 1    
    14    8    7 ar   
    15   27    7 1    
    16    9    8 ar   
    17   10    9 ar   
    18   28    9 1    
    19   11   10 1    
    20   12   11 1    
    21   29   11 1    
    22   30   11 1    
    23   13   12 1    
    24   16   12 1    
    25   31   12 1    
    26   14   13 ar   
    27   15   13 ar   
    28   17   16 1    
    29   32   16 1    
    30   33   16 1    
    31   18   17 1    
    32   19   17 1    
    33   34   17 1    
    34   35   18 1    
    35   36   18 1    
    36   37   18 1    
    37   20   19 ar   
    38   21   19 ar   
@<TRIPOS>SUBSTRUCTURE
     1 NHL400      1 GROUP   
@<TRIPOS>SET

