#    Name: 4KNJ_1_CAVITY_N1_6.mol2
#    Modification time : Tue Mar 11 11:38:51 2014

@<TRIPOS>MOLECULE
4KNJ_1_CAVITY_N1_6.mol2
   77     0     6     0     0
SMALL
NO_CHARGES


@<TRIPOS>ATOM
      1 CA         -1.7947    7.2220   15.6170 C.3       5 GLY6        0.0000 
      2 CA         -1.7372    6.8995   14.1532 C.3       5 GLY6        0.0000 
      3 CZ         -2.8702    7.8492   13.8995 C.ar      4 PHE5        0.0000 
      4 N           0.6436    4.3550   11.7331 N.2       2 ALA2        0.0000 
      5 CZ          1.8340    3.0827   10.5230 C.ar      4 PHE5        0.0000 
      6 N           1.8915    2.7601    9.0593 N.2       2 ALA2        0.0000 
      7 CA          0.7585    3.7099    8.8055 C.3       5 GLY6        0.0000 
      8 CZ         -3.9090    7.0564   15.5705 C.ar      4 PHE5        0.0000 
      9 CA         -2.7186    5.7841   14.3605 C.3       5 GLY6        0.0000 
     10 CZ         -3.8516    6.7339   14.1067 C.ar      4 PHE5        0.0000 
     11 OG         -1.5282    4.5119   13.1504 O.2       1 SER1        0.0000 
     12 CA         -2.6612    5.4616   12.8967 C.3       5 GLY6        0.0000 
     13 CZ         -3.7941    6.4113   12.6429 C.ar      4 PHE5        0.0000 
     14 CZ         -4.9271    7.3611   12.3892 C.ar      4 PHE5        0.0000 
     15 CA         -7.1931    9.2605   11.8818 C.3       5 GLY6        0.0000 
     16 OG         -0.3378    3.2396   11.9404 O.2       1 SER1        0.0000 
     17 OG         -1.4707    4.1893   11.6866 O.2       1 SER1        0.0000 
     18 DU         -3.7367    6.0888   11.1792 H         6 CUB7        0.0000 
     19 CZ         -4.8697    7.0385   10.9254 C.ar      4 PHE5        0.0000 
     20 CZ         -6.0026    7.9883   10.6717 C.ar      4 PHE5        0.0000 
     21 CA         -7.1356    8.9380   10.4180 C.3       5 GLY6        0.0000 
     22 CZ         -0.2803    2.9171   10.4766 C.ar      4 PHE5        0.0000 
     23 O          -1.4133    3.8668   10.2228 O.2       2 ALA2        0.0000 
     24 O          -2.5463    4.8165    9.9691 O.2       2 ALA2        0.0000 
     25 DU         -3.6792    5.7663    9.7154 H         6 CUB7        0.0000 
     26 DU         -5.9452    7.6657    9.2079 H         6 CUB7        0.0000 
     27 O          -0.2229    2.5945    9.0128 O.2       2 ALA2        0.0000 
     28 O          -2.4888    4.4940    8.5053 O.2       2 ALA2        0.0000 
     29 CZ         -4.8904    5.9411   15.7778 C.ar      4 PHE5        0.0000 
     30 CA         -3.7000    4.6688   14.5677 C.3       5 GLY6        0.0000 
     31 CZ         -4.8329    5.6185   14.3140 C.ar      4 PHE5        0.0000 
     32 OG         -2.5095    3.3965   13.3577 O.2       1 SER1        0.0000 
     33 DU         -3.6425    4.3463   13.1039 H         6 CUB7        0.0000 
     34 O          -4.7755    5.2960   12.8502 O.2       2 ALA2        0.0000 
     35 CZ         -5.9085    6.2457   12.5965 C.ar      4 PHE5        0.0000 
     36 CZ         -7.0414    7.1955   12.3427 C.ar      4 PHE5        0.0000 
     37 OG         -2.4521    3.0740   11.8939 O.2       1 SER1        0.0000 
     38 O          -3.5851    4.0237   11.6401 O.2       2 ALA2        0.0000 
     39 O          -4.7180    4.9735   11.3864 O.2       2 ALA2        0.0000 
     40 O          -5.8510    5.9232   11.1327 O.2       2 ALA2        0.0000 
     41 CA         -6.9840    6.8729   10.8790 C.3       5 GLY6        0.0000 
     42 O          -1.2617    1.8017   10.6838 O.2       2 ALA2        0.0000 
     43 O          -2.3947    2.7515   10.4301 O.2       2 ALA2        0.0000 
     44 O          -3.5276    3.7012   10.1764 O.2       2 ALA2        0.0000 
     45 O          -4.6606    4.6509    9.9226 O.2       2 ALA2        0.0000 
     46 O          -5.7936    5.6007    9.6689 O.2       2 ALA2        0.0000 
     47 CA         -6.9266    6.5504    9.4152 C.3       5 GLY6        0.0000 
     48 CA         -3.6058    2.9263   16.4925 C.3       5 GLY6        0.0000 
     49 CA         -4.7388    3.8760   16.2387 C.3       5 GLY6        0.0000 
     50 CA         -5.8717    4.8257   15.9850 C.3       5 GLY6        0.0000 
     51 OG         -3.5483    2.6037   15.0287 O.2       1 SER1        0.0000 
     52 CA         -4.6813    3.5535   14.7750 C.3       5 GLY6        0.0000 
     53 O          -5.8143    4.5032   14.5212 O.2       2 ALA2        0.0000 
     54 CA         -6.9473    5.4529   14.2675 C.3       5 GLY6        0.0000 
     55 OG         -3.4909    2.2812   13.5649 O.2       1 SER1        0.0000 
     56 O          -4.6239    3.2309   13.3112 O.2       2 ALA2        0.0000 
     57 OG         -2.3005    1.0089   12.3549 O.2       1 SER1        0.0000 
     58 OG         -3.4335    1.9587   12.1011 O.2       1 SER1        0.0000 
     59 O          -4.5664    2.9084   11.8474 O.2       2 ALA2        0.0000 
     60 O          -2.2430    0.6864   10.8911 O.2       2 ALA2        0.0000 
     61 O          -3.3760    1.6361   10.6373 O.2       2 ALA2        0.0000 
     62 O          -4.5090    2.5859   10.3836 O.2       2 ALA2        0.0000 
     63 CA         -5.7776    3.0832   17.9098 C.3       5 GLY6        0.0000 
     64 O          -4.5871    1.8109   16.6997 O.2       2 ALA2        0.0000 
     65 CA         -5.7201    2.7607   16.4460 C.3       5 GLY6        0.0000 
     66 CA         -6.8531    3.7104   16.1923 C.3       5 GLY6        0.0000 
     67 OD1        -4.5297    1.4884   15.2359 O.3       3 ASP3        0.0000 
     68 CA         -5.6627    2.4381   14.9822 C.3       5 GLY6        0.0000 
     69 CA         -6.7956    3.3879   14.7285 C.3       5 GLY6        0.0000 
     70 N          -4.4723    1.1659   13.7722 N.2       2 ALA2        0.0000 
     71 O          -5.6052    2.1156   13.5184 O.2       2 ALA2        0.0000 
     72 CA         -3.2818   -0.1064   12.5621 C.3       5 GLY6        0.0000 
     73 N          -4.4148    0.8433   12.3084 N.2       2 ALA2        0.0000 
     74 O          -5.5478    1.7931   12.0546 O.2       2 ALA2        0.0000 
     75 CA         -3.2244   -0.4289   11.0983 C.3       5 GLY6        0.0000 
     76 O          -4.3574    0.5208   10.8446 O.2       2 ALA2        0.0000 
     77 N          -4.2632   -1.2217   12.7694 N.2       2 ALA2        0.0000 
@<TRIPOS>BOND
@<TRIPOS>SUBSTRUCTURE
     1 SER1       11 GROUP   
     2 ALA2        4 GROUP   
     3 ASP3       67 GROUP   
     4 PHE5        3 GROUP   
     5 GLY6        1 GROUP   
     6 CUB7       18 GROUP   
@<TRIPOS>SET

