#    Name: 4knj_E1F_1_INTS_M
#    Modification time : Tue Mar 25 08:06:06 2014

@<TRIPOS>MOLECULE
4knj_E1F_1_INTS_M
   45     0    12     0     0
SMALL
NO_CHARGES


@<TRIPOS>ATOM
      1 N          -3.9060    0.5845   18.5670 N.am      2 SEC2        0.0000 
      2 N          -5.2810    0.9990   18.2230 N.am     10 SEL2        0.0000 
      3 N          -2.5310    0.1700   18.9110 N.am      6 SEP2        0.0000 
      4 CA         -1.6230    6.6715   15.9090 C.3       4 GLC5        0.0000 
      5 CA         -1.1540    8.3340   15.0240 C.3      12 GLL5        0.0000 
      6 CA         -2.0920    5.0090   16.7940 C.3       8 GLP5        0.0000 
      7 CA         -0.3825    8.9755   16.9480 C.3       4 GLC5        0.0000 
      8 CA          0.3890    9.6170   18.8720 C.3       8 GLP5        0.0000 
      9 CA         -7.5380    3.3005   15.3245 C.3       4 GLC5        0.0000 
     10 CA         -5.5920    3.4000   15.8160 C.3      12 GLL5        0.0000 
     11 CA         -9.4840    3.2010   14.8330 C.3       8 GLP5        0.0000 
     12 CA         -7.9930    4.7840   16.3090 C.3       4 GLC5        0.0000 
     13 CA         -6.6640    3.8650   17.1110 C.3      12 GLL5        0.0000 
     14 CA         -9.3220    5.7030   15.5070 C.3       8 GLP5        0.0000 
     15 CA         -6.7360    5.5530   17.7930 C.3       4 GLC5        0.0000 
     16 CA         -6.8080    7.2410   18.4750 C.3       8 GLP5        0.0000 
     17 CA         -8.0305    3.5735   18.1840 C.3       4 GLC5        0.0000 
     18 CA         -9.3970    3.2820   19.2570 C.3       8 GLP5        0.0000 
     19 CA         -7.2080    5.0565   15.2520 C.3       4 GLC5        0.0000 
     20 CA         -5.0940    4.4100   14.9970 C.3      12 GLL5        0.0000 
     21 CA         -2.7340    0.3515   14.3885 C.3       4 GLC5        0.0000 
     22 CA         -4.2970    1.6630   14.6070 C.3      12 GLL5        0.0000 
     23 CA         -1.1710   -0.9600   14.1700 C.3       8 GLP5        0.0000 
     24 CA         -3.6365    3.5305   16.2045 C.3       4 GLC5        0.0000 
     25 CA         -5.1810    2.0520   15.6150 C.3      12 GLL5        0.0000 
     26 O          -4.2705   -1.4195   16.7725 O.2       1 ALC1        0.0000 
     27 O          -5.0160   -0.7010   16.1160 O.2       9 ALL1        0.0000 
     28 O          -3.5250   -2.1380   17.4290 O.2       5 ALP1        0.0000 
     29 Zn         -5.8045   -1.2490   15.6550 Zn        3 ZIC7        0.0000 
     30 Zn         -5.0160   -0.7010   16.1160 Zn       11 ZIL7        0.0000 
     31 Zn         -6.5930   -1.7970   15.1940 Zn        7 ZIP7        0.0000 
     32 CA         -2.1410    5.0025   14.7940 C.3       4 GLC5        0.0000 
     33 CA         -2.1900    4.9960   12.7940 C.3      12 GLL5        0.0000 
     34 CA         -0.0410    6.7255   14.1040 C.3       4 GLC5        0.0000 
     35 CA         -1.5180    7.5830   12.7890 C.3      12 GLL5        0.0000 
     36 CA          1.4360    5.8680   15.4190 C.3       8 GLP5        0.0000 
     37 CA         -1.7157   10.2557   16.1245 C.3       4 GLC5        0.0000 
     38 CA         -2.3820   11.5410   17.4720 C.3       8 GLP5        0.0000 
     39 CA          0.3473    8.0167   15.5490 C.3       4 GLC5        0.0000 
     40 CA         -0.9450    9.6070   14.5300 C.3      12 GLL5        0.0000 
     41 CA          1.7440    7.0630   16.3210 C.3       8 GLP5        0.0000 
     42 CA         -4.9655    4.5118   17.5403 C.3       4 GLC5        0.0000 
     43 CA         -3.8030    5.3910   18.6170 C.3       8 GLP5        0.0000 
     44 CA         -3.1519    4.2308   15.4691 C.3       4 GLC5        0.0000 
     45 CA         -4.1770    4.0320   14.0120 C.3      12 GLL5        0.0000 
@<TRIPOS>BOND
@<TRIPOS>SUBSTRUCTURE
     1 ALC1       26 GROUP        1 X    ALC  0     ROOT ALC X 1
     2 SEC2        1 GROUP        1 X    SEC  0     **** SEC X 2
     3 ZIC7       29 GROUP        1 X    ZIC  0     **** ZIC X 5
     4 GLC5        4 GROUP        1 X    GLC  0     **** GLC X 6
     5 ALP1       28 GROUP        1 Y    ALP  0     ROOT ALP Y 8
     6 SEP2        3 GROUP        1 Y    SEP  0     **** SEP Y 9
     7 ZIP7       31 GROUP        1 Y    ZIP  0     **** ZIP Y 12
     8 GLP5        6 GROUP        1 Y    GLP  0     **** GLP Y 13
     9 ALL1       27 GROUP        1 Z    ALL  0     ROOT ALL Z 15
    10 SEL2        2 GROUP        1 Z    SEL  0     **** SEL Z 16
    11 ZIL7       30 GROUP        1 Z    ZIL  0     **** ZIL Z 19
    12 GLL5        5 GROUP        1 Z    GLL  0     **** GLL Z 20
@<TRIPOS>SET

