#    Name: 4knj_E1F_1_ligand
#    Modification time : Tue Mar 25 08:06:06 2014

@<TRIPOS>MOLECULE
4knj_E1F_1_ligand
   30    31     1     0     0
SMALL
NO_CHARGES


@<TRIPOS>ATOM
      1 O18        -5.2810    0.9990   18.2230 O.2       1 E1F302      0.0000 
      2 C13        -1.1540    8.3340   15.0240 C.ar      1 E1F302      0.0000 
      3 C1         -4.1770    4.0320   14.0120 C.ar      1 E1F302      0.0000 
      4 C2         -5.5920    3.4000   15.8160 C.ar      1 E1F302      0.0000 
      5 CL1        -6.6640    3.8650   17.1110 Cl        1 E1F302      0.0000 
      6 C21        -5.0940    4.4100   14.9970 C.ar      1 E1F302      0.0000 
      7 C5         -3.7880    2.6840   13.7840 C.ar      1 E1F302      0.0000 
      8 C4         -4.2970    1.6630   14.6070 C.ar      1 E1F302      0.0000 
      9 C3         -5.1810    2.0520   15.6150 C.ar      1 E1F302      0.0000 
     10 S16        -5.8060    0.7420   16.6810 S.o2      1 E1F302      0.0000 
     11 N19        -5.0160   -0.7010   16.1160 N.pl3     1 E1F302      0.0000 
     12 O17        -7.3500    0.8130   16.6030 O.2       1 E1F302      0.0000 
     13 C6         -3.6260    5.1210   13.1820 C.2       1 E1F302      0.0000 
     14 O12        -4.3210    6.1050   12.9000 O.2       1 E1F302      0.0000 
     15 C7         -2.1900    4.9960   12.7940 C.3       1 E1F302      0.0000 
     16 S8         -1.8940    6.3250   11.5900 S.3       1 E1F302      0.0000 
     17 C9         -1.5180    7.5830   12.7890 C.ar      1 E1F302      0.0000 
     18 N11        -1.3100    8.8320   12.2590 N.ar      1 E1F302      0.0000 
     19 C14        -1.0340    9.8540   13.1400 C.ar      1 E1F302      0.0000 
     20 C15        -0.9450    9.6070   14.5300 C.ar      1 E1F302      0.0000 
     21 N10        -1.4610    7.3290   14.1490 N.ar      1 E1F302      0.0000 
     22 H          -1.0787    8.1523   16.0307 H         1 E1F302      0.0000 
     23 H          -5.3792    5.3678   15.1070 H         1 E1F302      0.0000 
     24 H          -3.1434    2.4651   13.0266 H         1 E1F302      0.0000 
     25 H          -4.0350    0.7057   14.4723 H         1 E1F302      0.0000 
     26 H          -4.1195   -0.8963   16.5137 H         1 E1F302      0.0000 
     27 H          -1.9583    4.1414   12.2332 H         1 E1F302      0.0000 
     28 H          -1.5068    5.2355   13.5519 H         1 E1F302      0.0000 
     29 H          -0.8878   10.8168   12.7984 H         1 E1F302      0.0000 
     30 H          -0.7236   10.3862   15.1616 H         1 E1F302      0.0000 
@<TRIPOS>BOND
     1   10    1 2    
     2   20    2 ar   
     3   21    2 ar   
     4   22    2 1    
     5    6    3 ar   
     6    7    3 ar   
     7   13    3 1    
     8    5    4 1    
     9    6    4 ar   
    10    9    4 ar   
    11   23    6 1    
    12    8    7 ar   
    13   24    7 1    
    14    9    8 ar   
    15   25    8 1    
    16   10    9 1    
    17   11   10 1    
    18   12   10 2    
    19   26   11 1    
    20   14   13 2    
    21   15   13 1    
    22   16   15 1    
    23   27   15 1    
    24   28   15 1    
    25   17   16 1    
    26   18   17 ar   
    27   21   17 ar   
    28   19   18 ar   
    29   20   19 ar   
    30   29   19 1    
    31   30   20 1    
@<TRIPOS>SUBSTRUCTURE
     1 E1F302      1 GROUP   
@<TRIPOS>SET

