#    Name: 3mvm_39P_1_INTS_M
#    Modification time : Mon Mar 24 23:43:44 2014

@<TRIPOS>MOLECULE
3mvm_39P_1_INTS_M
   78     0     9     0     0
SMALL
NO_CHARGES


@<TRIPOS>ATOM
      1 CA         -3.8370    9.4220   35.5800 C.3       3 GLC5        0.0000 
      2 CA         -2.2610    8.0400   36.0660 C.3       9 GLL5        0.0000 
      3 CA         -5.4130   10.8040   35.0940 C.3       6 GLP5        0.0000 
      4 N          -2.6565   11.5680   36.7675 N.am      2 SEC2        0.0000 
      5 N          -2.4650   10.4040   36.2250 N.am      8 SEL2        0.0000 
      6 N          -2.8480   12.7320   37.3100 N.am      5 SEP2        0.0000 
      7 CA         -0.7640   11.7140   35.5220 C.3       3 GLC5        0.0000 
      8 CA         -1.1510   10.7410   33.5530 C.3       9 GLL5        0.0000 
      9 CA         -0.3770   12.6870   37.4910 C.3       6 GLP5        0.0000 
     10 CA          0.3310   11.7545   33.1315 C.3       3 GLC5        0.0000 
     11 CA          1.8130   12.7680   32.7100 C.3       6 GLP5        0.0000 
     12 CA         -3.8880   10.9180   33.8810 C.3       3 GLC5        0.0000 
     13 CA         -2.3630   11.0320   32.6680 C.3       9 GLL5        0.0000 
     14 CA         -3.2915    8.5485   31.4210 C.3       3 GLC5        0.0000 
     15 CA         -2.2770   10.1430   31.4460 C.3       9 GLL5        0.0000 
     16 CA         -4.3060    6.9540   31.3960 C.3       6 GLP5        0.0000 
     17 CA         -4.7410    8.2450   38.1200 C.3       3 GLC5        0.0000 
     18 CA         -3.0070    8.5880   38.5580 C.3       9 GLL5        0.0000 
     19 CA         -6.4750    7.9020   37.6820 C.3       6 GLP5        0.0000 
     20 CA         -2.2705    8.9085   40.5960 C.3       3 GLC5        0.0000 
     21 CA         -1.5340    9.2290   42.6340 C.3       6 GLP5        0.0000 
     22 CA         -4.1155   10.4065   38.1890 C.3       3 GLC5        0.0000 
     23 CA         -5.2240   12.2250   37.8200 C.3       6 GLP5        0.0000 
     24 CA         -1.7515   10.2045   38.6355 C.3       3 GLC5        0.0000 
     25 CA         -0.4960   11.8210   38.7130 C.3       6 GLP5        0.0000 
     26 O          -4.2285    6.7345   40.3825 O.2       1 ALC1        0.0000 
     27 O          -3.4060    5.5170   39.6110 O.2       7 ALL1        0.0000 
     28 O          -5.0510    7.9520   41.1540 O.2       4 ALP1        0.0000 
     29 CA         -7.0615    2.4325   42.4115 C.3       3 GLC5        0.0000 
     30 CA         -5.4340    3.0580   41.5830 C.3       9 GLL5        0.0000 
     31 CA         -8.6890    1.8070   43.2400 C.3       6 GLP5        0.0000 
     32 CA         -4.4710    2.1095   44.2850 C.3       3 GLC5        0.0000 
     33 CA         -4.3800    2.4770   42.3030 C.3       9 GLL5        0.0000 
     34 CA         -4.5620    1.7420   46.2670 C.3       6 GLP5        0.0000 
     35 CA         -5.8495    1.2040   43.1050 C.3       3 GLC5        0.0000 
     36 CA         -7.3190   -0.0690   43.9070 C.3       6 GLP5        0.0000 
     37 N           0.5330    2.4540   42.4735 N.am      2 SEC2        0.0000 
     38 N          -0.7960    2.9320   42.7280 N.am      8 SEL2        0.0000 
     39 N           1.8620    1.9760   42.2190 N.am      5 SEP2        0.0000 
     40 O          -3.0935    0.2695   43.2865 O.2       1 ALC1        0.0000 
     41 O          -2.1080    1.2310   43.5810 O.2       7 ALL1        0.0000 
     42 O          -4.0790   -0.6920   42.9920 O.2       4 ALP1        0.0000 
     43 CA         -1.8120   -1.9225   46.4515 C.3       3 GLC5        0.0000 
     44 CA         -0.1550   -0.6930   45.8090 C.3       9 GLL5        0.0000 
     45 CA         -3.4690   -3.1520   47.0940 C.3       6 GLP5        0.0000 
     46 CA          0.4005   -1.7465   47.1115 C.3       3 GLC5        0.0000 
     47 CA          0.9560   -2.8000   48.4140 C.3       6 GLP5        0.0000 
     48 CA         -2.7285   -1.1965   45.0250 C.3       3 GLC5        0.0000 
     49 CA         -1.1290   -0.6170   44.9520 C.3       9 GLL5        0.0000 
     50 CA         -4.3280   -1.7760   45.0980 C.3       6 GLP5        0.0000 
     51 CA         -2.3310    0.7415   46.1090 C.3       3 GLC5        0.0000 
     52 CA         -3.5330    2.1000   47.2660 C.3       6 GLP5        0.0000 
     53 CA         -6.3975    6.2995   38.7890 C.3       3 GLC5        0.0000 
     54 CA         -6.3200    4.6970   39.8960 C.3       9 GLL5        0.0000 
     55 CA         -5.7530    5.5995   41.5175 C.3       3 GLC5        0.0000 
     56 CA         -5.1860    6.5020   43.1390 C.3       6 GLP5        0.0000 
     57 CA         -4.5835    7.4305   37.5385 C.3       3 GLC5        0.0000 
     58 CA         -2.7050    6.2700   37.3810 C.3       9 GLL5        0.0000 
     59 CA         -4.8243    5.4005   41.8585 C.3       3 GLC5        0.0000 
     60 CA         -3.7680    4.5120   40.4930 C.3       9 GLL5        0.0000 
     61 CA         -6.6943    2.9303   39.5027 C.3       3 GLC5        0.0000 
     62 CA         -5.1570    4.0860   40.6630 C.3       9 GLL5        0.0000 
     63 CA         -7.6500    1.4690   38.7260 C.3       6 GLP5        0.0000 
     64 CA         -5.0465    4.6347   42.5410 C.3       3 GLC5        0.0000 
     65 CA         -4.6990    1.2721   41.0588 C.3       3 GLC5        0.0000 
     66 CA         -5.4290   -0.2970   40.0890 C.3       6 GLP5        0.0000 
     67 CA         -1.7205    4.5777   42.9342 C.3       3 GLC5        0.0000 
     68 CA         -3.0310    2.9150   42.1140 C.3       9 GLL5        0.0000 
     69 CA         -0.5560    5.7390   44.2000 C.3       6 GLP5        0.0000 
     70 CA         -4.0355    4.9592   42.4038 C.3       3 GLC5        0.0000 
     71 CA         -2.7390    3.9180   41.2230 C.3       9 GLL5        0.0000 
     72 CA          0.6455   -0.0755   43.7893 C.3       3 GLC5        0.0000 
     73 CA          1.9330    0.5040   42.1980 C.3       6 GLP5        0.0000 
     74 CA         -0.4130   -2.0580   44.4877 C.3       3 GLC5        0.0000 
     75 CA         -0.1840   -3.4610   43.5950 C.3       6 GLP5        0.0000 
     76 CA         -0.8271    6.4765   37.4886 C.3       3 GLC5        0.0000 
     77 CA         -2.6790    7.6480   37.4090 C.3       9 GLL5        0.0000 
     78 CA          0.7760    5.7390   38.4210 C.3       6 GLP5        0.0000 
@<TRIPOS>BOND
@<TRIPOS>SUBSTRUCTURE
     1 ALC1       26 GROUP        1 X    ALC  0     ROOT ALC X 1
     2 SEC2        4 GROUP        1 X    SEC  0     **** SEC X 2
     3 GLC5        1 GROUP        1 X    GLC  0     **** GLC X 6
     4 ALP1       28 GROUP        1 Y    ALP  0     ROOT ALP Y 8
     5 SEP2        6 GROUP        1 Y    SEP  0     **** SEP Y 9
     6 GLP5        3 GROUP        1 Y    GLP  0     **** GLP Y 13
     7 ALL1       27 GROUP        1 Z    ALL  0     ROOT ALL Z 15
     8 SEL2        5 GROUP        1 Z    SEL  0     **** SEL Z 16
     9 GLL5        2 GROUP        1 Z    GLL  0     **** GLL Z 20
@<TRIPOS>SET

