#    Name: 3mvm_39P_1_ligand
#    Modification time : Mon Mar 24 23:43:44 2014

@<TRIPOS>MOLECULE
3mvm_39P_1_ligand
   55    58     1     0     0
SMALL
NO_CHARGES


@<TRIPOS>ATOM
      1 N1         -2.3400    5.8340   36.1510 N.pl3     1 39P361      0.0000 
      2 N2         -2.2860    4.4170   35.8610 N.2       1 39P361      0.0000 
      3 C3         -2.5880    3.4830   36.7760 C.2       1 39P361      0.0000 
      4 N4         -2.9720    3.8850   38.0660 N.2       1 39P361      0.0000 
      5 C5         -3.0360    5.1870   38.3770 C.2       1 39P361      0.0000 
      6 C6         -2.7050    6.2700   37.3810 C.2       1 39P361      0.0000 
      7 C7         -2.6790    7.6480   37.4090 C.2       1 39P361      0.0000 
      8 C8         -2.2610    8.0400   36.0660 C.2       1 39P361      0.0000 
      9 C9         -2.0760    6.8980   35.3690 C.2       1 39P361      0.0000 
     10 C10        -2.0680    9.4300   35.5420 C.2       1 39P361      0.0000 
     11 O11        -2.4650   10.4040   36.2250 O.2       1 39P361      0.0000 
     12 N12        -1.4580    9.5220   34.3260 N.am      1 39P361      0.0000 
     13 C13        -1.1510   10.7410   33.5530 C.3       1 39P361      0.0000 
     14 C14        -2.3630   11.0320   32.6680 C.3       1 39P361      0.0000 
     15 C15        -2.2770   10.1430   31.4460 C.3       1 39P361      0.0000 
     16 C16        -3.0070    8.5880   38.5580 C.3       1 39P361      0.0000 
     17 N17        -3.4060    5.5170   39.6110 N.pl3     1 39P361      0.0000 
     18 C18        -3.7680    4.5120   40.4930 C.ar      1 39P361      0.0000 
     19 C19        -5.1570    4.0860   40.6630 C.ar      1 39P361      0.0000 
     20 C20        -5.4340    3.0580   41.5830 C.ar      1 39P361      0.0000 
     21 C21        -4.3800    2.4770   42.3030 C.ar      1 39P361      0.0000 
     22 C22        -3.0310    2.9150   42.1140 C.ar      1 39P361      0.0000 
     23 C23        -2.7390    3.9180   41.2230 C.ar      1 39P361      0.0000 
     24 C24        -1.9020    2.3420   42.8410 C.2       1 39P361      0.0000 
     25 O25        -0.7960    2.9320   42.7280 O.2       1 39P361      0.0000 
     26 N26        -2.1080    1.2310   43.5810 N.am      1 39P361      0.0000 
     27 C27        -1.2100    0.7670   44.4850 C.2       1 39P361      0.0000 
     28 N28        -0.2490    1.4480   45.1150 N.2       1 39P361      0.0000 
     29 O29         0.4170    0.5310   45.9500 O.3       1 39P361      0.0000 
     30 C30        -0.1550   -0.6930   45.8090 C.2       1 39P361      0.0000 
     31 C31        -1.1290   -0.6170   44.9520 C.2       1 39P361      0.0000 
     32 C32        -6.3200    4.6970   39.8960 C.3       1 39P361      0.0000 
     33 H          -2.5476    2.4768   36.5634 H         1 39P361      0.0000 
     34 H          -1.7927    6.8530   34.4362 H         1 39P361      0.0000 
     35 H          -1.1458    8.6145   33.8348 H         1 39P361      0.0000 
     36 H          -0.2887   10.5893   32.9213 H         1 39P361      0.0000 
     37 H          -0.9908   11.5830   34.2095 H         1 39P361      0.0000 
     38 H          -2.3451   12.0686   32.3695 H         1 39P361      0.0000 
     39 H          -3.2655   10.8140   33.2174 H         1 39P361      0.0000 
     40 H          -3.4315    6.4980   39.9310 H         1 39P361      0.0000 
     41 H          -6.3920    2.7402   41.7233 H         1 39P361      0.0000 
     42 H          -4.5661    1.7264   42.9777 H         1 39P361      0.0000 
     43 H          -1.7710    4.2360   41.0879 H         1 39P361      0.0000 
     44 H          -3.0148    0.6942   43.4505 H         1 39P361      0.0000 
     45 H           0.1453   -1.4897   46.2941 H         1 39P361      0.0000 
     46 H          -1.7313   -1.2798   44.6259 H         1 39P361      0.0000 
     47 H          -1.4428   10.3126   30.9213 H         1 39P361      0.0000 
     48 H          -2.2770    9.1735   31.6913 H         1 39P361      0.0000 
     49 H          -3.0479   10.2885   30.8259 H         1 39P361      0.0000 
     50 H          -2.4120    8.4324   39.3465 H         1 39P361      0.0000 
     51 H          -2.9006    9.5470   38.2952 H         1 39P361      0.0000 
     52 H          -3.9487    8.4735   38.8743 H         1 39P361      0.0000 
     53 H          -6.4043    5.6783   40.0690 H         1 39P361      0.0000 
     54 H          -6.2151    4.5815   38.9083 H         1 39P361      0.0000 
     55 H          -7.1924    4.2787   40.1490 H         1 39P361      0.0000 
@<TRIPOS>BOND
     1    2    1 1    
     2    6    1 1    
     3    9    1 1    
     4    3    2 2    
     5    4    3 1    
     6   33    3 1    
     7    5    4 2    
     8    6    5 1    
     9   17    5 1    
    10    7    6 2    
    11    8    7 1    
    12   16    7 1    
    13    9    8 2    
    14   10    8 1    
    15   34    9 1    
    16   11   10 2    
    17   12   10 am   
    18   13   12 1    
    19   35   12 1    
    20   14   13 1    
    21   36   13 1    
    22   37   13 1    
    23   15   14 1    
    24   38   14 1    
    25   39   14 1    
    26   47   15 1    
    27   48   15 1    
    28   49   15 1    
    29   50   16 1    
    30   51   16 1    
    31   52   16 1    
    32   18   17 1    
    33   40   17 1    
    34   19   18 ar   
    35   23   18 ar   
    36   20   19 ar   
    37   32   19 1    
    38   21   20 ar   
    39   41   20 1    
    40   22   21 ar   
    41   42   21 1    
    42   23   22 ar   
    43   24   22 1    
    44   43   23 1    
    45   25   24 2    
    46   26   24 am   
    47   27   26 1    
    48   44   26 1    
    49   28   27 2    
    50   31   27 1    
    51   29   28 1    
    52   30   29 1    
    53   31   30 2    
    54   45   30 1    
    55   46   31 1    
    56   53   32 1    
    57   54   32 1    
    58   55   32 1    
@<TRIPOS>SUBSTRUCTURE
     1 39P361      1 GROUP   
@<TRIPOS>SET

