#    Name: 3hv8_C2E_1_INTS_M
#    Modification time : Tue Mar 25 15:07:50 2014

@<TRIPOS>MOLECULE
3hv8_C2E_1_INTS_M
   50     0    12     0     0
SMALL
NO_CHARGES


@<TRIPOS>ATOM
      1 CA        -23.3735   -2.0285  -14.8035 C.3       4 GLC5        0.0000 
      2 CA        -23.7610   -1.6060  -16.8840 C.3      12 GLL5        0.0000 
      3 CA        -22.9860   -2.4510  -12.7230 C.3       8 GLP5        0.0000 
      4 CA        -21.7255   -1.0040  -15.2935 C.3       4 GLC5        0.0000 
      5 CA        -22.5620   -0.6400  -17.0340 C.3      12 GLL5        0.0000 
      6 CA        -20.8890   -1.3680  -13.5530 C.3       8 GLP5        0.0000 
      7 N         -20.6285    3.8380  -16.6055 N.am      2 SEC2        0.0000 
      8 N         -21.6340    3.4590  -17.7370 N.am     10 SEL2        0.0000 
      9 N         -19.6230    4.2170  -15.4740 N.am      6 SEP2        0.0000 
     10 N         -20.4375    6.2240  -19.1180 N.am      2 SEC2        0.0000 
     11 N         -21.6550    5.7600  -19.7010 N.am     10 SEL2        0.0000 
     12 N         -19.2200    6.6880  -18.5350 N.am      6 SEP2        0.0000 
     13 O         -22.5015    5.1205  -22.3020 O.2       1 ALC1        0.0000 
     14 O         -22.5100    4.3400  -21.1980 O.2       9 ALL1        0.0000 
     15 O         -22.4930    5.9010  -23.4060 O.2       5 ALP1        0.0000 
     16 O         -22.9670    4.3980  -23.1025 O.2       1 ALC1        0.0000 
     17 O         -23.4410    2.8950  -22.7990 O.2       9 ALL1        0.0000 
     18 NZ        -20.8295   -4.2695  -16.4070 N.4       3 LYC4        0.0000 
     19 NZ        -22.2310   -4.0300  -15.9710 N.4      11 LYL4        0.0000 
     20 NZ        -19.4390   -5.7580  -16.3820 N.4       7 LYP4        0.0000 
     21 N         -21.3190   -5.0965  -15.7660 N.am      2 SEC2        0.0000 
     22 N         -22.2310   -4.0300  -15.9710 N.am     10 SEL2        0.0000 
     23 N         -20.4070   -6.1630  -15.5610 N.am      6 SEP2        0.0000 
     24 N         -20.8295   -4.2695  -16.4070 N.am      2 SEC2        0.0000 
     25 N         -19.4280   -4.5090  -16.8430 N.am      6 SEP2        0.0000 
     26 CA        -24.8470   -6.3900  -16.1610 C.3       4 GLC5        0.0000 
     27 CA        -25.9140   -4.5930  -16.7280 C.3      12 GLL5        0.0000 
     28 CA        -23.7800   -8.1870  -15.5940 C.3       8 GLP5        0.0000 
     29 CA        -26.0145   -6.9540  -15.8625 C.3       4 GLC5        0.0000 
     30 CA        -27.0060   -4.9780  -15.7330 C.3      12 GLL5        0.0000 
     31 CA        -25.0230   -8.9300  -15.9920 C.3       8 GLP5        0.0000 
     32 CA        -26.9890   -4.2035  -11.8675 C.3       4 GLC5        0.0000 
     33 CA        -27.8830   -4.8890  -13.5490 C.3      12 GLL5        0.0000 
     34 CA        -26.0950   -3.5180  -10.1860 C.3       8 GLP5        0.0000 
     35 CA        -26.0980   -7.5785  -14.8890 C.3       4 GLC5        0.0000 
     36 CA        -27.1730   -6.2270  -13.7860 C.3      12 GLL5        0.0000 
     37 CA        -27.2825   -8.1330  -13.6640 C.3       4 GLC5        0.0000 
     38 CA        -27.3920  -10.0390  -13.5420 C.3       8 GLP5        0.0000 
     39 N         -22.6270   -6.5390  -11.7630 N.am      2 SEC2        0.0000 
     40 N         -24.1150   -6.2410  -11.9060 N.am     10 SEL2        0.0000 
     41 N         -21.1390   -6.8370  -11.6200 N.am      6 SEP2        0.0000 
     42 CA        -23.3645   -8.0225  -11.0745 C.3       4 GLC5        0.0000 
     43 CA        -24.9320   -6.9190  -11.0450 C.3      12 GLL5        0.0000 
     44 CA        -21.7970   -9.1260  -11.1040 C.3       8 GLP5        0.0000 
     45 O         -28.1105   -9.6870   -8.1720 O.2       1 ALC1        0.0000 
     46 O         -28.1740   -8.7580   -9.3590 O.2       9 ALL1        0.0000 
     47 O         -28.0470  -10.6160   -6.9850 O.2       5 ALP1        0.0000 
     48 CA        -26.7895   -8.5165  -12.6040 C.3       4 GLC5        0.0000 
     49 CA        -26.1870   -6.9940  -11.6660 C.3      12 GLL5        0.0000 
     50 CA        -25.8272   -5.2372  -10.7707 C.3       4 GLC5        0.0000 
@<TRIPOS>BOND
@<TRIPOS>SUBSTRUCTURE
     1 ALC1       13 GROUP        1 X    ALC  0     ROOT ALC X 1
     2 SEC2        7 GROUP        1 X    SEC  0     **** SEC X 2
     3 LYC4       18 GROUP        1 X    LYC  0     **** LYC X 4
     4 GLC5        1 GROUP        1 X    GLC  0     **** GLC X 6
     5 ALP1       15 GROUP        1 Y    ALP  0     ROOT ALP Y 8
     6 SEP2        9 GROUP        1 Y    SEP  0     **** SEP Y 9
     7 LYP4       20 GROUP        1 Y    LYP  0     **** LYP Y 11
     8 GLP5        3 GROUP        1 Y    GLP  0     **** GLP Y 13
     9 ALL1       14 GROUP        1 Z    ALL  0     ROOT ALL Z 15
    10 SEL2        8 GROUP        1 Z    SEL  0     **** SEL Z 16
    11 LYL4       19 GROUP        1 Z    LYL  0     **** LYL Z 18
    12 GLL5        2 GROUP        1 Z    GLL  0     **** GLL Z 20
@<TRIPOS>SET

