#    Name: 3hv8_C2E_1_ligand
#    Modification time : Tue Mar 25 15:07:50 2014

@<TRIPOS>MOLECULE
3hv8_C2E_1_ligand
   68    74     1     0     0
SMALL
NO_CHARGES


@<TRIPOS>ATOM
      1 P1        -27.6550   -1.4580  -15.2170 P.3       1 C2E900      0.0000 
      2 O2P       -28.5730   -0.3880  -14.4650 O.co2     1 C2E900      0.0000 
      3 O1P       -27.9830   -1.3500  -16.6530 O.co2     1 C2E900      0.0000 
      4 O5'       -26.0930   -1.1470  -15.1600 O.3       1 C2E900      0.0000 
      5 C5'       -25.5750   -0.1740  -16.0880 C.3       1 C2E900      0.0000 
      6 C4'       -24.9600   -0.7960  -17.3600 C.3       1 C2E900      0.0000 
      7 O4'       -24.4100    0.2680  -18.1740 O.3       1 C2E900      0.0000 
      8 C3'       -23.7610   -1.6060  -16.8840 C.3       1 C2E900      0.0000 
      9 O3'       -23.6360   -2.7860  -17.6920 O.3       1 C2E900      0.0000 
     10 C2'       -22.5620   -0.6400  -17.0340 C.3       1 C2E900      0.0000 
     11 O2'       -21.3320   -1.2950  -17.2810 O.3       1 C2E900      0.0000 
     12 C1'       -22.9960    0.1650  -18.2590 C.3       1 C2E900      0.0000 
     13 N9        -22.4350    1.5050  -18.3410 N.pl3     1 C2E900      0.0000 
     14 C8        -21.8560    2.2310  -17.3270 C.2       1 C2E900      0.0000 
     15 N7        -21.6340    3.4590  -17.7370 N.2       1 C2E900      0.0000 
     16 C5        -22.0410    3.5650  -19.0360 C.2       1 C2E900      0.0000 
     17 C6        -22.0380    4.6210  -19.9750 C.2       1 C2E900      0.0000 
     18 O6        -21.6550    5.7600  -19.7010 O.2       1 C2E900      0.0000 
     19 N1        -22.5100    4.3400  -21.1980 N.am      1 C2E900      0.0000 
     20 C2        -22.9690    3.1030  -21.5290 C.2       1 C2E900      0.0000 
     21 N2        -23.4410    2.8950  -22.7990 N.pl3     1 C2E900      0.0000 
     22 N3        -22.9780    2.1130  -20.6670 N.2       1 C2E900      0.0000 
     23 C4        -22.5320    2.3200  -19.4270 C.2       1 C2E900      0.0000 
     24 P11       -23.3530   -4.1700  -16.9210 P.3       1 C2E900      0.0000 
     25 O21       -23.1800   -5.2930  -18.0100 O.co2     1 C2E900      0.0000 
     26 O11       -22.2310   -4.0300  -15.9710 O.co2     1 C2E900      0.0000 
     27 O5A       -24.6600   -4.4130  -16.0560 O.3       1 C2E900      0.0000 
     28 C5A       -25.9140   -4.5930  -16.7280 C.3       1 C2E900      0.0000 
     29 C4A       -27.0060   -4.9780  -15.7330 C.3       1 C2E900      0.0000 
     30 O4A       -26.6530   -6.2170  -15.1000 O.3       1 C2E900      0.0000 
     31 C3A       -27.1990   -3.9900  -14.5810 C.3       1 C2E900      0.0000 
     32 O3A       -28.1030   -2.9400  -14.9020 O.3       1 C2E900      0.0000 
     33 C2A       -27.8830   -4.8890  -13.5490 C.3       1 C2E900      0.0000 
     34 O2A       -29.2610   -5.0980  -13.9040 O.3       1 C2E900      0.0000 
     35 C1A       -27.1730   -6.2270  -13.7860 C.3       1 C2E900      0.0000 
     36 N91       -26.0670   -6.3450  -12.8440 N.pl3     1 C2E900      0.0000 
     37 C81       -24.7720   -5.9360  -12.9910 C.2       1 C2E900      0.0000 
     38 N71       -24.1150   -6.2410  -11.9060 N.2       1 C2E900      0.0000 
     39 C51       -24.9320   -6.9190  -11.0450 C.2       1 C2E900      0.0000 
     40 C61       -24.7910   -7.5190   -9.7770 C.2       1 C2E900      0.0000 
     41 O61       -23.7610   -7.4320   -9.0970 O.2       1 C2E900      0.0000 
     42 N11       -25.9020   -8.1230   -9.2800 N.am      1 C2E900      0.0000 
     43 C21       -27.0940   -8.1670   -9.9510 C.2       1 C2E900      0.0000 
     44 N21       -28.1740   -8.7580   -9.3590 N.pl3     1 C2E900      0.0000 
     45 N31       -27.2490   -7.5930  -11.1150 N.2       1 C2E900      0.0000 
     46 C41       -26.1870   -6.9940  -11.6660 C.2       1 C2E900      0.0000 
     47 H         -24.7892    0.4521  -15.6169 H         1 C2E900      0.0000 
     48 H         -26.3680    0.5288  -16.4177 H         1 C2E900      0.0000 
     49 H         -25.6348   -1.3919  -17.8403 H         1 C2E900      0.0000 
     50 H         -23.8941   -1.8127  -15.8502 H         1 C2E900      0.0000 
     51 H         -22.5684    0.0140  -16.2039 H         1 C2E900      0.0000 
     52 H         -22.7321   -0.4142  -19.1396 H         1 C2E900      0.0000 
     53 H         -21.6546    1.8584  -16.4484 H         1 C2E900      0.0000 
     54 H         -22.5296    5.0973  -21.9337 H         1 C2E900      0.0000 
     55 H         -23.3839    3.6745  -23.4228 H         1 C2E900      0.0000 
     56 H         -23.8011    1.9820  -22.9906 H         1 C2E900      0.0000 
     57 H         -25.8550   -5.3869  -17.4857 H         1 C2E900      0.0000 
     58 H         -26.2335   -3.6735  -17.2382 H         1 C2E900      0.0000 
     59 H         -27.9437   -5.0855  -16.2483 H         1 C2E900      0.0000 
     60 H         -26.2793   -3.7006  -14.2070 H         1 C2E900      0.0000 
     61 H         -27.7068   -4.5649  -12.6037 H         1 C2E900      0.0000 
     62 H         -27.8799   -7.0076  -13.6403 H         1 C2E900      0.0000 
     63 H         -24.4312   -5.4936  -13.7871 H         1 C2E900      0.0000 
     64 H         -25.8471   -8.5832   -8.3276 H         1 C2E900      0.0000 
     65 H         -28.0219   -9.1400   -8.4474 H         1 C2E900      0.0000 
     66 H         -29.0219   -8.7567   -9.8892 H         1 C2E900      0.0000 
     67 H         -21.3363   -2.0904  -16.6750 H         1 C2E900      0.0000 
     68 H         -29.5464   -4.2472  -14.3452 H         1 C2E900      0.0000 
@<TRIPOS>BOND
     1    2    1 ar   
     2    3    1 ar   
     3    4    1 1    
     4   32    1 1    
     5    5    4 1    
     6    6    5 1    
     7   47    5 1    
     8   48    5 1    
     9    7    6 1    
    10    8    6 1    
    11   49    6 1    
    12   12    7 1    
    13    9    8 1    
    14   10    8 1    
    15   50    8 1    
    16   24    9 1    
    17   11   10 1    
    18   12   10 1    
    19   51   10 1    
    20   67   11 1    
    21   13   12 1    
    22   52   12 1    
    23   14   13 1    
    24   23   13 1    
    25   15   14 2    
    26   53   14 1    
    27   16   15 1    
    28   17   16 1    
    29   23   16 2    
    30   18   17 2    
    31   19   17 am   
    32   20   19 1    
    33   54   19 1    
    34   21   20 1    
    35   22   20 2    
    36   55   21 1    
    37   56   21 1    
    38   23   22 1    
    39   25   24 ar   
    40   26   24 ar   
    41   27   24 1    
    42   28   27 1    
    43   29   28 1    
    44   57   28 1    
    45   58   28 1    
    46   30   29 1    
    47   31   29 1    
    48   59   29 1    
    49   35   30 1    
    50   32   31 1    
    51   33   31 1    
    52   60   31 1    
    53   34   33 1    
    54   35   33 1    
    55   61   33 1    
    56   68   34 1    
    57   36   35 1    
    58   62   35 1    
    59   37   36 1    
    60   46   36 1    
    61   38   37 2    
    62   63   37 1    
    63   39   38 1    
    64   40   39 1    
    65   46   39 2    
    66   41   40 2    
    67   42   40 am   
    68   43   42 1    
    69   64   42 1    
    70   44   43 1    
    71   45   43 2    
    72   65   44 1    
    73   66   44 1    
    74   46   45 1    
@<TRIPOS>SUBSTRUCTURE
     1 C2E900      1 GROUP   
@<TRIPOS>SET

