#    Name: 1ZGI_1_CAVITY_N1_ALL.mol2
#    Modification time : Mon Mar 10 22:36:15 2014

@<TRIPOS>MOLECULE
1ZGI_1_CAVITY_N1_ALL.mol2
  114     0     7     0     0
SMALL
NO_CHARGES


@<TRIPOS>ATOM
      1 OG         20.3648  -16.1308   23.3966 O.2       1 SER1        0.0000 
      2 OG         19.9191  -16.5865   21.3733 O.2       1 SER1        0.0000 
      3 CZ         20.6963  -16.5875   20.0903 C.ar      5 PHE5        0.0000 
      4 N          16.3649  -17.0379   24.4819 N.2       2 ALA2        0.0000 
      5 N          15.1420  -17.4926   23.7416 N.2       2 ALA2        0.0000 
      6 O          12.6964  -18.4018   22.2609 O.2       2 ALA2        0.0000 
      7 CA         21.1993  -14.2468   23.9005 C.3       6 GLY6        0.0000 
      8 OG         19.9764  -14.7014   23.1602 O.2       1 SER1        0.0000 
      9 OG         20.7536  -14.7024   21.8772 O.2       1 SER1        0.0000 
     10 N          17.9765  -15.1549   23.7029 N.2       2 ALA2        0.0000 
     11 DU         18.7536  -15.1560   22.4199 H         7 CUB7        0.0000 
     12 OG         19.5308  -15.1570   21.1369 O.2       1 SER1        0.0000 
     13 CZ         20.3079  -15.1581   19.8539 C.ar      5 PHE5        0.0000 
     14 N          16.7537  -15.6095   22.9625 N.2       2 ALA2        0.0000 
     15 DU         17.5308  -15.6106   21.6796 H         7 CUB7        0.0000 
     16 CZ         18.3080  -15.6116   20.3966 C.ar      5 PHE5        0.0000 
     17 N          15.5309  -16.0642   22.2222 N.2       2 ALA2        0.0000 
     18 DU         16.3080  -16.0652   20.9392 H         7 CUB7        0.0000 
     19 CZ         17.0852  -16.0663   19.6563 C.ar      5 PHE5        0.0000 
     20 N          13.5309  -16.5177   22.7649 N.2       2 ALA2        0.0000 
     21 N          14.3081  -16.5188   21.4819 N.2       2 ALA2        0.0000 
     22 DU         15.0852  -16.5198   20.1989 H         7 CUB7        0.0000 
     23 O          12.3081  -16.9723   22.0245 O.2       2 ALA2        0.0000 
     24 DU         13.0853  -16.9734   20.7416 H         7 CUB7        0.0000 
     25 DU         13.8624  -16.9744   19.4586 H         7 CUB7        0.0000 
     26 DU         11.8625  -17.4280   20.0012 H         7 CUB7        0.0000 
     27 CA         10.6397  -17.8826   19.2609 C.3       6 GLY6        0.0000 
     28 CA         11.4168  -17.8836   17.9779 C.3       6 GLY6        0.0000 
     29 N          10.1940  -18.3382   17.2376 N.2       2 ALA2        0.0000 
     30 CA         19.5881  -13.2719   22.9238 C.3       6 GLY6        0.0000 
     31 CA         20.3653  -13.2730   21.6409 C.3       6 GLY6        0.0000 
     32 CZ         21.1424  -13.2740   20.3579 C.ar      5 PHE5        0.0000 
     33 CA         18.3653  -13.7265   22.1835 C.3       6 GLY6        0.0000 
     34 CA         19.1425  -13.7276   20.9005 C.3       6 GLY6        0.0000 
     35 CZ         19.9196  -13.7286   19.6175 C.ar      5 PHE5        0.0000 
     36 CZ         20.6968  -13.7297   18.3346 C.ar      5 PHE5        0.0000 
     37 N          16.3654  -14.1801   22.7262 N.2       2 ALA2        0.0000 
     38 DU         17.1425  -14.1811   21.4432 H         7 CUB7        0.0000 
     39 CZ         17.9197  -14.1822   20.1602 C.ar      5 PHE5        0.0000 
     40 CZ         18.6968  -14.1832   18.8772 C.ar      5 PHE5        0.0000 
     41 N          15.1426  -14.6347   21.9858 N.2       2 ALA2        0.0000 
     42 DU         15.9197  -14.6358   20.7028 H         7 CUB7        0.0000 
     43 CZ         16.6969  -14.6368   19.4199 C.ar      5 PHE5        0.0000 
     44 N          13.1426  -15.0883   22.5285 N.2       2 ALA2        0.0000 
     45 N          13.9198  -15.0893   21.2455 N.2       2 ALA2        0.0000 
     46 DU         14.6969  -15.0904   19.9625 H         7 CUB7        0.0000 
     47 CZ         15.4741  -15.0914   18.6795 C.ar      5 PHE5        0.0000 
     48 CZ         16.2512  -15.0925   17.3966 C.ar      5 PHE5        0.0000 
     49 N          11.9198  -15.5429   21.7882 N.2       2 ALA2        0.0000 
     50 DU         12.6970  -15.5439   20.5052 H         7 CUB7        0.0000 
     51 CA         13.4741  -15.5450   19.2222 C.3       6 GLY6        0.0000 
     52 CA         14.2513  -15.5460   17.9392 C.3       6 GLY6        0.0000 
     53 CA         11.4742  -15.9985   19.7648 C.3       6 GLY6        0.0000 
     54 CA         12.2513  -15.9996   18.4819 C.3       6 GLY6        0.0000 
     55 CA         11.0285  -16.4542   17.7415 C.3       6 GLY6        0.0000 
     56 CA         17.9770  -12.2971   21.9471 C.3       6 GLY6        0.0000 
     57 N          18.7542  -12.2981   20.6641 N.2       2 ALA2        0.0000 
     58 CA         15.9771  -12.7506   22.4898 C.3       6 GLY6        0.0000 
     59 N          16.7542  -12.7517   21.2068 N.2       2 ALA2        0.0000 
     60 N          17.5314  -12.7527   19.9238 N.2       2 ALA2        0.0000 
     61 CA         18.3085  -12.7538   18.6408 C.3       6 GLY6        0.0000 
     62 O          14.7543  -13.2052   21.7494 O.2       2 ALA2        0.0000 
     63 DU         15.5314  -13.2063   20.4665 H         7 CUB7        0.0000 
     64 N          16.3086  -13.2074   19.1835 N.2       2 ALA2        0.0000 
     65 CZ         17.0857  -13.2084   17.9005 C.ar      5 PHE5        0.0000 
     66 CZ         17.8629  -13.2095   16.6175 C.ar      5 PHE5        0.0000 
     67 N          11.9772  -13.6577   23.5751 N.2       2 ALA2        0.0000 
     68 N          12.7543  -13.6588   22.2921 N.2       2 ALA2        0.0000 
     69 DU         13.5315  -13.6599   21.0091 H         7 CUB7        0.0000 
     70 DU         14.3086  -13.6609   19.7261 H         7 CUB7        0.0000 
     71 NZ         15.0858  -13.6620   18.4432 N.2       4 LYS4        0.0000 
     72 NZ         15.8629  -13.6630   17.1602 N.2       4 LYS4        0.0000 
     73 NZ         16.6401  -13.6641   15.8772 N.2       4 LYS4        0.0000 
     74 OD1        17.4172  -13.6651   14.5942 O.3       3 ASP3        0.0000 
     75 CA         11.5315  -14.1134   21.5518 C.3       6 GLY6        0.0000 
     76 O          12.3086  -14.1145   20.2688 O.2       2 ALA2        0.0000 
     77 CA         13.0858  -14.1155   18.9858 C.3       6 GLY6        0.0000 
     78 NZ         16.9716  -14.1208   12.5709 N.2       4 LYS4        0.0000 
     79 O          11.0858  -14.5691   19.5285 O.2       2 ALA2        0.0000 
     80 N          16.3659  -11.3222   20.9704 N.2       2 ALA2        0.0000 
     81 O          13.5888  -11.7747   22.7960 O.2       2 ALA2        0.0000 
     82 CA         14.3659  -11.7758   21.5131 C.3       6 GLY6        0.0000 
     83 OG         15.1431  -11.7768   20.2301 O.2       1 SER1        0.0000 
     84 OG         15.9202  -11.7779   18.9471 O.2       1 SER1        0.0000 
     85 N          16.6974  -11.7789   17.6641 N.2       2 ALA2        0.0000 
     86 OD1        17.4745  -11.7800   16.3811 O.3       3 ASP3        0.0000 
     87 O          11.5888  -12.2283   23.3387 O.2       2 ALA2        0.0000 
     88 O          12.3660  -12.2293   22.0557 O.2       2 ALA2        0.0000 
     89 OG         13.1431  -12.2304   20.7727 O.2       1 SER1        0.0000 
     90 OG         13.9203  -12.2315   19.4897 O.2       1 SER1        0.0000 
     91 OG         14.6974  -12.2325   18.2068 O.2       1 SER1        0.0000 
     92 OG         15.4746  -12.2336   16.9238 O.2       1 SER1        0.0000 
     93 NZ         16.2517  -12.2346   15.6408 N.2       4 LYS4        0.0000 
     94 OD1        17.0289  -12.2357   14.3578 O.3       3 ASP3        0.0000 
     95 N          10.3660  -12.6829   22.5984 N.2       2 ALA2        0.0000 
     96 CA         11.1432  -12.6840   21.3154 C.3       6 GLY6        0.0000 
     97 O          11.9203  -12.6850   20.0324 O.2       2 ALA2        0.0000 
     98 CA         12.6975  -12.6861   18.7494 C.3       6 GLY6        0.0000 
     99 CA         13.4746  -12.6871   17.4664 C.3       6 GLY6        0.0000 
    100 NZ         15.8061  -12.6903   13.6175 N.2       4 LYS4        0.0000 
    101 OD1        16.5832  -12.6913   12.3345 O.3       3 ASP3        0.0000 
    102 N          12.4233  -10.3442   23.8426 N.2       2 ALA2        0.0000 
    103 CA         13.2005  -10.3453   22.5596 C.3       6 GLY6        0.0000 
    104 OG         13.9776  -10.3463   21.2767 O.2       1 SER1        0.0000 
    105 N          17.0862  -10.3505   16.1447 N.2       2 ALA2        0.0000 
    106 CA         11.2005  -10.7988   23.1023 C.3       6 GLY6        0.0000 
    107 O          11.9777  -10.7999   21.8193 O.2       2 ALA2        0.0000 
    108 OG         12.7548  -10.8009   20.5363 O.2       1 SER1        0.0000 
    109 OG         15.0863  -10.8041   16.6874 O.2       1 SER1        0.0000 
    110 N          15.8634  -10.8052   15.4044 N.2       2 ALA2        0.0000 
    111 N          16.6406  -10.8062   14.1214 N.2       2 ALA2        0.0000 
    112 NZ         14.6406  -11.2598   14.6641 N.2       4 LYS4        0.0000 
    113 N          15.4178  -11.2608   13.3811 N.2       2 ALA2        0.0000 
    114 NZ         14.1950  -11.7154   12.6408 N.2       4 LYS4        0.0000 
@<TRIPOS>BOND
@<TRIPOS>SUBSTRUCTURE
     1 SER1        1 GROUP   
     2 ALA2        4 GROUP   
     3 ASP3       74 GROUP   
     4 LYS4       71 GROUP   
     5 PHE5        3 GROUP   
     6 GLY6        7 GROUP   
     7 CUB7       11 GROUP   
@<TRIPOS>SET

