#    Name: 1zgi_382_1_INTS_M
#    Modification time : Mon Apr  7 16:59:45 2014

@<TRIPOS>MOLECULE
1zgi_382_1_INTS_M
   56     0     9     0     0
SMALL
NO_CHARGES


@<TRIPOS>ATOM
      1 CA         22.6605  -14.9715   22.1625 C.3       3 GLC5        0.0000 
      2 CA         22.0110  -14.9860   24.2840 C.3       9 GLL5        0.0000 
      3 CA         23.3100  -14.9570   20.0410 C.3       6 GLP5        0.0000 
      4 CA         20.6995  -15.9840   28.2035 C.3       3 GLC5        0.0000 
      5 CA         20.0600  -15.0240   26.4980 C.3       9 GLL5        0.0000 
      6 CA         21.3390  -16.9440   29.9090 C.3       6 GLP5        0.0000 
      7 CA         18.5425  -14.0555   27.0670 C.3       3 GLC5        0.0000 
      8 CA         17.0250  -13.0870   27.6360 C.3       6 GLP5        0.0000 
      9 CA         19.3770  -12.8795   26.7910 C.3       3 GLC5        0.0000 
     10 CA         21.0240  -13.8280   26.3050 C.3       9 GLL5        0.0000 
     11 CA         17.7300  -11.9310   27.2770 C.3       6 GLP5        0.0000 
     12 CA         17.4150  -14.8430   26.8920 C.3       3 GLC5        0.0000 
     13 CA         17.8050  -16.5990   26.1480 C.3       9 GLL5        0.0000 
     14 CA         16.4235  -16.9360   27.2555 C.3       3 GLC5        0.0000 
     15 CA         15.0420  -17.2730   28.3630 C.3       6 GLP5        0.0000 
     16 O          15.9045  -15.4305   24.0920 O.2       1 ALC1        0.0000 
     17 O          17.4150  -15.5460   23.4030 O.2       7 ALL1        0.0000 
     18 O          14.3940  -15.3150   24.7810 O.2       4 ALP1        0.0000 
     19 N          15.8185  -10.7745   19.5550 N.am      2 SEC2        0.0000 
     20 N          16.5440  -12.2110   20.0760 N.am      8 SEL2        0.0000 
     21 N          15.0930   -9.3380   19.0340 N.am      5 SEP2        0.0000 
     22 CA         14.6935   -9.9275   19.4820 C.3       3 GLC5        0.0000 
     23 CA         14.1350  -11.6760   20.7150 C.3       9 GLL5        0.0000 
     24 CA         15.2520   -8.1790   18.2490 C.3       6 GLP5        0.0000 
     25 CA         22.8362  -13.1993   27.0300 C.3       3 GLC5        0.0000 
     26 CA         23.9990  -12.3390   28.0980 C.3       6 GLP5        0.0000 
     27 CA         21.8573  -12.6461   24.7311 C.3       3 GLC5        0.0000 
     28 CA         22.3230  -14.2910   25.6190 C.3       9 GLL5        0.0000 
     29 CA         22.1190  -11.0590   23.8340 C.3       6 GLP5        0.0000 
     30 CA         18.8057  -11.6825   19.3723 C.3       3 GLC5        0.0000 
     31 CA         17.4730  -13.1050   20.5270 C.3       9 GLL5        0.0000 
     32 CA         19.4530  -10.1220   18.4640 C.3       6 GLP5        0.0000 
     33 CA         17.3800  -12.6311   22.9760 C.3       3 GLC5        0.0000 
     34 CA         17.3070  -11.5490   24.7050 C.3       6 GLP5        0.0000 
     35 CA         20.0160  -12.4047   21.7563 C.3       3 GLC5        0.0000 
     36 CA         18.8440  -13.3810   20.0340 C.3       9 GLL5        0.0000 
     37 CA         20.7520  -10.9300   23.1520 C.3       6 GLP5        0.0000 
     38 CA         14.7658  -11.2840   22.8392 C.3       3 GLC5        0.0000 
     39 CA         15.9520  -10.8680   24.4360 C.3       6 GLP5        0.0000 
     40 CA         12.3882   -8.6898   22.5340 C.3       3 GLC5        0.0000 
     41 CA         11.8770  -10.3870   23.5960 C.3       9 GLL5        0.0000 
     42 CA         12.3800   -6.9430   21.9880 C.3       6 GLP5        0.0000 
     43 CA         14.1743  -10.6523   23.7580 C.3       3 GLC5        0.0000 
     44 CA         12.9160  -10.4860   22.5640 C.3       9 GLL5        0.0000 
     45 CA         12.5793  -12.1890   24.8795 C.3       3 GLC5        0.0000 
     46 CA         13.7370  -13.4160   26.0790 C.3       6 GLP5        0.0000 
     47 CA         10.3726   -9.6709   22.8895 C.3       3 GLC5        0.0000 
     48 CA         10.9660  -11.5370   23.7640 C.3       9 GLL5        0.0000 
     49 CA          9.0640   -8.3550   22.3570 C.3       6 GLP5        0.0000 
     50 CA         12.6773  -13.1250   24.2670 C.3       3 GLC5        0.0000 
     51 CA         11.0880  -12.7730   22.9610 C.3       9 GLL5        0.0000 
     52 CA         10.0457  -13.9160   21.7530 C.3       3 GLC5        0.0000 
     53 CA          8.4740  -14.9980   21.0510 C.3       6 GLP5        0.0000 
     54 CA         10.2230  -12.2220   21.2639 C.3       3 GLC5        0.0000 
     55 CA         12.1470  -12.8950   21.9490 C.3       9 GLL5        0.0000 
     56 CA          8.8590  -11.9190   19.8720 C.3       6 GLP5        0.0000 
@<TRIPOS>BOND
@<TRIPOS>SUBSTRUCTURE
     1 ALC1       16 GROUP        1 X    ALC  0     ROOT ALC X 1
     2 SEC2       19 GROUP        1 X    SEC  0     **** SEC X 2
     3 GLC5        1 GROUP        1 X    GLC  0     **** GLC X 6
     4 ALP1       18 GROUP        1 Y    ALP  0     ROOT ALP Y 8
     5 SEP2       21 GROUP        1 Y    SEP  0     **** SEP Y 9
     6 GLP5        3 GROUP        1 Y    GLP  0     **** GLP Y 13
     7 ALL1       17 GROUP        1 Z    ALL  0     ROOT ALL Z 15
     8 SEL2       20 GROUP        1 Z    SEL  0     **** SEL Z 16
     9 GLL5        2 GROUP        1 Z    GLL  0     **** GLL Z 20
@<TRIPOS>SET

