#    Name: 1zgi_382_1_ligand
#    Modification time : Mon Apr  7 16:59:45 2014

@<TRIPOS>MOLECULE
1zgi_382_1_ligand
   54    58     1     0     0
SMALL
NO_CHARGES


@<TRIPOS>ATOM
      1 C1         22.3230  -14.2910   25.6190 C.3       1 3821001     0.0000 
      2 C2         22.0110  -14.9860   24.2840 C.3       1 3821001     0.0000 
      3 N3         21.0480  -16.1020   24.5080 N.4       1 3821001     0.0000 
      4 C4         19.7680  -15.6610   25.1350 C.3       1 3821001     0.0000 
      5 C5         20.0600  -15.0240   26.4980 C.3       1 3821001     0.0000 
      6 C6         21.0240  -13.8280   26.3050 C.3       1 3821001     0.0000 
      7 C15        18.7190  -16.8040   25.1620 C.3       1 3821001     0.0000 
      8 F17        19.2670  -18.0340   25.3410 F         1 3821001     0.0000 
      9 F18        17.8050  -16.5990   26.1480 F         1 3821001     0.0000 
     10 C19        18.0010  -16.8490   23.8070 C.3       1 3821001     0.0000 
     11 N20        17.4150  -15.5460   23.4030 N.pl3     1 3821001     0.0000 
     12 C23        17.8610  -14.8050   22.2800 C.ar      1 3821001     0.0000 
     13 C24        17.0050  -13.8380   21.6540 C.ar      1 3821001     0.0000 
     14 C25        17.4730  -13.1050   20.5270 C.ar      1 3821001     0.0000 
     15 C26        18.8440  -13.3810   20.0340 C.ar      1 3821001     0.0000 
     16 C27        19.7160  -14.3780   20.6870 C.ar      1 3821001     0.0000 
     17 N28        19.1710  -15.0470   21.8000 N.ar      1 3821001     0.0000 
     18 N31        15.7100  -13.3970   21.8900 N.2       1 3821001     0.0000 
     19 C32        15.4580  -12.4320   20.9190 C.2       1 3821001     0.0000 
     20 O33        16.5440  -12.2110   20.0760 O.3       1 3821001     0.0000 
     21 C34        14.1350  -11.6760   20.7150 C.3       1 3821001     0.0000 
     22 C36        13.0240  -11.7240   21.7700 C.ar      1 3821001     0.0000 
     23 C39        12.9160  -10.4860   22.5640 C.ar      1 3821001     0.0000 
     24 C40        11.8770  -10.3870   23.5960 C.ar      1 3821001     0.0000 
     25 C41        10.9660  -11.5370   23.7640 C.ar      1 3821001     0.0000 
     26 C42        11.0880  -12.7730   22.9610 C.ar      1 3821001     0.0000 
     27 C43        12.1470  -12.8950   21.9490 C.ar      1 3821001     0.0000 
     28 N48        12.3340  -14.1540   21.2840 N.pl3     1 3821001     0.0000 
     29 N49        12.6160  -15.3380   21.9060 N.2       1 3821001     0.0000 
     30 C50        12.6910  -16.3250   20.9570 C.2       1 3821001     0.0000 
     31 N51        12.4480  -15.7450   19.7450 N.2       1 3821001     0.0000 
     32 C52        12.2270  -14.4050   19.9490 C.2       1 3821001     0.0000 
     33 H          22.9549  -13.4281   25.4344 H         1 3821001     0.0000 
     34 H          22.8419  -14.9857   26.2717 H         1 3821001     0.0000 
     35 H          22.9407  -15.3656   23.8660 H         1 3821001     0.0000 
     36 H          21.5882  -14.2516   23.6021 H         1 3821001     0.0000 
     37 H          19.3481  -14.8551   24.4881 H         1 3821001     0.0000 
     38 H          20.5268  -15.7506   27.1451 H         1 3821001     0.0000 
     39 H          19.1405  -14.6669   26.9357 H         1 3821001     0.0000 
     40 H          20.5397  -13.0803   25.6886 H         1 3821001     0.0000 
     41 H          21.2610  -13.4058   27.2741 H         1 3821001     0.0000 
     42 H          17.2111  -17.6192   23.8621 H         1 3821001     0.0000 
     43 H          18.7246  -17.1916   23.0459 H         1 3821001     0.0000 
     44 H          16.6439  -15.1839   23.9880 H         1 3821001     0.0000 
     45 H          19.1879  -12.8727   19.2308 H         1 3821001     0.0000 
     46 H          20.6219  -14.5419   20.3391 H         1 3821001     0.0000 
     47 H          13.6928  -12.0123   19.7262 H         1 3821001     0.0000 
     48 H          14.3849  -10.5871   20.5199 H         1 3821001     0.0000 
     49 H          13.5409   -9.7292   22.3999 H         1 3821001     0.0000 
     50 H          11.7873   -9.5846   24.1581 H         1 3821001     0.0000 
     51 H          10.2246  -11.4776   24.4596 H         1 3821001     0.0000 
     52 H          10.4454  -13.5267   23.1102 H         1 3821001     0.0000 
     53 H          12.8782  -17.2442   21.1172 H         1 3821001     0.0000 
     54 H          12.0318  -13.7629   19.2665 H         1 3821001     0.0000 
@<TRIPOS>BOND
     1    2    1 1    
     2    6    1 1    
     3   33    1 1    
     4   34    1 1    
     5    3    2 1    
     6   35    2 1    
     7   36    2 1    
     8    4    3 1    
     9    5    4 1    
    10    7    4 1    
    11   37    4 1    
    12    6    5 1    
    13   38    5 1    
    14   39    5 1    
    15   40    6 1    
    16   41    6 1    
    17    8    7 1    
    18    9    7 1    
    19   10    7 1    
    20   11   10 1    
    21   42   10 1    
    22   43   10 1    
    23   12   11 1    
    24   44   11 1    
    25   13   12 ar   
    26   17   12 ar   
    27   14   13 ar   
    28   18   13 1    
    29   15   14 ar   
    30   20   14 1    
    31   16   15 ar   
    32   45   15 1    
    33   17   16 ar   
    34   46   16 1    
    35   19   18 2    
    36   20   19 1    
    37   21   19 1    
    38   22   21 1    
    39   47   21 1    
    40   48   21 1    
    41   23   22 ar   
    42   27   22 ar   
    43   24   23 ar   
    44   49   23 1    
    45   25   24 ar   
    46   50   24 1    
    47   26   25 ar   
    48   51   25 1    
    49   27   26 ar   
    50   52   26 1    
    51   28   27 1    
    52   29   28 1    
    53   32   28 1    
    54   30   29 2    
    55   31   30 1    
    56   53   30 1    
    57   32   31 2    
    58   54   32 1    
@<TRIPOS>SUBSTRUCTURE
     1 3821001     1 GROUP   
@<TRIPOS>SET

