#    Name: 3cmf_PDN_2_INTS_M
#    Modification time : Mon Mar 24 21:56:41 2014

@<TRIPOS>MOLECULE
3cmf_PDN_2_INTS_M
   48     0     6     0     0
SMALL
NO_CHARGES


@<TRIPOS>ATOM
      1 CA         -0.9855   19.3080  -29.2950 C.3       2 GLC5        0.0000 
      2 CA          0.4370   19.8150  -30.4670 C.3       6 GLL5        0.0000 
      3 CA         -2.4080   18.8010  -28.1230 C.3       4 GLP5        0.0000 
      4 CA          5.7725   21.1820  -29.2705 C.3       2 GLC5        0.0000 
      5 CA          4.6080   21.4040  -30.9050 C.3       6 GLL5        0.0000 
      6 CA          6.9370   20.9600  -27.6360 C.3       4 GLP5        0.0000 
      7 CA          5.5570   22.8485  -32.1490 C.3       2 GLC5        0.0000 
      8 CA          6.5060   24.2930  -33.3930 C.3       4 GLP5        0.0000 
      9 CA          3.5315   23.2175  -30.7800 C.3       2 GLC5        0.0000 
     10 CA          2.4550   25.0310  -30.6550 C.3       4 GLP5        0.0000 
     11 CA          7.0395   20.4255  -30.5215 C.3       2 GLC5        0.0000 
     12 CA          5.6640   20.2660  -31.5560 C.3       6 GLL5        0.0000 
     13 CA          8.4150   20.5850  -29.4870 C.3       4 GLP5        0.0000 
     14 CA          5.6575   21.2675  -34.0570 C.3       2 GLC5        0.0000 
     15 CA          5.1340   19.6500  -32.7530 C.3       6 GLL5        0.0000 
     16 CA          6.1810   22.8850  -35.3610 C.3       4 GLP5        0.0000 
     17 CA          4.0450   15.4905  -33.2410 C.3       2 GLC5        0.0000 
     18 CA          4.4310   17.0650  -34.1430 C.3       6 GLL5        0.0000 
     19 CA          3.6590   13.9160  -32.3390 C.3       4 GLP5        0.0000 
     20 CA          3.7920   17.1740  -36.2375 C.3       2 GLC5        0.0000 
     21 CA          3.1530   17.2830  -38.3320 C.3       4 GLP5        0.0000 
     22 CA          2.7635   16.4920  -34.8810 C.3       2 GLC5        0.0000 
     23 CA          1.0960   15.9190  -35.6190 C.3       4 GLP5        0.0000 
     24 CA          8.0055   19.8830  -31.5155 C.3       2 GLC5        0.0000 
     25 CA          7.5960   19.1810  -33.5440 C.3       6 GLL5        0.0000 
     26 CA          6.7645   19.7405  -36.4910 C.3       2 GLC5        0.0000 
     27 CA          5.5690   18.6530  -35.7360 C.3       6 GLL5        0.0000 
     28 CA          7.9600   20.8280  -37.2460 C.3       4 GLP5        0.0000 
     29 CA          4.3610   17.9680  -37.0340 C.3       2 GLC5        0.0000 
     30 CA          2.0495   22.6150  -34.5400 C.3       2 GLC5        0.0000 
     31 CA          2.3080   21.0460  -33.0820 C.3       6 GLL5        0.0000 
     32 CA          1.7910   24.1840  -35.9980 C.3       4 GLP5        0.0000 
     33 CA          1.7335   20.7240  -34.8945 C.3       2 GLC5        0.0000 
     34 CA          1.1590   20.4020  -36.7070 C.3       4 GLP5        0.0000 
     35 CA          1.7550   22.6685  -31.9440 C.3       2 GLC5        0.0000 
     36 CA          1.2020   24.2910  -30.8060 C.3       4 GLP5        0.0000 
     37 CA          6.3475   13.4420  -34.0825 C.3       2 GLC5        0.0000 
     38 CA          6.8100   14.6240  -35.8020 C.3       6 GLL5        0.0000 
     39 CA          5.8850   12.2600  -32.3630 C.3       4 GLP5        0.0000 
     40 CA          5.2900   13.2720  -36.4510 C.3       2 GLC5        0.0000 
     41 CA          3.7700   11.9200  -37.1000 C.3       4 GLP5        0.0000 
     42 N           1.1600   21.6250  -27.3505 N.am      1 SEC2        0.0000 
     43 N           0.5600   20.8100  -28.3390 N.am      5 SEL2        0.0000 
     44 N           1.7600   22.4400  -26.3620 N.am      3 SEP2        0.0000 
     45 CA          1.3035   18.0538  -29.5382 C.3       2 GLC5        0.0000 
     46 CA          1.7090   16.5840  -28.0280 C.3       4 GLP5        0.0000 
     47 CA          8.1423   20.1135  -35.0172 C.3       2 GLC5        0.0000 
     48 CA          8.3590   21.6180  -36.0410 C.3       4 GLP5        0.0000 
@<TRIPOS>BOND
@<TRIPOS>SUBSTRUCTURE
     1 SEC2       42 GROUP        1 X    SEC  0     ROOT SEC X 2
     2 GLC5        1 GROUP        1 X    GLC  0     **** GLC X 6
     3 SEP2       44 GROUP        1 Y    SEP  0     ROOT SEP Y 9
     4 GLP5        3 GROUP        1 Y    GLP  0     **** GLP Y 13
     5 SEL2       43 GROUP        1 Z    SEL  0     ROOT SEL Z 16
     6 GLL5        2 GROUP        1 Z    GLL  0     **** GLL Z 20
@<TRIPOS>SET

