#    Name: 3cmf_PDN_2_ligand
#    Modification time : Mon Mar 24 21:56:41 2014

@<TRIPOS>MOLECULE
3cmf_PDN_2_ligand
   52    55     1     0     0
SMALL
NO_CHARGES


@<TRIPOS>ATOM
      1 C1          1.3590   19.2320  -31.6300 C.2       1 PDN945      0.0000 
      2 C2          0.4370   19.8150  -30.4670 C.2       1 PDN945      0.0000 
      3 C3          1.1400   20.5620  -29.4300 C.2       1 PDN945      0.0000 
      4 C4          2.5190   21.0590  -29.6290 C.2       1 PDN945      0.0000 
      5 C5          3.1970   20.8390  -30.7530 C.2       1 PDN945      0.0000 
      6 C6          4.6080   21.4040  -30.9050 C.3       1 PDN945      0.0000 
      7 C7          5.6640   20.2660  -31.5560 C.3       1 PDN945      0.0000 
      8 C8          5.1340   19.6500  -32.7530 C.3       1 PDN945      0.0000 
      9 C9          3.7530   18.9710  -32.4280 C.3       1 PDN945      0.0000 
     10 C10         2.6370   20.0390  -31.9660 C.3       1 PDN945      0.0000 
     11 C11         3.3940   18.0840  -33.6570 C.2       1 PDN945      0.0000 
     12 C12         4.4310   17.0650  -34.1430 C.3       1 PDN945      0.0000 
     13 C13         5.7950   17.7840  -34.4490 C.3       1 PDN945      0.0000 
     14 C14         6.2010   18.6040  -33.1920 C.3       1 PDN945      0.0000 
     15 C15         7.5960   19.1810  -33.5440 C.3       1 PDN945      0.0000 
     16 C16         8.2550   18.0370  -34.4430 C.3       1 PDN945      0.0000 
     17 C17         7.1440   16.9310  -34.5400 C.3       1 PDN945      0.0000 
     18 C18         5.5690   18.6530  -35.7360 C.3       1 PDN945      0.0000 
     19 C19         2.3080   21.0460  -33.0820 C.3       1 PDN945      0.0000 
     20 C20         7.2520   16.0860  -35.8940 C.2       1 PDN945      0.0000 
     21 C21         6.8100   14.6240  -35.8020 C.2       1 PDN945      0.0000 
     22 O1          0.5600   20.8100  -28.3390 O.2       1 PDN945      0.0000 
     23 O2          2.3500   18.1630  -34.2760 O.2       1 PDN945      0.0000 
     24 O3          7.1950   16.0170  -33.4330 O.3       1 PDN945      0.0000 
     25 O4          7.6520   16.5560  -36.9050 O.3       1 PDN945      0.0000 
     26 O5          5.5690   14.4550  -36.5280 O.3       1 PDN945      0.0000 
     27 H           1.1208   18.4389  -32.0751 H         1 PDN945      0.0000 
     28 H          -0.4972   19.6520  -30.5056 H         1 PDN945      0.0000 
     29 H           2.9168   21.5911  -28.8273 H         1 PDN945      0.0000 
     30 H           5.0313   21.6773  -29.9529 H         1 PDN945      0.0000 
     31 H           4.6305   22.2390  -31.5850 H         1 PDN945      0.0000 
     32 H           5.8303   19.5601  -30.7410 H         1 PDN945      0.0000 
     33 H           6.5856   20.8245  -31.7261 H         1 PDN945      0.0000 
     34 H           5.0053   20.3519  -33.5310 H         1 PDN945      0.0000 
     35 H           3.9395   18.2984  -31.5785 H         1 PDN945      0.0000 
     36 H           4.0847   16.5920  -35.0508 H         1 PDN945      0.0000 
     37 H           4.6027   16.3213  -33.3780 H         1 PDN945      0.0000 
     38 H           6.3509   17.8782  -32.3868 H         1 PDN945      0.0000 
     39 H           8.1733   19.2931  -32.6755 H         1 PDN945      0.0000 
     40 H           7.4953   20.0453  -34.1297 H         1 PDN945      0.0000 
     41 H           9.0931   17.6547  -33.9394 H         1 PDN945      0.0000 
     42 H           8.4492   18.4294  -35.3972 H         1 PDN945      0.0000 
     43 H           7.2888   13.9873  -35.3464 H         1 PDN945      0.0000 
     44 H           6.3957   19.1510  -35.9978 H         1 PDN945      0.0000 
     45 H           5.3035   18.0927  -36.5206 H         1 PDN945      0.0000 
     46 H           4.8473   19.3323  -35.6034 H         1 PDN945      0.0000 
     47 H           3.1049   21.5953  -33.3334 H         1 PDN945      0.0000 
     48 H           1.9930   20.5888  -33.9137 H         1 PDN945      0.0000 
     49 H           1.5879   21.6830  -32.8070 H         1 PDN945      0.0000 
     50 H           8.0165   15.4683  -33.5882 H         1 PDN945      0.0000 
     51 H           7.1140   16.1174  -37.6248 H         1 PDN945      0.0000 
     52 H           5.7658   14.7751  -37.4547 H         1 PDN945      0.0000 
@<TRIPOS>BOND
     1    2    1 2    
     2   10    1 1    
     3   27    1 1    
     4    3    2 1    
     5   28    2 1    
     6    4    3 1    
     7   22    3 2    
     8    5    4 2    
     9   29    4 1    
    10    6    5 1    
    11   10    5 1    
    12    7    6 1    
    13   30    6 1    
    14   31    6 1    
    15    8    7 1    
    16   32    7 1    
    17   33    7 1    
    18    9    8 1    
    19   14    8 1    
    20   34    8 1    
    21   10    9 1    
    22   11    9 1    
    23   35    9 1    
    24   19   10 1    
    25   12   11 1    
    26   23   11 2    
    27   13   12 1    
    28   36   12 1    
    29   37   12 1    
    30   14   13 1    
    31   17   13 1    
    32   18   13 1    
    33   15   14 1    
    34   38   14 1    
    35   16   15 1    
    36   39   15 1    
    37   40   15 1    
    38   17   16 1    
    39   41   16 1    
    40   42   16 1    
    41   20   17 1    
    42   24   17 1    
    43   44   18 1    
    44   45   18 1    
    45   46   18 1    
    46   47   19 1    
    47   48   19 1    
    48   49   19 1    
    49   21   20 2    
    50   25   20 1    
    51   26   21 1    
    52   43   21 1    
    53   50   24 1    
    54   51   25 1    
    55   52   26 1    
@<TRIPOS>SUBSTRUCTURE
     1 PDN945      1 GROUP   
@<TRIPOS>SET

