#    Name: 3tne_RIT_1_INTS_M
#    Modification time : Mon Mar 24 20:24:53 2014

@<TRIPOS>MOLECULE
3tne_RIT_1_INTS_M
   85     0     9     0     0
SMALL
NO_CHARGES


@<TRIPOS>ATOM
      1 CA          4.5250  -28.0085  -24.8525 C.3       3 GLC5        0.0000 
      2 CA          3.7290  -28.1040  -26.6090 C.3       9 GLL5        0.0000 
      3 CA          5.3210  -27.9130  -23.0960 C.3       6 GLP5        0.0000 
      4 CA          2.9625  -29.2720  -24.9640 C.3       3 GLC5        0.0000 
      5 CA          2.1960  -30.4400  -23.3190 C.3       6 GLP5        0.0000 
      6 CA          5.2840  -26.8910  -25.0525 C.3       3 GLC5        0.0000 
      7 CA          5.2470  -25.8690  -27.0090 C.3       9 GLL5        0.0000 
      8 CA          6.2915  -24.8675  -25.7180 C.3       3 GLC5        0.0000 
      9 CA          7.3360  -23.8660  -24.4270 C.3       6 GLP5        0.0000 
     10 N           8.3660  -23.9615  -28.1310 N.am      2 SEC2        0.0000 
     11 N           6.6360  -23.8230  -28.1240 N.am      8 SEL2        0.0000 
     12 N          10.0960  -24.1000  -28.1380 N.am      5 SEP2        0.0000 
     13 CA          3.8440  -20.4290  -28.5670 C.3       3 GLC5        0.0000 
     14 CA          5.7150  -20.9260  -29.3210 C.3       9 GLL5        0.0000 
     15 CA          1.9730  -19.9320  -27.8130 C.3       6 GLP5        0.0000 
     16 N           4.3420  -18.5160  -27.5295 N.am      2 SEC2        0.0000 
     17 N           4.9160  -19.4520  -26.8900 N.am      8 SEL2        0.0000 
     18 N           3.7680  -17.5800  -28.1690 N.am      5 SEP2        0.0000 
     19 O           4.0885  -19.2235  -26.0240 O.2       1 ALC1        0.0000 
     20 O           4.9160  -19.4520  -26.8900 O.2       7 ALL1        0.0000 
     21 O           3.2610  -18.9950  -25.1580 O.2       4 ALP1        0.0000 
     22 O           4.4760  -19.9385  -25.3400 O.2       1 ALC1        0.0000 
     23 O           4.0360  -20.4250  -23.7900 O.2       4 ALP1        0.0000 
     24 O           8.4265  -18.4055  -26.1345 O.2       1 ALC1        0.0000 
     25 O           8.9460  -19.7340  -26.2510 O.2       7 ALL1        0.0000 
     26 O           7.9070  -17.0770  -26.0180 O.2       4 ALP1        0.0000 
     27 CA          9.3985  -17.4510  -28.1615 C.3       3 GLC5        0.0000 
     28 CA         10.4480  -19.2890  -27.9360 C.3       9 GLL5        0.0000 
     29 CA          8.3490  -15.6130  -28.3870 C.3       6 GLP5        0.0000 
     30 N          11.3920  -22.3605  -27.6860 N.am      2 SEC2        0.0000 
     31 N          10.0290  -21.5200  -27.2180 N.am      8 SEL2        0.0000 
     32 N          12.7550  -23.2010  -28.1540 N.am      5 SEP2        0.0000 
     33 CA          8.7350  -18.0125  -29.9755 C.3       3 GLC5        0.0000 
     34 CA          9.4270  -19.9800  -30.1530 C.3       9 GLL5        0.0000 
     35 CA          8.0430  -16.0450  -29.7980 C.3       6 GLP5        0.0000 
     36 CA          8.3715  -19.6750  -31.6465 C.3       3 GLC5        0.0000 
     37 CA          7.3160  -19.3700  -33.1400 C.3       6 GLP5        0.0000 
     38 CA         10.4220  -17.2755  -30.4360 C.3       3 GLC5        0.0000 
     39 CA         11.7070  -18.9330  -30.1190 C.3       9 GLL5        0.0000 
     40 CA          9.1370  -15.6180  -30.7530 C.3       6 GLP5        0.0000 
     41 CA         12.4375  -17.9180  -31.4410 C.3       3 GLC5        0.0000 
     42 CA         13.1680  -16.9030  -32.7630 C.3       6 GLP5        0.0000 
     43 N          10.7975  -15.4160  -27.9070 N.am      2 SEC2        0.0000 
     44 N          11.4060  -16.7770  -27.5530 N.am      8 SEL2        0.0000 
     45 N          10.1890  -14.0550  -28.2610 N.am      5 SEP2        0.0000 
     46 CA         13.3370  -14.5865  -23.0285 C.3       3 GLC5        0.0000 
     47 CA         13.1900  -16.6510  -23.0900 C.3       9 GLL5        0.0000 
     48 CA         13.4840  -12.5220  -22.9670 C.3       6 GLP5        0.0000 
     49 CA         14.3685  -14.0675  -21.2290 C.3       3 GLC5        0.0000 
     50 CA         15.0210  -15.8990  -20.9300 C.3       9 GLL5        0.0000 
     51 CA         13.7160  -12.2360  -21.5280 C.3       6 GLP5        0.0000 
     52 CA         14.3930  -19.9885  -27.7290 C.3       3 GLC5        0.0000 
     53 CA         14.3970  -18.4060  -28.1880 C.3       9 GLL5        0.0000 
     54 CA         14.3890  -21.5710  -27.2700 C.3       6 GLP5        0.0000 
     55 CA          4.0905  -20.2705  -27.6100 C.3       3 GLC5        0.0000 
     56 CA          6.2250  -20.0070  -26.9340 C.3       9 GLL5        0.0000 
     57 CA          7.3773  -22.0998  -24.8862 C.3       3 GLC5        0.0000 
     58 CA          6.6640  -20.3200  -25.4850 C.3       9 GLL5        0.0000 
     59 CA          6.5475  -20.4552  -31.4540 C.3       3 GLC5        0.0000 
     60 CA          8.9213  -23.4150  -30.4095 C.3       3 GLC5        0.0000 
     61 CA          6.9970  -22.3510  -30.9960 C.3       9 GLL5        0.0000 
     62 CA         10.7770  -23.9150  -29.4060 C.3       6 GLP5        0.0000 
     63 CA          7.1907  -21.1425  -32.2765 C.3       3 GLC5        0.0000 
     64 CA          4.0437  -21.1559  -31.0482 C.3       3 GLC5        0.0000 
     65 CA          2.7840  -19.9810  -32.0680 C.3       6 GLP5        0.0000 
     66 CA          9.5663  -18.1702  -20.6775 C.3       3 GLC5        0.0000 
     67 CA         10.1350  -18.9940  -22.1740 C.3       9 GLL5        0.0000 
     68 CA          8.3980  -17.2770  -19.5390 C.3       6 GLP5        0.0000 
     69 CA          8.5851  -20.3361  -21.5190 C.3       3 GLC5        0.0000 
     70 CA          7.5130  -21.3630  -20.1320 C.3       6 GLP5        0.0000 
     71 CA         12.7375  -22.2828  -22.3560 C.3       3 GLC5        0.0000 
     72 CA         12.2850  -20.0550  -21.8890 C.3       9 GLL5        0.0000 
     73 CA         13.3200  -24.1270  -22.2500 C.3       6 GLP5        0.0000 
     74 CA         11.2904  -20.5931  -20.2627 C.3       3 GLC5        0.0000 
     75 CA         11.0710  -21.6270  -18.6730 C.3       6 GLP5        0.0000 
     76 CA         10.5903  -22.4292  -24.2138 C.3       3 GLC5        0.0000 
     77 CA         12.0250  -20.8220  -23.0350 C.3       9 GLL5        0.0000 
     78 CA          9.7570  -24.1080  -25.0370 C.3       6 GLP5        0.0000 
     79 CA         10.4235  -21.9052  -29.5817 C.3       3 GLC5        0.0000 
     80 CA         10.7130  -19.8110  -29.3620 C.3       9 GLL5        0.0000 
     81 CA         13.0750  -14.5770  -26.8605 C.3       3 GLC5        0.0000 
     82 CA         14.0710  -16.2830  -26.9960 C.3       9 GLL5        0.0000 
     83 CA         12.1130  -12.8290  -27.4700 C.3       6 GLP5        0.0000 
     84 CA         14.9185  -14.1348  -22.6660 C.3       3 GLC5        0.0000 
     85 CA         15.7900  -16.2480  -22.2110 C.3       9 GLL5        0.0000 
@<TRIPOS>BOND
@<TRIPOS>SUBSTRUCTURE
     1 ALC1       19 GROUP        1 X    ALC  0     ROOT ALC X 1
     2 SEC2       10 GROUP        1 X    SEC  0     **** SEC X 2
     3 GLC5        1 GROUP        1 X    GLC  0     **** GLC X 6
     4 ALP1       21 GROUP        1 Y    ALP  0     ROOT ALP Y 8
     5 SEP2       12 GROUP        1 Y    SEP  0     **** SEP Y 9
     6 GLP5        3 GROUP        1 Y    GLP  0     **** GLP Y 13
     7 ALL1       20 GROUP        1 Z    ALL  0     ROOT ALL Z 15
     8 SEL2       11 GROUP        1 Z    SEL  0     **** SEL Z 16
     9 GLL5        2 GROUP        1 Z    GLL  0     **** GLL Z 20
@<TRIPOS>SET

