#    Name: 3tne_RIT_1_ligand
#    Modification time : Mon Mar 24 20:24:53 2014

@<TRIPOS>MOLECULE
3tne_RIT_1_ligand
   98   101     1     0     0
SMALL
NO_CHARGES


@<TRIPOS>ATOM
      1 C1          2.8150  -26.1570  -28.0330 C.2       1 RIT401      0.0000 
      2 C2          3.9470  -26.5360  -27.3180 C.2       1 RIT401      0.0000 
      3 S3          3.7290  -28.1040  -26.6090 S.3       1 RIT401      0.0000 
      4 C4          2.1510  -28.2710  -27.2870 C.2       1 RIT401      0.0000 
      5 N5          1.8480  -27.1420  -27.9920 N.2       1 RIT401      0.0000 
      6 C6          5.2470  -25.8690  -27.0090 C.3       1 RIT401      0.0000 
      7 O7          4.9610  -24.5250  -26.6730 O.3       1 RIT401      0.0000 
      8 C10         5.6960  -23.4980  -27.3990 C.2       1 RIT401      0.0000 
      9 O24         6.6360  -23.8230  -28.1240 O.2       1 RIT401      0.0000 
     10 N11         5.3590  -22.2280  -27.2570 N.am      1 RIT401      0.0000 
     11 C12         6.1910  -21.2110  -27.8800 C.3       1 RIT401      0.0000 
     12 C13         6.2250  -20.0070  -26.9340 C.3       1 RIT401      0.0000 
     13 C14         6.6640  -20.3200  -25.4850 C.3       1 RIT401      0.0000 
     14 C15         8.1730  -20.3470  -25.2060 C.3       1 RIT401      0.0000 
     15 C26         5.7150  -20.9260  -29.3210 C.3       1 RIT401      0.0000 
     16 C28         5.8430  -22.1550  -30.2150 C.ar      1 RIT401      0.0000 
     17 C31         6.9970  -22.3510  -30.9960 C.ar      1 RIT401      0.0000 
     18 C32         7.1340  -23.4790  -31.8300 C.ar      1 RIT401      0.0000 
     19 C33         6.1260  -24.4420  -31.8900 C.ar      1 RIT401      0.0000 
     20 C34         4.9740  -24.2600  -31.1200 C.ar      1 RIT401      0.0000 
     21 C35         4.8280  -23.1210  -30.2890 C.ar      1 RIT401      0.0000 
     22 O41         4.9160  -19.4520  -26.8900 O.3       1 RIT401      0.0000 
     23 C44         8.4980  -19.5050  -23.9590 C.3       1 RIT401      0.0000 
     24 C45         9.8610  -19.7440  -23.3170 C.ar      1 RIT401      0.0000 
     25 C48        10.1350  -18.9940  -22.1740 C.ar      1 RIT401      0.0000 
     26 C49        11.3340  -19.1330  -21.4580 C.ar      1 RIT401      0.0000 
     27 C50        12.2850  -20.0550  -21.8890 C.ar      1 RIT401      0.0000 
     28 C51        12.0250  -20.8220  -23.0350 C.ar      1 RIT401      0.0000 
     29 C52        10.8220  -20.6790  -23.7460 C.ar      1 RIT401      0.0000 
     30 N58         8.9460  -19.7340  -26.2510 N.am      1 RIT401      0.0000 
     31 N20        11.7110  -18.9270  -27.3250 N.am      1 RIT401      0.0000 
     32 C19        10.4480  -19.2890  -27.9360 C.3       1 RIT401      0.0000 
     33 C18         9.7760  -20.3210  -27.0970 C.2       1 RIT401      0.0000 
     34 O61        10.0290  -21.5200  -27.2180 O.2       1 RIT401      0.0000 
     35 C62        10.7130  -19.8110  -29.3620 C.3       1 RIT401      0.0000 
     36 C64         9.4270  -19.9800  -30.1530 C.3       1 RIT401      0.0000 
     37 C68        11.7070  -18.9330  -30.1190 C.3       1 RIT401      0.0000 
     38 C21        12.1610  -17.7030  -27.4110 C.2       1 RIT401      0.0000 
     39 N74        13.4640  -17.4990  -27.5110 N.am      1 RIT401      0.0000 
     40 C75        14.0710  -16.2830  -26.9960 C.3       1 RIT401      0.0000 
     41 O76        11.4060  -16.7770  -27.5530 O.2       1 RIT401      0.0000 
     42 C77        14.0030  -16.3670  -25.5060 C.2       1 RIT401      0.0000 
     43 C80        12.8330  -16.6210  -24.7810 C.2       1 RIT401      0.0000 
     44 S81        13.1900  -16.6510  -23.0900 S.3       1 RIT401      0.0000 
     45 C82        14.8830  -16.3350  -23.3860 C.2       1 RIT401      0.0000 
     46 N83        15.1200  -16.2200  -24.7250 N.2       1 RIT401      0.0000 
     47 C85        15.7900  -16.2480  -22.2110 C.3       1 RIT401      0.0000 
     48 C86        15.0210  -15.8990  -20.9300 C.3       1 RIT401      0.0000 
     49 C90        16.9160  -15.2470  -22.5190 C.3       1 RIT401      0.0000 
     50 C95        14.3970  -18.4060  -28.1880 C.3       1 RIT401      0.0000 
     51 H           2.7229  -25.3112  -28.4970 H         1 RIT401      0.0000 
     52 H           1.7431  -29.0599  -27.0931 H         1 RIT401      0.0000 
     53 H           5.8920  -25.9395  -27.8866 H         1 RIT401      0.0000 
     54 H           5.7240  -26.4009  -26.1840 H         1 RIT401      0.0000 
     55 H           4.5435  -21.9050  -26.7329 H         1 RIT401      0.0000 
     56 H           7.2219  -21.6053  -27.9409 H         1 RIT401      0.0000 
     57 H           6.9195  -19.2738  -27.3418 H         1 RIT401      0.0000 
     58 H           6.2301  -21.3030  -25.1942 H         1 RIT401      0.0000 
     59 H           6.1898  -19.5740  -24.8085 H         1 RIT401      0.0000 
     60 H           8.4928  -21.3436  -25.0141 H         1 RIT401      0.0000 
     61 H           6.3140  -20.1118  -29.7334 H         1 RIT401      0.0000 
     62 H           4.6716  -20.6064  -29.2887 H         1 RIT401      0.0000 
     63 H           7.7584  -21.6559  -30.9581 H         1 RIT401      0.0000 
     64 H           7.9852  -23.5874  -32.3959 H         1 RIT401      0.0000 
     65 H           6.2270  -25.2627  -32.4837 H         1 RIT401      0.0000 
     66 H           4.2176  -24.9564  -31.1506 H         1 RIT401      0.0000 
     67 H           3.9693  -23.0075  -29.7386 H         1 RIT401      0.0000 
     68 H           7.7062  -19.6856  -23.1992 H         1 RIT401      0.0000 
     69 H           8.4124  -18.4300  -24.2311 H         1 RIT401      0.0000 
     70 H           9.4290  -18.3069  -21.8373 H         1 RIT401      0.0000 
     71 H          11.5033  -18.5609  -20.6287 H         1 RIT401      0.0000 
     72 H          13.1615  -20.1748  -21.3809 H         1 RIT401      0.0000 
     73 H          12.7285  -21.5022  -23.3612 H         1 RIT401      0.0000 
     74 H          10.6435  -21.2520  -24.5733 H         1 RIT401      0.0000 
     75 H           8.8020  -18.6574  -26.3203 H         1 RIT401      0.0000 
     76 H          12.2132  -19.6885  -26.8309 H         1 RIT401      0.0000 
     77 H           9.8116  -18.4202  -28.0160 H         1 RIT401      0.0000 
     78 H          11.1729  -20.8131  -29.2604 H         1 RIT401      0.0000 
     79 H          13.5272  -15.4068  -27.3304 H         1 RIT401      0.0000 
     80 H          15.1078  -16.2073  -27.3034 H         1 RIT401      0.0000 
     81 H          11.9656  -16.7673  -24.9902 H         1 RIT401      0.0000 
     82 H          16.2610  -17.2296  -22.0650 H         1 RIT401      0.0000 
     83 H           9.6015  -20.3187  -31.0776 H         1 RIT401      0.0000 
     84 H           8.8046  -20.6291  -29.7157 H         1 RIT401      0.0000 
     85 H           8.9318  -19.1162  -30.2458 H         1 RIT401      0.0000 
     86 H          12.5921  -18.8896  -29.6556 H         1 RIT401      0.0000 
     87 H          11.8764  -19.2756  -31.0431 H         1 RIT401      0.0000 
     88 H          11.3777  -17.9932  -30.2106 H         1 RIT401      0.0000 
     89 H          15.6279  -15.8372  -20.1377 H         1 RIT401      0.0000 
     90 H          14.5497  -15.0204  -21.0074 H         1 RIT401      0.0000 
     91 H          14.3269  -16.5859  -20.7147 H         1 RIT401      0.0000 
     92 H          17.5502  -15.1537  -21.7515 H         1 RIT401      0.0000 
     93 H          17.4557  -15.5277  -23.3127 H         1 RIT401      0.0000 
     94 H          16.5580  -14.3343  -22.7160 H         1 RIT401      0.0000 
     95 H          15.3367  -18.0656  -28.1537 H         1 RIT401      0.0000 
     96 H          14.3992  -19.3152  -27.7716 H         1 RIT401      0.0000 
     97 H          14.1639  -18.5261  -29.1530 H         1 RIT401      0.0000 
     98 H           4.6465  -19.5008  -25.9282 H         1 RIT401      0.0000 
@<TRIPOS>BOND
     1    2    1 2    
     2    5    1 1    
     3   51    1 1    
     4    3    2 1    
     5    6    2 1    
     6    4    3 1    
     7    5    4 2    
     8   52    4 1    
     9    7    6 1    
    10   53    6 1    
    11   54    6 1    
    12    8    7 1    
    13    9    8 2    
    14   10    8 am   
    15   11   10 1    
    16   55   10 1    
    17   12   11 1    
    18   15   11 1    
    19   56   11 1    
    20   13   12 1    
    21   22   12 1    
    22   57   12 1    
    23   14   13 1    
    24   58   13 1    
    25   59   13 1    
    26   23   14 1    
    27   30   14 1    
    28   60   14 1    
    29   16   15 1    
    30   61   15 1    
    31   62   15 1    
    32   17   16 ar   
    33   21   16 ar   
    34   18   17 ar   
    35   63   17 1    
    36   19   18 ar   
    37   64   18 1    
    38   20   19 ar   
    39   65   19 1    
    40   21   20 ar   
    41   66   20 1    
    42   67   21 1    
    43   98   22 1    
    44   24   23 1    
    45   68   23 1    
    46   69   23 1    
    47   25   24 ar   
    48   29   24 ar   
    49   26   25 ar   
    50   70   25 1    
    51   27   26 ar   
    52   71   26 1    
    53   28   27 ar   
    54   72   27 1    
    55   29   28 ar   
    56   73   28 1    
    57   74   29 1    
    58   33   30 am   
    59   75   30 1    
    60   32   31 1    
    61   38   31 am   
    62   76   31 1    
    63   33   32 1    
    64   35   32 1    
    65   77   32 1    
    66   34   33 2    
    67   36   35 1    
    68   37   35 1    
    69   78   35 1    
    70   83   36 1    
    71   84   36 1    
    72   85   36 1    
    73   86   37 1    
    74   87   37 1    
    75   88   37 1    
    76   39   38 am   
    77   41   38 2    
    78   40   39 1    
    79   50   39 1    
    80   42   40 1    
    81   79   40 1    
    82   80   40 1    
    83   43   42 2    
    84   46   42 1    
    85   44   43 1    
    86   81   43 1    
    87   45   44 1    
    88   46   45 2    
    89   47   45 1    
    90   48   47 1    
    91   49   47 1    
    92   82   47 1    
    93   89   48 1    
    94   90   48 1    
    95   91   48 1    
    96   92   49 1    
    97   93   49 1    
    98   94   49 1    
    99   95   50 1    
   100   96   50 1    
   101   97   50 1    
@<TRIPOS>SUBSTRUCTURE
     1 RIT401      1 GROUP   
@<TRIPOS>SET

