#    Name: 1t1r_IMB_1_INTS_M
#    Modification time : Tue Mar 25 04:08:39 2014

@<TRIPOS>MOLECULE
1t1r_IMB_1_INTS_M
   38     0     9     0     0
SMALL
NO_CHARGES


@<TRIPOS>ATOM
      1 CA         15.6080    9.6225   57.6810 C.3       3 GLC5        0.0000 
      2 CA         13.9720    9.7990   59.0720 C.3       9 GLL5        0.0000 
      3 CA         17.2440    9.4460   56.2900 C.3       6 GLP5        0.0000 
      4 NZ         18.4280   11.4470   63.0795 N.4       2 LYC4        0.0000 
      5 NZ         17.8610   10.1200   62.2980 N.4       8 LYL4        0.0000 
      6 NZ         18.9950   12.7740   63.8610 N.4       5 LYP4        0.0000 
      7 N          18.4280   11.4470   63.0795 N.am      1 SEC2        0.0000 
      8 N          17.8610   10.1200   62.2980 N.am      7 SEL2        0.0000 
      9 N          18.9950   12.7740   63.8610 N.am      4 SEP2        0.0000 
     10 N          18.1800    8.5240   58.9610 N.am      1 SEC2        0.0000 
     11 N          17.2470    8.5640   60.3700 N.am      7 SEL2        0.0000 
     12 N          19.1130    8.4840   57.5520 N.am      4 SEP2        0.0000 
     13 NZ         17.5915   12.6330   63.3800 N.4       2 LYC4        0.0000 
     14 NZ         16.1880   12.4920   62.8990 N.4       8 LYL4        0.0000 
     15 N          17.5915   12.6330   63.3800 N.am      1 SEC2        0.0000 
     16 N          16.1880   12.4920   62.8990 N.am      7 SEL2        0.0000 
     17 N          16.8280   14.0020   62.9420 N.am      1 SEC2        0.0000 
     18 N          17.4680   15.5120   62.9850 N.am      4 SEP2        0.0000 
     19 NZ         16.8655   14.9265   59.3545 N.4       2 LYC4        0.0000 
     20 NZ         16.3830   13.3700   60.5100 N.4       8 LYL4        0.0000 
     21 NZ         17.3480   16.4830   58.1990 N.4       5 LYP4        0.0000 
     22 N          16.9255   14.4410   61.7475 N.am      1 SEC2        0.0000 
     23 N          16.3830   13.3700   60.5100 N.am      7 SEL2        0.0000 
     24 N          17.7735   13.7715   61.0260 N.am      1 SEC2        0.0000 
     25 N          19.1640   14.1730   61.5420 N.am      4 SEP2        0.0000 
     26 CA         14.3453    7.9897   58.3010 C.3       3 GLC5        0.0000 
     27 CA         15.1330    6.6250   57.1340 C.3       6 GLP5        0.0000 
     28 CA         12.2423   10.6195   61.1958 C.3       3 GLC5        0.0000 
     29 CA         13.1430    8.9100   59.8640 C.3       9 GLL5        0.0000 
     30 CA         11.2650   12.3970   61.8150 C.3       6 GLP5        0.0000 
     31 CA         11.3665    8.3950   55.6865 C.3       3 GLC5        0.0000 
     32 CA         11.8970    8.2660   57.8380 C.3       9 GLL5        0.0000 
     33 CA         10.4380    8.0990   53.9160 C.3       6 GLP5        0.0000 
     34 CA         13.7140    7.6580   57.2955 C.3       3 GLC5        0.0000 
     35 CA         12.6930    9.1160   57.0760 C.3       9 GLL5        0.0000 
     36 CA         12.8704    6.1935   59.7850 C.3       3 GLC5        0.0000 
     37 CA         12.1180    8.1650   59.2140 C.3       9 GLL5        0.0000 
     38 CA         14.1890    4.9320   59.0970 C.3       6 GLP5        0.0000 
@<TRIPOS>BOND
@<TRIPOS>SUBSTRUCTURE
     1 SEC2        7 GROUP        1 X    SEC  0     ROOT SEC X 2
     2 LYC4        4 GROUP        1 X    LYC  0     **** LYC X 4
     3 GLC5        1 GROUP        1 X    GLC  0     **** GLC X 6
     4 SEP2        9 GROUP        1 Y    SEP  0     ROOT SEP Y 9
     5 LYP4        6 GROUP        1 Y    LYP  0     **** LYP Y 11
     6 GLP5        3 GROUP        1 Y    GLP  0     **** GLP Y 13
     7 SEL2        8 GROUP        1 Z    SEL  0     ROOT SEL Z 16
     8 LYL4        5 GROUP        1 Z    LYL  0     **** LYL Z 18
     9 GLL5        2 GROUP        1 Z    GLL  0     **** GLL Z 20
@<TRIPOS>SET

