#    Name: 1t1r_IMB_1_ligand
#    Modification time : Tue Mar 25 04:08:39 2014

@<TRIPOS>MOLECULE
1t1r_IMB_1_ligand
   28    29     1     0     0
SMALL
NO_CHARGES


@<TRIPOS>ATOM
      1 N1         13.7070    9.8640   57.6880 N.ar      1 IMB3001     0.0000 
      2 C2         13.9720    9.7990   59.0720 C.ar      1 IMB3001     0.0000 
      3 C3         13.1430    8.9100   59.8640 C.ar      1 IMB3001     0.0000 
      4 C4         12.1180    8.1650   59.2140 C.ar      1 IMB3001     0.0000 
      5 C5         11.8970    8.2660   57.8380 C.ar      1 IMB3001     0.0000 
      6 C6         12.6930    9.1160   57.0760 C.ar      1 IMB3001     0.0000 
      7 C9         13.2960    8.7740   61.2890 C.ar      1 IMB3001     0.0000 
      8 C10        12.4360    7.9130   62.0280 C.ar      1 IMB3001     0.0000 
      9 C11        11.4170    7.1770   61.3620 C.ar      1 IMB3001     0.0000 
     10 C12        11.2550    7.3010   59.9540 C.ar      1 IMB3001     0.0000 
     11 N17        15.0350   10.6060   59.5180 N.pl3     1 IMB3001     0.0000 
     12 C18        15.5830   10.7180   60.8720 C.3       1 IMB3001     0.0000 
     13 P20        15.5930   12.4410   61.4720 P.3       1 IMB3001     0.0000 
     14 P21        17.2540   10.0270   60.8810 P.3       1 IMB3001     0.0000 
     15 O23        17.8610   10.1200   62.2980 O.co2     1 IMB3001     0.0000 
     16 O25        18.0850   10.7070   59.9110 O.co2     1 IMB3001     0.0000 
     17 O26        17.2470    8.5640   60.3700 O.co2     1 IMB3001     0.0000 
     18 O28        16.1880   12.4920   62.8990 O.co2     1 IMB3001     0.0000 
     19 O30        14.2510   13.0060   61.4640 O.co2     1 IMB3001     0.0000 
     20 O31        16.3830   13.3700   60.5100 O.co2     1 IMB3001     0.0000 
     21 H          11.1542    7.7176   57.3959 H         1 IMB3001     0.0000 
     22 H          12.5401    9.1978   56.0639 H         1 IMB3001     0.0000 
     23 H          14.0260    9.2999   61.7650 H         1 IMB3001     0.0000 
     24 H          12.5511    7.8241   63.0362 H         1 IMB3001     0.0000 
     25 H          10.8041    6.5620   61.8924 H         1 IMB3001     0.0000 
     26 H          10.5288    6.7778   59.4748 H         1 IMB3001     0.0000 
     27 H          15.5204   11.2270   58.7879 H         1 IMB3001     0.0000 
     28 H          15.0723   10.1760   61.6162 H         1 IMB3001     0.0000 
@<TRIPOS>BOND
     1    2    1 ar   
     2    6    1 ar   
     3    3    2 ar   
     4   11    2 1    
     5    4    3 ar   
     6    7    3 ar   
     7    5    4 ar   
     8   10    4 ar   
     9    6    5 ar   
    10   21    5 1    
    11   22    6 1    
    12    8    7 ar   
    13   23    7 1    
    14    9    8 ar   
    15   24    8 1    
    16   10    9 ar   
    17   25    9 1    
    18   26   10 1    
    19   12   11 1    
    20   27   11 1    
    21   13   12 1    
    22   14   12 1    
    23   28   12 1    
    24   18   13 ar   
    25   19   13 ar   
    26   20   13 ar   
    27   15   14 ar   
    28   16   14 ar   
    29   17   14 ar   
@<TRIPOS>SUBSTRUCTURE
     1 IMB3001     1 GROUP   
@<TRIPOS>SET

