#    Name: 4FKK_1_CAVITY_N1_6.mol2
#    Modification time : Mon Mar 10 20:08:41 2014

@<TRIPOS>MOLECULE
4FKK_1_CAVITY_N1_6.mol2
   85     0     6     0     0
SMALL
NO_CHARGES


@<TRIPOS>ATOM
      1 NZ         28.2430   18.0137   59.3507 N.2       3 LYS4        0.0000 
      2 N          28.2143   18.8189   58.0855 N.2       2 ALA2        0.0000 
      3 N          27.3430   19.6250   60.3966 N.2       2 ALA2        0.0000 
      4 NZ         27.3144   20.4302   59.1313 N.2       3 LYS4        0.0000 
      5 NZ         27.2857   21.2354   57.8661 N.2       3 LYS4        0.0000 
      6 CA         27.2570   22.0406   56.6009 C.3       5 GLY6        0.0000 
      7 NZ         26.8328   18.4298   59.6475 N.2       3 LYS4        0.0000 
      8 NZ         26.8041   19.2350   58.3822 N.2       3 LYS4        0.0000 
      9 O          26.7754   20.0402   57.1170 O.2       2 ALA2        0.0000 
     10 O          26.7468   20.8454   55.8518 O.2       2 ALA2        0.0000 
     11 OG         26.3225   17.2346   58.8984 O.2       1 SER1        0.0000 
     12 N          26.2938   18.0398   57.6332 N.2       2 ALA2        0.0000 
     13 N          26.2652   18.8450   56.3679 N.2       2 ALA2        0.0000 
     14 NZ         21.2837   24.9011   62.1133 N.2       3 LYS4        0.0000 
     15 OG         21.2550   25.7063   60.8480 O.2       1 SER1        0.0000 
     16 NZ         20.8307   22.0955   63.8947 N.2       3 LYS4        0.0000 
     17 NZ         20.8021   22.9007   62.6294 N.2       3 LYS4        0.0000 
     18 NZ         20.7734   23.7059   61.3642 N.2       3 LYS4        0.0000 
     19 DU         20.7447   24.5111   60.0990 H         6 CUB7        0.0000 
     20 NZ         20.3205   20.9003   63.1456 N.2       3 LYS4        0.0000 
     21 DU         20.2918   21.7055   61.8804 H         6 CUB7        0.0000 
     22 DU         20.2631   22.5107   60.6151 H         6 CUB7        0.0000 
     23 DU         20.2345   23.3159   59.3499 H         6 CUB7        0.0000 
     24 NZ         19.8102   19.7051   62.3965 N.2       3 LYS4        0.0000 
     25 DU         19.7815   20.5103   61.1313 H         6 CUB7        0.0000 
     26 CA         26.4144   22.0415   60.1772 C.3       5 GLY6        0.0000 
     27 CA         26.3857   22.8467   58.9119 C.3       5 GLY6        0.0000 
     28 N          25.9328   20.0411   60.6933 N.2       2 ALA2        0.0000 
     29 NZ         25.9041   20.8463   59.4281 N.2       3 LYS4        0.0000 
     30 CA         25.8755   21.6515   58.1628 C.3       5 GLY6        0.0000 
     31 CA         25.8468   22.4567   56.8976 C.3       5 GLY6        0.0000 
     32 CZ         25.4225   18.8459   59.9442 C.ar      4 PHE5        0.0000 
     33 DU         25.3938   19.6511   58.6790 H         6 CUB7        0.0000 
     34 DU         25.3652   20.4563   57.4138 H         6 CUB7        0.0000 
     35 O          25.3365   21.2615   56.1485 O.2       2 ALA2        0.0000 
     36 O          25.3078   22.0667   54.8833 O.2       2 ALA2        0.0000 
     37 CZ         24.9122   17.6507   59.1952 C.ar      4 PHE5        0.0000 
     38 DU         24.8836   18.4559   57.9299 H         6 CUB7        0.0000 
     39 DU         24.8549   19.2611   56.6647 H         6 CUB7        0.0000 
     40 CA         24.8262   20.0663   55.3995 C.3       5 GLY6        0.0000 
     41 O          24.7976   20.8715   54.1342 O.2       2 ALA2        0.0000 
     42 CZ         24.4306   15.6503   59.7113 C.ar      4 PHE5        0.0000 
     43 DU         24.3733   17.2607   57.1808 H         6 CUB7        0.0000 
     44 NZ         25.0328   21.6524   61.7392 N.2       3 LYS4        0.0000 
     45 NZ         25.0041   22.4576   60.4739 N.2       3 LYS4        0.0000 
     46 CZ         24.5512   19.6520   62.2553 C.ar      4 PHE5        0.0000 
     47 O          24.5225   20.4572   60.9901 O.2       2 ALA2        0.0000 
     48 DU         24.4939   21.2624   59.7248 H         6 CUB7        0.0000 
     49 CA         24.4652   22.0676   58.4596 C.3       5 GLY6        0.0000 
     50 CA         24.4365   22.8728   57.1944 C.3       5 GLY6        0.0000 
     51 CZ         24.0409   18.4568   61.5062 C.ar      4 PHE5        0.0000 
     52 DU         24.0123   19.2620   60.2410 H         6 CUB7        0.0000 
     53 DU         23.9549   20.8724   57.7105 H         6 CUB7        0.0000 
     54 O          23.9263   21.6776   56.4453 O.2       2 ALA2        0.0000 
     55 CZ         23.5307   17.2616   60.7571 C.ar      4 PHE5        0.0000 
     56 CZ         23.5020   18.0668   59.4919 C.ar      4 PHE5        0.0000 
     57 DU         23.4447   19.6772   56.9615 H         6 CUB7        0.0000 
     58 O          23.3873   21.2876   54.4310 O.2       2 ALA2        0.0000 
     59 NZ         23.6226   22.0685   62.0359 N.2       3 LYS4        0.0000 
     60 NZ         23.5939   22.8737   60.7707 N.2       3 LYS4        0.0000 
     61 CA         23.5652   23.6789   59.5054 C.3       5 GLY6        0.0000 
     62 OG         23.1410   20.0681   62.5521 O.2       1 SER1        0.0000 
     63 DU         23.1123   20.8733   61.2868 H         6 CUB7        0.0000 
     64 DU         23.0836   21.6785   60.0216 H         6 CUB7        0.0000 
     65 CA         23.0550   22.4837   58.7564 C.3       5 GLY6        0.0000 
     66 O          23.0263   23.2889   57.4911 O.2       2 ALA2        0.0000 
     67 CZ         22.6307   18.8729   61.8030 C.ar      4 PHE5        0.0000 
     68 DU         22.6020   19.6781   60.5378 H         6 CUB7        0.0000 
     69 O          22.5447   21.2885   58.0073 O.2       2 ALA2        0.0000 
     70 CZ         22.1204   17.6777   61.0539 C.ar      4 PHE5        0.0000 
     71 DU         22.0917   18.4829   59.7887 H         6 CUB7        0.0000 
     72 OG         22.6653   25.2902   60.5513 O.2       1 SER1        0.0000 
     73 NZ         22.2410   21.6794   63.5979 N.2       3 LYS4        0.0000 
     74 NZ         22.2123   22.4846   62.3327 N.2       3 LYS4        0.0000 
     75 NZ         22.1837   23.2898   61.0674 N.2       3 LYS4        0.0000 
     76 DU         22.1550   24.0950   59.8022 H         6 CUB7        0.0000 
     77 CA         22.1263   24.9002   58.5370 C.3       5 GLY6        0.0000 
     78 NZ         21.7307   20.4842   62.8488 N.2       3 LYS4        0.0000 
     79 DU         21.7020   21.2894   61.5836 H         6 CUB7        0.0000 
     80 DU         21.6734   22.0946   60.3184 H         6 CUB7        0.0000 
     81 DU         21.6447   22.8998   59.0531 H         6 CUB7        0.0000 
     82 O          21.6160   23.7050   57.7879 O.2       2 ALA2        0.0000 
     83 DU         21.2204   19.2890   62.0997 H         6 CUB7        0.0000 
     84 DU         21.1344   21.7046   58.3040 H         6 CUB7        0.0000 
     85 DU         20.7102   18.0938   61.3507 H         6 CUB7        0.0000 
@<TRIPOS>BOND
@<TRIPOS>SUBSTRUCTURE
     1 SER1       11 GROUP   
     2 ALA2        2 GROUP   
     3 LYS4        1 GROUP   
     4 PHE5       32 GROUP   
     5 GLY6        6 GROUP   
     6 CUB7       19 GROUP   
@<TRIPOS>SET

