#    Name: 4fkk_BES_1_INTS_M
#    Modification time : Mon Mar 24 20:13:35 2014

@<TRIPOS>MOLECULE
4fkk_BES_1_INTS_M
   48     0    15     0     0
SMALL
NO_CHARGES


@<TRIPOS>ATOM
      1 OD1        31.8790   16.1695   60.6885 O.co2     3 ASC3        0.0000 
      2 OD1        30.9210   15.2510   60.5650 O.co2    13 ASL3        0.0000 
      3 OD1        32.8370   17.0880   60.8120 O.co2     8 ASP3        0.0000 
      4 OD1        32.3590   15.5120   61.4595 O.co2     3 ASC3        0.0000 
      5 OD1        33.7970   15.7730   62.3540 O.co2     8 ASP3        0.0000 
      6 OD1        30.4015   15.1970   61.8475 O.co2     3 ASC3        0.0000 
      7 OD1        29.8820   15.1430   63.1300 O.co2     8 ASP3        0.0000 
      8 O          31.5955   14.0205   60.4525 O.2       1 ALC1        0.0000 
      9 O          30.9210   15.2510   60.5650 O.2      11 ALL1        0.0000 
     10 O          32.2700   12.7900   60.3400 O.2       6 ALP1        0.0000 
     11 O          31.8790   16.1695   60.6885 O.2       1 ALC1        0.0000 
     12 O          32.8370   17.0880   60.8120 O.2       6 ALP1        0.0000 
     13 O          32.3590   15.5120   61.4595 O.2       1 ALC1        0.0000 
     14 O          33.7970   15.7730   62.3540 O.2       6 ALP1        0.0000 
     15 O          30.4015   15.1970   61.8475 O.2       1 ALC1        0.0000 
     16 O          29.8820   15.1430   63.1300 O.2       6 ALP1        0.0000 
     17 CA         31.5665   12.2835   57.3360 C.3       5 GLC5        0.0000 
     18 CA         29.7170   12.9610   57.2880 C.3      15 GLL5        0.0000 
     19 CA         33.4160   11.6060   57.3840 C.3      10 GLP5        0.0000 
     20 CA         31.3960   17.6985   58.2730 C.3       5 GLC5        0.0000 
     21 CA         29.7730   17.2900   59.6770 C.3      15 GLL5        0.0000 
     22 CA         33.0190   18.1070   56.8690 C.3      10 GLP5        0.0000 
     23 Zn         29.8775   17.9100   61.8430 Zn        4 ZIC7        0.0000 
     24 Zn         30.3370   17.9450   60.8420 Zn       14 ZIL7        0.0000 
     25 Zn         29.4180   17.8750   62.8440 Zn        9 ZIP7        0.0000 
     26 N          31.0150   19.0780   60.4845 N.am      2 SEC2        0.0000 
     27 N          30.3370   17.9450   60.8420 N.am     12 SEL2        0.0000 
     28 N          31.6930   20.2110   60.1270 N.am      7 SEP2        0.0000 
     29 O          31.5870   17.5165   60.8270 O.2       1 ALC1        0.0000 
     30 O          30.3370   17.9450   60.8420 O.2      11 ALL1        0.0000 
     31 N          27.0950   15.7610   60.8780 N.am      2 SEC2        0.0000 
     32 N          27.6400   17.1160   60.5360 N.am     12 SEL2        0.0000 
     33 N          26.5500   14.4060   61.2200 N.am      7 SEP2        0.0000 
     34 O          29.0345   18.2360   57.6745 O.2       1 ALC1        0.0000 
     35 O          27.8080   18.3590   58.6330 O.2      11 ALL1        0.0000 
     36 O          30.2610   18.1130   56.7160 O.2       6 ALP1        0.0000 
     37 CA         25.6235   23.3610   59.1390 C.3       5 GLC5        0.0000 
     38 CA         25.4860   21.7380   60.6840 C.3      15 GLL5        0.0000 
     39 CA         25.7610   24.9840   57.5940 C.3      10 GLP5        0.0000 
     40 CA         24.8885   17.8040   61.5140 C.3       5 GLC5        0.0000 
     41 CA         24.4250   19.4570   60.6100 C.3      15 GLL5        0.0000 
     42 CA         25.3520   16.1510   62.4180 C.3      10 GLP5        0.0000 
     43 CA         31.6902   15.0521   58.0708 C.3       5 GLC5        0.0000 
     44 CA         29.9310   15.7420   59.6260 C.3      15 GLL5        0.0000 
     45 CA         33.6500   15.2220   57.8930 C.3      10 GLP5        0.0000 
     46 CA         26.8315   21.4325   61.7715 C.3       5 GLC5        0.0000 
     47 CA         25.6920   20.2700   60.3480 C.3      15 GLL5        0.0000 
     48 CA         28.0740   21.8610   63.0270 C.3      10 GLP5        0.0000 
@<TRIPOS>BOND
@<TRIPOS>SUBSTRUCTURE
     1 ALC1        8 GROUP        1 X    ALC  0     ROOT ALC X 1
     2 SEC2       26 GROUP        1 X    SEC  0     **** SEC X 2
     3 ASC3        1 GROUP        1 X    ASC  0     **** ASC X 3
     4 ZIC7       23 GROUP        1 X    ZIC  0     **** ZIC X 5
     5 GLC5       17 GROUP        1 X    GLC  0     **** GLC X 6
     6 ALP1       10 GROUP        1 Y    ALP  0     ROOT ALP Y 8
     7 SEP2       28 GROUP        1 Y    SEP  0     **** SEP Y 9
     8 ASP3        3 GROUP        1 Y    ASP  0     **** ASP Y 10
     9 ZIP7       25 GROUP        1 Y    ZIP  0     **** ZIP Y 12
    10 GLP5       19 GROUP        1 Y    GLP  0     **** GLP Y 13
    11 ALL1        9 GROUP        1 Z    ALL  0     ROOT ALL Z 15
    12 SEL2       27 GROUP        1 Z    SEL  0     **** SEL Z 16
    13 ASL3        2 GROUP        1 Z    ASL  0     **** ASL Z 17
    14 ZIL7       24 GROUP        1 Z    ZIL  0     **** ZIL Z 19
    15 GLL5       18 GROUP        1 Z    GLL  0     **** GLL Z 20
@<TRIPOS>SET

