#    Name: 4fkk_BES_1_ligand
#    Modification time : Mon Mar 24 20:13:35 2014

@<TRIPOS>MOLECULE
4fkk_BES_1_ligand
   46    46     1     0     0
SMALL
NO_CHARGES


@<TRIPOS>ATOM
      1 N2         30.9210   15.2510   60.5650 N.4       1 BES1024     0.0000 
      2 C1         29.9310   15.7420   59.6260 C.3       1 BES1024     0.0000 
      3 C6         30.3210   15.2290   58.2300 C.3       1 BES1024     0.0000 
      4 C7         29.3350   14.2790   57.5690 C.ar      1 BES1024     0.0000 
      5 C8         28.0420   14.6970   57.2070 C.ar      1 BES1024     0.0000 
      6 C12        29.7170   12.9610   57.2880 C.ar      1 BES1024     0.0000 
      7 C9         27.1380   13.8210   56.5880 C.ar      1 BES1024     0.0000 
      8 C11        28.8110   12.0850   56.6730 C.ar      1 BES1024     0.0000 
      9 C10        27.5220   12.5070   56.3220 C.ar      1 BES1024     0.0000 
     10 C2         29.7730   17.2900   59.6770 C.3       1 BES1024     0.0000 
     11 O2         30.3370   17.9450   60.8420 O.3       1 BES1024     0.0000 
     12 C3         28.3050   17.6000   59.6350 C.2       1 BES1024     0.0000 
     13 O3         27.6400   17.1160   60.5360 O.2       1 BES1024     0.0000 
     14 N1         27.8080   18.3590   58.6330 N.am      1 BES1024     0.0000 
     15 C4         26.3640   18.6740   58.5580 C.3       1 BES1024     0.0000 
     16 C13        26.1730   20.1520   58.9060 C.3       1 BES1024     0.0000 
     17 C14        25.6920   20.2700   60.3480 C.3       1 BES1024     0.0000 
     18 C15        25.4860   21.7380   60.6840 C.3       1 BES1024     0.0000 
     19 C16        24.4250   19.4570   60.6100 C.3       1 BES1024     0.0000 
     20 C5         25.6560   18.3660   57.2530 C.2       1 BES1024     0.0000 
     21 O1         25.5330   17.1590   56.9300 O.co2     1 BES1024     0.0000 
     22 O4         25.1900   19.3090   56.5560 O.co2     1 BES1024     0.0000 
     23 H          28.9540   15.3019   59.8640 H         1 BES1024     0.0000 
     24 H          31.3103   14.7282   58.3057 H         1 BES1024     0.0000 
     25 H          30.4776   16.1067   57.5665 H         1 BES1024     0.0000 
     26 H          27.7533   15.6699   57.4016 H         1 BES1024     0.0000 
     27 H          30.6577   12.6365   57.5314 H         1 BES1024     0.0000 
     28 H          26.2021   14.1481   56.3343 H         1 BES1024     0.0000 
     29 H          29.0990   11.1136   56.4759 H         1 BES1024     0.0000 
     30 H          26.8728   11.8572   55.8763 H         1 BES1024     0.0000 
     31 H          30.2090   17.6905   58.7592 H         1 BES1024     0.0000 
     32 H          28.3966   18.7496   57.8848 H         1 BES1024     0.0000 
     33 H          25.8389   18.1163   59.3669 H         1 BES1024     0.0000 
     34 H          25.4354   20.5834   58.2422 H         1 BES1024     0.0000 
     35 H          27.1164   20.6702   58.7958 H         1 BES1024     0.0000 
     36 H          26.4859   19.8893   60.9980 H         1 BES1024     0.0000 
     37 H          30.5315   15.1091   61.4751 H         1 BES1024     0.0000 
     38 H          31.3088   14.3769   60.2726 H         1 BES1024     0.0000 
     39 H          31.6833   15.8898   60.6688 H         1 BES1024     0.0000 
     40 H          26.3315   22.2632   60.5878 H         1 BES1024     0.0000 
     41 H          24.8067   22.1640   60.0864 H         1 BES1024     0.0000 
     42 H          25.1687   21.8629   61.6241 H         1 BES1024     0.0000 
     43 H          24.5647   18.4833   60.4300 H         1 BES1024     0.0000 
     44 H          24.1208   19.5389   61.5591 H         1 BES1024     0.0000 
     45 H          23.6657   19.7560   60.0320 H         1 BES1024     0.0000 
     46 H          31.0612   17.3321   61.1581 H         1 BES1024     0.0000 
@<TRIPOS>BOND
     1    2    1 1    
     2   37    1 1    
     3   38    1 1    
     4   39    1 1    
     5    3    2 1    
     6   10    2 1    
     7   23    2 1    
     8    4    3 1    
     9   24    3 1    
    10   25    3 1    
    11    5    4 ar   
    12    6    4 ar   
    13    7    5 ar   
    14   26    5 1    
    15    8    6 ar   
    16   27    6 1    
    17    9    7 ar   
    18   28    7 1    
    19    9    8 ar   
    20   29    8 1    
    21   30    9 1    
    22   11   10 1    
    23   12   10 1    
    24   31   10 1    
    25   46   11 1    
    26   13   12 2    
    27   14   12 am   
    28   15   14 1    
    29   32   14 1    
    30   16   15 1    
    31   20   15 1    
    32   33   15 1    
    33   17   16 1    
    34   34   16 1    
    35   35   16 1    
    36   18   17 1    
    37   19   17 1    
    38   36   17 1    
    39   40   18 1    
    40   41   18 1    
    41   42   18 1    
    42   43   19 1    
    43   44   19 1    
    44   45   19 1    
    45   21   20 ar   
    46   22   20 ar   
@<TRIPOS>SUBSTRUCTURE
     1 BES1024     1 GROUP   
@<TRIPOS>SET

