#    Name: 2aba_STR_1_INTS_M
#    Modification time : Mon Mar 24 18:56:13 2014

@<TRIPOS>MOLECULE
2aba_STR_1_INTS_M
   55     0     6     0     0
SMALL
NO_CHARGES


@<TRIPOS>ATOM
      1 CA          9.5410   21.5905   20.9870 C.3       2 GLC5        0.0000 
      2 CA          7.8810   23.0900   21.1060 C.3       6 GLL5        0.0000 
      3 CA         11.2010   20.0910   20.8680 C.3       4 GLP5        0.0000 
      4 CA          9.6315   24.3015   23.5095 C.3       2 GLC5        0.0000 
      5 CA          8.1780   24.0820   22.2260 C.3       6 GLL5        0.0000 
      6 CA         11.0850   24.5210   24.7930 C.3       4 GLP5        0.0000 
      7 CA          9.8995   25.0175   21.2340 C.3       2 GLC5        0.0000 
      8 CA         11.6210   25.9530   20.2420 C.3       4 GLP5        0.0000 
      9 N          10.0020   27.4540   22.5420 N.am      1 SEC2        0.0000 
     10 N           9.0360   26.3100   22.2660 N.am      5 SEL2        0.0000 
     11 N          10.9680   28.5980   22.8180 N.am      3 SEP2        0.0000 
     12 N           9.4985   25.8090   23.5310 N.am      1 SEC2        0.0000 
     13 N           9.9610   25.3080   24.7960 N.am      3 SEP2        0.0000 
     14 CA          8.7245   27.1955   19.4270 C.3       2 GLC5        0.0000 
     15 CA          7.5520   25.8150   20.5000 C.3       6 GLL5        0.0000 
     16 CA          9.8970   28.5760   18.3540 C.3       4 GLP5        0.0000 
     17 CA          9.5865   25.8840   20.3710 C.3       2 GLC5        0.0000 
     18 CA          5.0905   26.2765   17.2400 C.3       2 GLC5        0.0000 
     19 CA          5.9400   24.4830   17.4980 C.3       6 GLL5        0.0000 
     20 CA          4.2410   28.0700   16.9820 C.3       4 GLP5        0.0000 
     21 CA          5.1725   24.8180   21.1810 C.3       2 GLC5        0.0000 
     22 CA          6.6730   23.4440   20.2330 C.3       6 GLL5        0.0000 
     23 CA          3.6720   26.1920   22.1290 C.3       4 GLP5        0.0000 
     24 CA          3.4310   23.2955   16.5895 C.3       2 GLC5        0.0000 
     25 CA          5.0220   22.4430   15.3960 C.3       6 GLL5        0.0000 
     26 CA          1.8400   24.1480   17.7830 C.3       4 GLP5        0.0000 
     27 CA          2.8905   21.6155   17.8065 C.3       2 GLC5        0.0000 
     28 CA          4.1510   20.3710   17.3790 C.3       6 GLL5        0.0000 
     29 CA          1.6300   22.8600   18.2340 C.3       4 GLP5        0.0000 
     30 CA          4.4940   21.6745   22.1335 C.3       2 GLC5        0.0000 
     31 CA          5.3970   23.2170   21.0510 C.3       6 GLL5        0.0000 
     32 CA          3.5910   20.1320   23.2160 C.3       4 GLP5        0.0000 
     33 CA          4.6515   24.3640   22.1895 C.3       2 GLC5        0.0000 
     34 CA          3.9060   25.5110   23.3280 C.3       4 GLP5        0.0000 
     35 N           3.9225   17.4355   13.9360 N.am      1 SEC2        0.0000 
     36 N           4.1320   18.5920   14.7220 N.am      5 SEL2        0.0000 
     37 N           3.7130   16.2790   13.1500 N.am      3 SEP2        0.0000 
     38 CA          7.1825   17.4395   14.3180 C.3       2 GLC5        0.0000 
     39 CA          5.8740   17.5600   15.9460 C.3       6 GLL5        0.0000 
     40 CA          8.4910   17.3190   12.6900 C.3       4 GLP5        0.0000 
     41 CA          5.4300   16.8235   14.1955 C.3       2 GLC5        0.0000 
     42 CA          4.9860   16.0870   12.4450 C.3       4 GLP5        0.0000 
     43 CA          5.2823   26.7285   18.8843 C.3       2 GLC5        0.0000 
     44 CA          6.7530   24.9150   19.8600 C.3       6 GLL5        0.0000 
     45 CA          4.2460   28.3050   18.4790 C.3       4 GLP5        0.0000 
     46 CA          5.0951   25.7845   20.7893 C.3       2 GLC5        0.0000 
     47 CA          5.8840   25.3890   18.7190 C.3       6 GLL5        0.0000 
     48 CA          6.9425   24.0970   16.1232 C.3       2 GLC5        0.0000 
     49 CA          8.0700   24.4360   14.5600 C.3       4 GLP5        0.0000 
     50 CA          3.8205   24.0663   17.8874 C.3       2 GLC5        0.0000 
     51 CA          5.6900   23.0330   17.8750 C.3       6 GLL5        0.0000 
     52 CA          4.8767   22.6078   13.2052 C.3       2 GLC5        0.0000 
     53 CA          4.6310   23.4070   11.4310 C.3       4 GLP5        0.0000 
     54 CA          6.6993   23.0838   14.9261 C.3       2 GLC5        0.0000 
     55 CA          5.2230   21.1740   14.5630 C.3       6 GLL5        0.0000 
@<TRIPOS>BOND
@<TRIPOS>SUBSTRUCTURE
     1 SEC2        9 GROUP        1 X    SEC  0     ROOT SEC X 2
     2 GLC5        1 GROUP        1 X    GLC  0     **** GLC X 6
     3 SEP2       11 GROUP        1 Y    SEP  0     ROOT SEP Y 9
     4 GLP5        3 GROUP        1 Y    GLP  0     **** GLP Y 13
     5 SEL2       10 GROUP        1 Z    SEL  0     ROOT SEL Z 16
     6 GLL5        2 GROUP        1 Z    GLL  0     **** GLL Z 20
@<TRIPOS>SET

