#    Name: 2aba_STR_1_ligand
#    Modification time : Mon Mar 24 18:56:13 2014

@<TRIPOS>MOLECULE
2aba_STR_1_ligand
   53    56     1     0     0
SMALL
NO_CHARGES


@<TRIPOS>ATOM
      1 C1          7.8810   23.0900   21.1060 C.3       1 STR1500     0.0000 
      2 C2          8.1780   24.0820   22.2260 C.3       1 STR1500     0.0000 
      3 C3          8.3080   25.4830   21.7090 C.2       1 STR1500     0.0000 
      4 O3          9.0360   26.3100   22.2660 O.2       1 STR1500     0.0000 
      5 C4          7.5520   25.8150   20.5000 C.2       1 STR1500     0.0000 
      6 C5          6.7530   24.9150   19.8600 C.2       1 STR1500     0.0000 
      7 C6          5.8840   25.3890   18.7190 C.3       1 STR1500     0.0000 
      8 C7          5.9400   24.4830   17.4980 C.3       1 STR1500     0.0000 
      9 C8          5.6900   23.0330   17.8750 C.3       1 STR1500     0.0000 
     10 C9          6.6910   22.5750   18.9510 C.3       1 STR1500     0.0000 
     11 C10         6.6730   23.4440   20.2330 C.3       1 STR1500     0.0000 
     12 C11         6.5410   21.0680   19.2440 C.3       1 STR1500     0.0000 
     13 C12         6.5900   20.1780   17.9820 C.3       1 STR1500     0.0000 
     14 C13         5.6030   20.6610   16.9210 C.3       1 STR1500     0.0000 
     15 C14         5.8460   22.1350   16.6470 C.3       1 STR1500     0.0000 
     16 C15         5.0220   22.4430   15.3960 C.3       1 STR1500     0.0000 
     17 C16         5.2230   21.1740   14.5630 C.3       1 STR1500     0.0000 
     18 C17         5.8000   20.0910   15.5050 C.3       1 STR1500     0.0000 
     19 C18         4.1510   20.3710   17.3790 C.3       1 STR1500     0.0000 
     20 C19         5.3970   23.2170   21.0510 C.3       1 STR1500     0.0000 
     21 C20         5.1850   18.7250   15.3310 C.2       1 STR1500     0.0000 
     22 O20         4.1320   18.5920   14.7220 O.2       1 STR1500     0.0000 
     23 C21         5.8740   17.5600   15.9460 C.3       1 STR1500     0.0000 
     24 H           7.7175   22.0886   21.5476 H         1 STR1500     0.0000 
     25 H           8.7734   23.0033   20.4574 H         1 STR1500     0.0000 
     26 H           9.1072   23.7825   22.7250 H         1 STR1500     0.0000 
     27 H           7.3693   24.0322   22.9647 H         1 STR1500     0.0000 
     28 H           7.6570   26.7891   20.1477 H         1 STR1500     0.0000 
     29 H           6.1939   26.4051   18.4231 H         1 STR1500     0.0000 
     30 H           4.8385   25.4595   19.0626 H         1 STR1500     0.0000 
     31 H           6.9232   24.5705   17.0300 H         1 STR1500     0.0000 
     32 H           5.1851   24.8043   16.7767 H         1 STR1500     0.0000 
     33 H           4.6977   22.9247   18.2606 H         1 STR1500     0.0000 
     34 H           7.7143   22.6989   18.4988 H         1 STR1500     0.0000 
     35 H           5.5851   20.8995   19.7583 H         1 STR1500     0.0000 
     36 H           7.3433   20.7573   19.9269 H         1 STR1500     0.0000 
     37 H           6.3474   19.1544   18.2649 H         1 STR1500     0.0000 
     38 H           7.6004   20.2008   17.5756 H         1 STR1500     0.0000 
     39 H           6.9266   22.1865   16.3146 H         1 STR1500     0.0000 
     40 H           5.4323   23.2706   14.8910 H         1 STR1500     0.0000 
     41 H           4.0059   22.5452   15.6519 H         1 STR1500     0.0000 
     42 H           5.9241   21.3644   13.7750 H         1 STR1500     0.0000 
     43 H           4.2803   20.8394   14.1782 H         1 STR1500     0.0000 
     44 H           6.8725   20.0530   15.3266 H         1 STR1500     0.0000 
     45 H           3.9944   19.3935   17.5204 H         1 STR1500     0.0000 
     46 H           3.9347   20.8301   18.2406 H         1 STR1500     0.0000 
     47 H           3.4802   20.6809   16.7053 H         1 STR1500     0.0000 
     48 H           5.3115   22.2665   21.3497 H         1 STR1500     0.0000 
     49 H           5.3770   23.7856   21.8734 H         1 STR1500     0.0000 
     50 H           4.5749   23.4339   20.5246 H         1 STR1500     0.0000 
     51 H           6.8004   17.4447   15.5876 H         1 STR1500     0.0000 
     52 H           5.9535   17.6568   16.9381 H         1 STR1500     0.0000 
     53 H           5.3844   16.7053   15.7732 H         1 STR1500     0.0000 
@<TRIPOS>BOND
     1    2    1 1    
     2   11    1 1    
     3   24    1 1    
     4   25    1 1    
     5    3    2 1    
     6   26    2 1    
     7   27    2 1    
     8    4    3 2    
     9    5    3 1    
    10    6    5 2    
    11   28    5 1    
    12    7    6 1    
    13   11    6 1    
    14    8    7 1    
    15   29    7 1    
    16   30    7 1    
    17    9    8 1    
    18   31    8 1    
    19   32    8 1    
    20   10    9 1    
    21   15    9 1    
    22   33    9 1    
    23   11   10 1    
    24   12   10 1    
    25   34   10 1    
    26   20   11 1    
    27   13   12 1    
    28   35   12 1    
    29   36   12 1    
    30   14   13 1    
    31   37   13 1    
    32   38   13 1    
    33   15   14 1    
    34   18   14 1    
    35   19   14 1    
    36   16   15 1    
    37   39   15 1    
    38   17   16 1    
    39   40   16 1    
    40   41   16 1    
    41   18   17 1    
    42   42   17 1    
    43   43   17 1    
    44   21   18 1    
    45   44   18 1    
    46   45   19 1    
    47   46   19 1    
    48   47   19 1    
    49   48   20 1    
    50   49   20 1    
    51   50   20 1    
    52   22   21 2    
    53   23   21 1    
    54   51   23 1    
    55   52   23 1    
    56   53   23 1    
@<TRIPOS>SUBSTRUCTURE
     1 STR1500     1 GROUP   
@<TRIPOS>SET

