#    Name: 3dyl_PCG_1_INTS_M
#    Modification time : Tue Mar 25 00:45:00 2014

@<TRIPOS>MOLECULE
3dyl_PCG_1_INTS_M
   41     0    12     0     0
SMALL
NO_CHARGES


@<TRIPOS>ATOM
      1 Zn         84.2145   48.4230   42.1245 Zn        3 ZIC7        0.0000 
      2 Zn         83.3550   48.9350   41.6540 Zn       11 ZIL7        0.0000 
      3 Zn         85.0740   47.9110   42.5950 Zn        7 ZIP7        0.0000 
      4 N          83.7530   50.4080   40.9380 N.am      2 SEC2        0.0000 
      5 N          83.3550   48.9350   41.6540 N.am     10 SEL2        0.0000 
      6 N          84.1510   51.8810   40.2220 N.am      6 SEP2        0.0000 
      7 Zn         84.6170   48.0315   38.9125 Zn        3 ZIC7        0.0000 
      8 Zn         84.0030   48.6790   38.9180 Zn       11 ZIL7        0.0000 
      9 Zn         85.2310   47.3840   38.9070 Zn        7 ZIP7        0.0000 
     10 N          82.9595   51.1655   39.9295 N.am      2 SEC2        0.0000 
     11 N          81.7680   50.4500   39.6370 N.am     10 SEL2        0.0000 
     12 CA         79.6825   53.1925   40.8305 C.3       4 GLC5        0.0000 
     13 CA         79.3260   51.2420   40.2670 C.3      12 GLL5        0.0000 
     14 CA         80.0390   55.1430   41.3940 C.3       8 GLP5        0.0000 
     15 CA         78.6130   53.1235   39.3610 C.3       4 GLC5        0.0000 
     16 CA         77.9000   55.0050   38.4550 C.3       8 GLP5        0.0000 
     17 N          78.4150   52.6710   38.8545 N.am      2 SEC2        0.0000 
     18 N          79.1760   51.6690   38.9390 N.am     10 SEL2        0.0000 
     19 N          77.6540   53.6730   38.7700 N.am      6 SEP2        0.0000 
     20 CA         78.2565   48.4680   41.8480 C.3       4 GLC5        0.0000 
     21 CA         78.1050   50.3930   40.7130 C.3      12 GLL5        0.0000 
     22 CA         78.4080   46.5430   42.9830 C.3       8 GLP5        0.0000 
     23 CA         76.5220   49.6375   41.8235 C.3       4 GLC5        0.0000 
     24 CA         74.9390   48.8820   42.9340 C.3       8 GLP5        0.0000 
     25 N          75.1140   53.2830   46.4395 N.am      2 SEC2        0.0000 
     26 N          76.1460   52.3870   45.8980 N.am     10 SEL2        0.0000 
     27 N          74.0820   54.1790   46.9810 N.am      6 SEP2        0.0000 
     28 O          74.2755   53.9025   44.4830 O.2       1 ALC1        0.0000 
     29 O          75.1200   53.0130   44.0700 O.2       9 ALL1        0.0000 
     30 O          73.4310   54.7920   44.8960 O.2       5 ALP1        0.0000 
     31 O          72.4645   54.0475   42.4100 O.2       1 ALC1        0.0000 
     32 O          74.0030   53.6080   42.1690 O.2       9 ALL1        0.0000 
     33 O          70.9260   54.4870   42.6510 O.2       5 ALP1        0.0000 
     34 O          73.7170   54.2000   43.5325 O.2       1 ALC1        0.0000 
     35 CA         79.1388   47.3410   39.0605 C.3       4 GLC5        0.0000 
     36 CA         79.8360   48.9890   39.9100 C.3      12 GLL5        0.0000 
     37 CA         78.0530   46.3210   37.9930 C.3       8 GLP5        0.0000 
     38 CA         79.3162   47.4520   41.5555 C.3       4 GLC5        0.0000 
     39 CA         77.3215   53.1535   42.8680 C.3       4 GLC5        0.0000 
     40 CA         76.8000   51.5200   42.5640 C.3      12 GLL5        0.0000 
     41 CA         77.7730   54.7520   42.4830 C.3       8 GLP5        0.0000 
@<TRIPOS>BOND
@<TRIPOS>SUBSTRUCTURE
     1 ALC1       28 GROUP        1 X    ALC  0     ROOT ALC X 1
     2 SEC2        4 GROUP        1 X    SEC  0     **** SEC X 2
     3 ZIC7        1 GROUP        1 X    ZIC  0     **** ZIC X 5
     4 GLC5       12 GROUP        1 X    GLC  0     **** GLC X 6
     5 ALP1       30 GROUP        1 Y    ALP  0     ROOT ALP Y 8
     6 SEP2        6 GROUP        1 Y    SEP  0     **** SEP Y 9
     7 ZIP7        3 GROUP        1 Y    ZIP  0     **** ZIP Y 12
     8 GLP5       14 GROUP        1 Y    GLP  0     **** GLP Y 13
     9 ALL1       29 GROUP        1 Z    ALL  0     ROOT ALL Z 15
    10 SEL2        5 GROUP        1 Z    SEL  0     **** SEL Z 16
    11 ZIL7        2 GROUP        1 Z    ZIL  0     **** ZIL Z 19
    12 GLL5       13 GROUP        1 Z    GLL  0     **** GLL Z 20
@<TRIPOS>SET

