#    Name: 3dyl_PCG_1_ligand
#    Modification time : Tue Mar 25 00:45:01 2014

@<TRIPOS>MOLECULE
3dyl_PCG_1_ligand
   34    37     1     0     0
SMALL
NO_CHARGES


@<TRIPOS>ATOM
      1 PA         83.0590   49.0560   40.0980 P.3       1 PCG900      0.0000 
      2 O1A        83.3550   48.9350   41.6540 O.co2     1 PCG900      0.0000 
      3 O2A        84.0030   48.6790   38.9180 O.co2     1 PCG900      0.0000 
      4 O5'        82.0270   47.6920   40.0200 O.3       1 PCG900      0.0000 
      5 C5'        80.6130   47.7330   40.3460 C.3       1 PCG900      0.0000 
      6 C4'        79.8360   48.9890   39.9100 C.3       1 PCG900      0.0000 
      7 O4'        78.5760   49.0570   40.6070 O.3       1 PCG900      0.0000 
      8 C3'        80.4960   50.2950   40.3360 C.3       1 PCG900      0.0000 
      9 O3'        81.7680   50.4500   39.6370 O.3       1 PCG900      0.0000 
     10 C2'        79.3260   51.2420   40.2670 C.3       1 PCG900      0.0000 
     11 O2'        79.1760   51.6690   38.9390 O.3       1 PCG900      0.0000 
     12 C1'        78.1050   50.3930   40.7130 C.3       1 PCG900      0.0000 
     13 N9         77.7670   50.7220   42.1170 N.pl3     1 PCG900      0.0000 
     14 C8         78.4830   50.3260   43.1680 C.2       1 PCG900      0.0000 
     15 N7         77.9710   50.8400   44.3000 N.2       1 PCG900      0.0000 
     16 C5         76.9400   51.5900   43.9420 C.2       1 PCG900      0.0000 
     17 C6         76.0620   52.3430   44.6800 C.2       1 PCG900      0.0000 
     18 O6         76.1460   52.3870   45.8980 O.2       1 PCG900      0.0000 
     19 N1         75.1200   53.0130   44.0700 N.am      1 PCG900      0.0000 
     20 C2         74.9920   52.9280   42.7410 C.2       1 PCG900      0.0000 
     21 N2         74.0030   53.6080   42.1690 N.pl3     1 PCG900      0.0000 
     22 N3         75.7960   52.2100   41.9530 N.2       1 PCG900      0.0000 
     23 C4         76.8000   51.5200   42.5640 C.2       1 PCG900      0.0000 
     24 H          80.4618   47.6206   41.4527 H         1 PCG900      0.0000 
     25 H          80.0823   46.8481   39.9037 H         1 PCG900      0.0000 
     26 H          79.6888   48.9991   38.8662 H         1 PCG900      0.0000 
     27 H          80.6836   50.1112   41.4401 H         1 PCG900      0.0000 
     28 H          79.4642   52.0153   40.9648 H         1 PCG900      0.0000 
     29 H          77.3144   50.5964   40.0552 H         1 PCG900      0.0000 
     30 H          79.2718   49.7430   43.1292 H         1 PCG900      0.0000 
     31 H          74.4561   53.6224   44.6109 H         1 PCG900      0.0000 
     32 H          73.4467   54.1723   42.7790 H         1 PCG900      0.0000 
     33 H          73.9048   53.4939   41.1804 H         1 PCG900      0.0000 
     34 H          80.0965   51.9250   38.6440 H         1 PCG900      0.0000 
@<TRIPOS>BOND
     1    2    1 ar   
     2    3    1 ar   
     3    4    1 1    
     4    9    1 1    
     5    5    4 1    
     6    6    5 1    
     7   24    5 1    
     8   25    5 1    
     9    7    6 1    
    10    8    6 1    
    11   26    6 1    
    12   12    7 1    
    13    9    8 1    
    14   10    8 1    
    15   27    8 1    
    16   11   10 1    
    17   12   10 1    
    18   28   10 1    
    19   34   11 1    
    20   13   12 1    
    21   29   12 1    
    22   14   13 1    
    23   23   13 1    
    24   15   14 2    
    25   30   14 1    
    26   16   15 1    
    27   17   16 1    
    28   23   16 2    
    29   18   17 2    
    30   19   17 am   
    31   20   19 1    
    32   31   19 1    
    33   21   20 1    
    34   22   20 2    
    35   32   21 1    
    36   33   21 1    
    37   23   22 1    
@<TRIPOS>SUBSTRUCTURE
     1 PCG900      1 GROUP   
@<TRIPOS>SET

