#    Name: 4kba_1QM_4_INTS_M
#    Modification time : Tue Mar 25 07:40:56 2014

@<TRIPOS>MOLECULE
4kba_1QM_4_INTS_M
   67     0     6     0     0
SMALL
NO_CHARGES


@<TRIPOS>ATOM
      1 CA         22.2485  -49.0740    5.7760 C.3       2 GLC5        0.0000 
      2 CA         23.2200  -47.3510    5.7400 C.3       6 GLL5        0.0000 
      3 CA         21.2770  -50.7970    5.8120 C.3       4 GLP5        0.0000 
      4 CA         19.5520  -49.2675    4.1810 C.3       2 GLC5        0.0000 
      5 CA         18.8310  -47.5850    3.6620 C.3       6 GLL5        0.0000 
      6 CA         20.2730  -50.9500    4.7000 C.3       4 GLP5        0.0000 
      7 CA         19.2330  -45.9485    3.2740 C.3       2 GLC5        0.0000 
      8 CA         19.6350  -44.3120    2.8860 C.3       4 GLP5        0.0000 
      9 CA         18.9155  -43.8355    7.6280 C.3       2 GLC5        0.0000 
     10 CA         17.9590  -45.2260    8.6740 C.3       6 GLL5        0.0000 
     11 CA         19.8720  -42.4450    6.5820 C.3       4 GLP5        0.0000 
     12 CA         22.7940  -42.9430    7.5315 C.3       2 GLC5        0.0000 
     13 CA         22.4150  -45.0310    7.8080 C.3       6 GLL5        0.0000 
     14 CA         23.1730  -40.8550    7.2550 C.3       4 GLP5        0.0000 
     15 CA         23.5495  -43.5810   10.9100 C.3       2 GLC5        0.0000 
     16 CA         22.7000  -44.3710    9.0060 C.3       6 GLL5        0.0000 
     17 CA         24.3990  -42.7910   12.8140 C.3       4 GLP5        0.0000 
     18 CA         22.2730  -42.5680    9.1925 C.3       2 GLC5        0.0000 
     19 CA         21.8460  -40.7650    9.3790 C.3       4 GLP5        0.0000 
     20 N          22.2415  -43.0845   10.7640 N.am      1 SEC2        0.0000 
     21 N          21.8620  -44.3380   10.0650 N.am      5 SEL2        0.0000 
     22 N          22.6210  -41.8310   11.4630 N.am      3 SEP2        0.0000 
     23 CA         25.7600  -49.5240    8.6320 C.3       2 GLC5        0.0000 
     24 CA         25.0830  -48.0440    7.1070 C.3       6 GLL5        0.0000 
     25 CA         26.4370  -51.0040   10.1570 C.3       4 GLP5        0.0000 
     26 CA         26.3265  -46.7295    7.5240 C.3       2 GLC5        0.0000 
     27 CA         27.5700  -45.4150    7.9410 C.3       4 GLP5        0.0000 
     28 CA         22.3895  -48.8310    7.5715 C.3       2 GLC5        0.0000 
     29 CA         23.7410  -47.7040    6.9820 C.3       6 GLL5        0.0000 
     30 CA         21.0380  -49.9580    8.1610 C.3       4 GLP5        0.0000 
     31 CA         27.3730  -46.8745    7.0090 C.3       2 GLC5        0.0000 
     32 CA         27.1760  -48.3340    6.0770 C.3       6 GLL5        0.0000 
     33 CA         22.4765  -45.8880   10.2115 C.3       2 GLC5        0.0000 
     34 CA         20.6570  -44.9400    9.9170 C.3       6 GLL5        0.0000 
     35 CA         24.2960  -46.8360   10.5060 C.3       4 GLP5        0.0000 
     36 CA         21.2515  -42.8525    9.6480 C.3       2 GLC5        0.0000 
     37 CA         19.9503  -45.3630    4.5027 C.3       2 GLC5        0.0000 
     38 CA         20.8880  -46.3630    6.4330 C.3       6 GLL5        0.0000 
     39 CA         24.8380  -49.3180    3.9053 C.3       2 GLC5        0.0000 
     40 CA         24.0420  -47.3350    4.6100 C.3       6 GLL5        0.0000 
     41 CA         24.9640  -51.1340    3.1490 C.3       4 GLP5        0.0000 
     42 CA         24.5578  -45.7917    6.3890 C.3       2 GLC5        0.0000 
     43 CA         25.6350  -44.0560    6.4170 C.3       4 GLP5        0.0000 
     44 CA         25.8083  -46.1730    5.0936 C.3       2 GLC5        0.0000 
     45 CA         25.3820  -47.6690    4.7130 C.3       6 GLL5        0.0000 
     46 CA         26.3150  -44.5850    4.8720 C.3       4 GLP5        0.0000 
     47 CA         21.2340  -44.9575   12.1938 C.3       2 GLC5        0.0000 
     48 CA         19.7690  -44.9680   11.1400 C.3       6 GLL5        0.0000 
     49 CA         22.2550  -44.9610   13.8590 C.3       4 GLP5        0.0000 
     50 CA         18.1075  -46.9255   10.0027 C.3       2 GLC5        0.0000 
     51 CA         17.5230  -45.0240   10.1390 C.3       6 GLL5        0.0000 
     52 CA         18.4740  -48.7260   10.5990 C.3       4 GLP5        0.0000 
     53 CA         24.0962  -44.3785    7.4120 C.3       2 GLC5        0.0000 
     54 CA         21.2148  -43.5730    7.4945 C.3       2 GLC5        0.0000 
     55 CA         23.2719  -45.8464    9.4371 C.3       2 GLC5        0.0000 
     56 CA         21.1760  -45.6540    7.6530 C.3       6 GLL5        0.0000 
     57 CA         24.3540  -47.3550    8.7752 C.3       2 GLC5        0.0000 
     58 CA         26.1118  -49.8900    5.8803 C.3       2 GLC5        0.0000 
     59 CA         25.8920  -51.5970    5.4530 C.3       4 GLP5        0.0000 
     60 CA         27.8761  -47.4546    4.8445 C.3       2 GLC5        0.0000 
     61 CA         25.8910  -48.0200    5.9690 C.3       6 GLL5        0.0000 
     62 CA         29.3460  -46.8200    3.9800 C.3       4 GLP5        0.0000 
     63 CA         20.6878  -48.0974    7.2927 C.3       2 GLC5        0.0000 
     64 CA         20.1048  -44.3409    6.5032 C.3       2 GLC5        0.0000 
     65 CA         20.1657  -43.8440    7.9485 C.3       2 GLC5        0.0000 
     66 CA         20.2620  -45.5460    8.7130 C.3       6 GLL5        0.0000 
     67 CA         19.3558  -46.9880   10.1099 C.3       2 GLC5        0.0000 
@<TRIPOS>BOND
@<TRIPOS>SUBSTRUCTURE
     1 SEC2       20 GROUP        1 X    SEC  0     ROOT SEC X 2
     2 GLC5        1 GROUP        1 X    GLC  0     **** GLC X 6
     3 SEP2       22 GROUP        1 Y    SEP  0     ROOT SEP Y 9
     4 GLP5        3 GROUP        1 Y    GLP  0     **** GLP Y 13
     5 SEL2       21 GROUP        1 Z    SEL  0     ROOT SEL Z 16
     6 GLL5        2 GROUP        1 Z    GLL  0     **** GLL Z 20
@<TRIPOS>SET

