#    Name: 4kba_1QM_4_ligand
#    Modification time : Tue Mar 25 07:40:56 2014

@<TRIPOS>MOLECULE
4kba_1QM_4_ligand
   40    43     1     0     0
SMALL
NO_CHARGES


@<TRIPOS>ATOM
      1 N3         19.8530  -47.1930    4.6420 N.pl3     1 1QM401      0.0000 
      2 C4         20.8880  -46.3630    6.4330 C.2       1 1QM401      0.0000 
      3 N2         21.1530  -47.5660    4.4880 N.2       1 1QM401      0.0000 
      4 C7         24.0420  -47.3350    4.6100 C.ar      1 1QM401      0.0000 
      5 C6         23.2200  -47.3510    5.7400 C.ar      1 1QM401      0.0000 
      6 C9         25.8910  -48.0200    5.9690 C.ar      1 1QM401      0.0000 
      7 C13        18.8310  -47.5850    3.6620 C.3       1 1QM401      0.0000 
      8 C8         25.3820  -47.6690    4.7130 C.ar      1 1QM401      0.0000 
      9 C18        19.7690  -44.9680   11.1400 C.3       1 1QM401      0.0000 
     10 C16        17.9590  -45.2260    8.6740 C.3       1 1QM401      0.0000 
     11 C1         21.1760  -45.6540    7.6530 C.ar      1 1QM401      0.0000 
     12 C2         22.4150  -45.0310    7.8080 C.ar      1 1QM401      0.0000 
     13 C3         22.7000  -44.3710    9.0060 C.ar      1 1QM401      0.0000 
     14 N1         21.8620  -44.3380   10.0650 N.ar      1 1QM401      0.0000 
     15 C5         21.8050  -47.0700    5.5860 C.2       1 1QM401      0.0000 
     16 C10        25.0830  -48.0440    7.1070 C.ar      1 1QM401      0.0000 
     17 C11        23.7410  -47.7040    6.9820 C.ar      1 1QM401      0.0000 
     18 F1         27.1760  -48.3340    6.0770 F         1 1QM401      0.0000 
     19 C12        19.6430  -46.4650    5.8060 C.2       1 1QM401      0.0000 
     20 C14        20.6570  -44.9400    9.9170 C.ar      1 1QM401      0.0000 
     21 C15        20.2620  -45.5460    8.7130 C.ar      1 1QM401      0.0000 
     22 O1         19.0340  -46.1350    8.5930 O.3       1 1QM401      0.0000 
     23 N4         18.4800  -44.2850   10.9640 N.4       1 1QM401      0.0000 
     24 C17        17.5230  -45.0240   10.1390 C.3       1 1QM401      0.0000 
     25 H          23.6430  -47.0721    3.6964 H         1 1QM401      0.0000 
     26 H          25.9900  -47.6616    3.8965 H         1 1QM401      0.0000 
     27 H          20.3270  -44.5137   11.9873 H         1 1QM401      0.0000 
     28 H          19.6008  -46.0292   11.4253 H         1 1QM401      0.0000 
     29 H          17.0737  -45.5750    8.1193 H         1 1QM401      0.0000 
     30 H          18.2203  -44.2330    8.2755 H         1 1QM401      0.0000 
     31 H          23.1047  -45.0567    7.0563 H         1 1QM401      0.0000 
     32 H          23.6342  -43.8721    9.0690 H         1 1QM401      0.0000 
     33 H          25.4722  -48.3063    8.0114 H         1 1QM401      0.0000 
     34 H          23.1292  -47.7129    7.8102 H         1 1QM401      0.0000 
     35 H          18.8342  -46.1121    6.1129 H         1 1QM401      0.0000 
     36 H          17.3303  -46.0294   10.5713 H         1 1QM401      0.0000 
     37 H          16.5391  -44.5076   10.1260 H         1 1QM401      0.0000 
     38 H          19.0370  -47.2322    2.7493 H         1 1QM401      0.0000 
     39 H          18.7552  -48.5789    3.5818 H         1 1QM401      0.0000 
     40 H          17.9258  -47.2412    3.9117 H         1 1QM401      0.0000 
@<TRIPOS>BOND
     1    3    1 1    
     2    7    1 1    
     3   19    1 1    
     4   11    2 1    
     5   15    2 1    
     6   19    2 2    
     7   15    3 2    
     8    5    4 ar   
     9    8    4 ar   
    10   25    4 1    
    11   15    5 1    
    12   17    5 ar   
    13    8    6 ar   
    14   16    6 ar   
    15   18    6 1    
    16   38    7 1    
    17   39    7 1    
    18   40    7 1    
    19   26    8 1    
    20   20    9 1    
    21   23    9 1    
    22   27    9 1    
    23   28    9 1    
    24   22   10 1    
    25   24   10 1    
    26   29   10 1    
    27   30   10 1    
    28   12   11 ar   
    29   21   11 ar   
    30   13   12 ar   
    31   31   12 1    
    32   14   13 ar   
    33   32   13 1    
    34   20   14 ar   
    35   17   16 ar   
    36   33   16 1    
    37   34   17 1    
    38   35   19 1    
    39   21   20 ar   
    40   22   21 1    
    41   24   23 1    
    42   36   24 1    
    43   37   24 1    
@<TRIPOS>SUBSTRUCTURE
     1 1QM401      1 GROUP   
@<TRIPOS>SET

