#    Name: 3ibq_ATP_1_INTS_M
#    Modification time : Tue Mar 25 16:11:12 2014

@<TRIPOS>MOLECULE
3ibq_ATP_1_INTS_M
   59     0    12     0     0
SMALL
NO_CHARGES


@<TRIPOS>ATOM
      1 N          19.2600   25.7615   21.8390 N.am      2 SEC2        0.0000 
      2 N          18.5920   27.1170   21.8060 N.am     10 SEL2        0.0000 
      3 N          19.9280   24.4060   21.8720 N.am      6 SEP2        0.0000 
      4 Zn         19.1720   27.6330   18.9145 Zn        3 ZIC7        0.0000 
      5 Zn         18.9130   27.1250   19.8950 Zn       11 ZIL7        0.0000 
      6 Zn         19.4310   28.1410   17.9340 Zn        7 ZIP7        0.0000 
      7 Zn         18.2360   27.5330   18.0595 Zn        3 ZIC7        0.0000 
      8 Zn         17.0410   26.9250   18.1850 Zn       11 ZIL7        0.0000 
      9 N          16.5185   23.5835   21.5990 N.am      2 SEC2        0.0000 
     10 N          16.0450   23.7720   20.2300 N.am     10 SEL2        0.0000 
     11 N          16.9920   23.3950   22.9680 N.am      6 SEP2        0.0000 
     12 CA         19.5745   23.4820   20.1065 C.3       4 GLC5        0.0000 
     13 CA         18.3740   22.0710   19.3840 C.3      12 GLL5        0.0000 
     14 CA         20.7750   24.8930   20.8290 C.3       8 GLP5        0.0000 
     15 CA         19.6740   19.4715   20.4185 C.3       4 GLC5        0.0000 
     16 CA         18.3680   20.5890   19.1770 C.3      12 GLL5        0.0000 
     17 CA         20.9800   18.3540   21.6600 C.3       8 GLP5        0.0000 
     18 CA         15.2585   20.0375   17.5510 C.3       4 GLC5        0.0000 
     19 CA         17.4420   20.0550   18.0890 C.3      12 GLL5        0.0000 
     20 CA         13.0750   20.0200   17.0130 C.3       8 GLP5        0.0000 
     21 O          17.8620   20.5710   15.8025 O.2       1 ALC1        0.0000 
     22 O          18.1750   19.8160   16.9640 O.2       9 ALL1        0.0000 
     23 O          17.5490   21.3260   14.6410 O.2       5 ALP1        0.0000 
     24 CA         15.3145   17.9220   17.9795 C.3       4 GLC5        0.0000 
     25 CA         17.1970   18.7040   18.5930 C.3      12 GLL5        0.0000 
     26 CA         13.4320   17.1400   17.3660 C.3       8 GLP5        0.0000 
     27 O          18.8540   17.2810   17.1725 O.2       1 ALC1        0.0000 
     28 O          18.4220   18.0130   18.3610 O.2       9 ALL1        0.0000 
     29 O          19.2860   16.5490   15.9840 O.2       5 ALP1        0.0000 
     30 CA         18.6240   17.9975   20.8410 C.3       4 GLC5        0.0000 
     31 CA         17.0920   18.9290   20.0750 C.3      12 GLL5        0.0000 
     32 CA         20.1560   17.0660   21.6070 C.3       8 GLP5        0.0000 
     33 CA         11.0965   17.8310   20.4315 C.3       4 GLC5        0.0000 
     34 CA         12.5550   18.2930   21.8910 C.3      12 GLL5        0.0000 
     35 CA          9.6380   17.3690   18.9720 C.3       8 GLP5        0.0000 
     36 CA         11.1275   16.7020   22.4305 C.3       4 GLC5        0.0000 
     37 CA          9.7000   15.1110   22.9700 C.3       8 GLP5        0.0000 
     38 CA         13.2095   17.6725   23.8710 C.3       4 GLC5        0.0000 
     39 CA         13.8640   17.0520   25.8510 C.3       8 GLP5        0.0000 
     40 O          10.2785   18.1210   22.7095 O.2       1 ALC1        0.0000 
     41 O          11.4760   18.8740   22.3980 O.2       9 ALL1        0.0000 
     42 O           9.0810   17.3680   23.0210 O.2       5 ALP1        0.0000 
     43 N          11.4700   16.1460   21.7300 N.am      2 SEC2        0.0000 
     44 N          12.6710   17.0100   21.7920 N.am     10 SEL2        0.0000 
     45 N          10.2690   15.2820   21.6680 N.am      6 SEP2        0.0000 
     46 CA         13.5815   16.7800   19.3370 C.3       4 GLC5        0.0000 
     47 CA         13.7310   16.4200   21.3080 C.3      12 GLL5        0.0000 
     48 CA         12.1110   15.6975   20.2940 C.3       4 GLC5        0.0000 
     49 CA         10.4910   14.9750   19.2800 C.3       8 GLP5        0.0000 
     50 CA         12.7650   15.0740   22.4565 C.3       4 GLC5        0.0000 
     51 CA         11.7990   13.7280   23.6050 C.3       8 GLP5        0.0000 
     52 CA         14.1515   17.7485   19.1645 C.3       4 GLC5        0.0000 
     53 CA         14.8710   18.3570   20.9630 C.3      12 GLL5        0.0000 
     54 CA         18.1315   21.8515   21.2673 C.3       4 GLC5        0.0000 
     55 CA         17.8920   22.3730   23.2540 C.3       8 GLP5        0.0000 
     56 CA         20.0520   21.2710   18.2007 C.3       4 GLC5        0.0000 
     57 CA         21.7330   21.2120   17.1210 C.3       8 GLP5        0.0000 
     58 CA         15.1678   18.3573   23.0810 C.3       4 GLC5        0.0000 
     59 CA         16.0360   17.9910   24.9530 C.3       8 GLP5        0.0000 
@<TRIPOS>BOND
@<TRIPOS>SUBSTRUCTURE
     1 ALC1       21 GROUP        1 X    ALC  0     ROOT ALC X 1
     2 SEC2        1 GROUP        1 X    SEC  0     **** SEC X 2
     3 ZIC7        4 GROUP        1 X    ZIC  0     **** ZIC X 5
     4 GLC5       12 GROUP        1 X    GLC  0     **** GLC X 6
     5 ALP1       23 GROUP        1 Y    ALP  0     ROOT ALP Y 8
     6 SEP2        3 GROUP        1 Y    SEP  0     **** SEP Y 9
     7 ZIP7        6 GROUP        1 Y    ZIP  0     **** ZIP Y 12
     8 GLP5       14 GROUP        1 Y    GLP  0     **** GLP Y 13
     9 ALL1       22 GROUP        1 Z    ALL  0     ROOT ALL Z 15
    10 SEL2        2 GROUP        1 Z    SEL  0     **** SEL Z 16
    11 ZIL7        5 GROUP        1 Z    ZIL  0     **** ZIL Z 19
    12 GLL5       13 GROUP        1 Z    GLL  0     **** GLL Z 20
@<TRIPOS>SET

