#    Name: 3ibq_ATP_1_ligand
#    Modification time : Tue Mar 25 16:11:12 2014

@<TRIPOS>MOLECULE
3ibq_ATP_1_ligand
   43    45     1     0     0
SMALL
NO_CHARGES


@<TRIPOS>ATOM
      1 PG         17.0870   27.0090   21.9150 P.3       1 ATP281      0.0000 
      2 O1G        16.5940   26.3960   23.2250 O.co2     1 ATP281      0.0000 
      3 O2G        16.1910   28.0980   21.5230 O.co2     1 ATP281      0.0000 
      4 O3G        18.5920   27.1170   21.8060 O.co2     1 ATP281      0.0000 
      5 PB         17.7620   26.3550   19.3680 P.3       1 ATP281      0.0000 
      6 O1B        18.9130   27.1250   19.8950 O.co2     1 ATP281      0.0000 
      7 O2B        17.0410   26.9250   18.1850 O.co2     1 ATP281      0.0000 
      8 O3B        16.7750   26.2050   20.5790 O.3       1 ATP281      0.0000 
      9 PA         16.6630   23.8990   18.8810 P.3       1 ATP281      0.0000 
     10 O1A        15.7790   24.1850   17.7790 O.co2     1 ATP281      0.0000 
     11 O2A        16.0450   23.7720   20.2300 O.co2     1 ATP281      0.0000 
     12 O3A        17.9550   24.8200   19.1060 O.3       1 ATP281      0.0000 
     13 O5'        17.4440   22.6070   18.5210 O.3       1 ATP281      0.0000 
     14 C5'        18.3740   22.0710   19.3840 C.3       1 ATP281      0.0000 
     15 C4'        18.3680   20.5890   19.1770 C.3       1 ATP281      0.0000 
     16 O4'        17.9800   19.9660   20.3780 O.3       1 ATP281      0.0000 
     17 C3'        17.4420   20.0550   18.0890 C.3       1 ATP281      0.0000 
     18 O3'        18.1750   19.8160   16.9640 O.3       1 ATP281      0.0000 
     19 C2'        17.1970   18.7040   18.5930 C.3       1 ATP281      0.0000 
     20 O2'        18.4220   18.0130   18.3610 O.3       1 ATP281      0.0000 
     21 C1'        17.0920   18.9290   20.0750 C.3       1 ATP281      0.0000 
     22 N9         15.7460   19.2460   20.6070 N.pl3     1 ATP281      0.0000 
     23 C8         15.2580   20.4200   20.8390 C.2       1 ATP281      0.0000 
     24 N7         14.0420   20.3320   21.3490 N.2       1 ATP281      0.0000 
     25 C5         13.7280   19.0900   21.4550 C.ar      1 ATP281      0.0000 
     26 C6         12.5550   18.2930   21.8910 C.ar      1 ATP281      0.0000 
     27 N6         11.4760   18.8740   22.3980 N.pl3     1 ATP281      0.0000 
     28 N1         12.6710   17.0100   21.7920 N.ar      1 ATP281      0.0000 
     29 C2         13.7310   16.4200   21.3080 C.ar      1 ATP281      0.0000 
     30 N3         14.8150   17.0320   20.9150 N.ar      1 ATP281      0.0000 
     31 C4         14.8710   18.3570   20.9630 C.ar      1 ATP281      0.0000 
     32 H          18.1388   22.2657   20.4363 H         1 ATP281      0.0000 
     33 H          19.3899   22.4343   19.1928 H         1 ATP281      0.0000 
     34 H          19.3889   20.2645   18.9242 H         1 ATP281      0.0000 
     35 H          16.6051   20.5910   18.0183 H         1 ATP281      0.0000 
     36 H          16.3736   18.2835   18.2104 H         1 ATP281      0.0000 
     37 H          17.4561   18.0037   20.5685 H         1 ATP281      0.0000 
     38 H          15.7228   21.2849   20.6628 H         1 ATP281      0.0000 
     39 H          11.6220   19.7523   22.8534 H         1 ATP281      0.0000 
     40 H          10.6140   18.3812   22.2791 H         1 ATP281      0.0000 
     41 H          13.7085   15.3334   21.2261 H         1 ATP281      0.0000 
     42 H          17.7998   20.4354   16.2744 H         1 ATP281      0.0000 
     43 H          18.2398   17.4196   17.5771 H         1 ATP281      0.0000 
@<TRIPOS>BOND
     1    2    1 ar   
     2    3    1 ar   
     3    4    1 ar   
     4    8    1 1    
     5    6    5 ar   
     6    7    5 ar   
     7    8    5 1    
     8   12    5 1    
     9   10    9 ar   
    10   11    9 ar   
    11   12    9 1    
    12   13    9 1    
    13   14   13 1    
    14   15   14 1    
    15   32   14 1    
    16   33   14 1    
    17   16   15 1    
    18   17   15 1    
    19   34   15 1    
    20   21   16 1    
    21   18   17 1    
    22   19   17 1    
    23   35   17 1    
    24   42   18 1    
    25   20   19 1    
    26   21   19 1    
    27   36   19 1    
    28   43   20 1    
    29   22   21 1    
    30   37   21 1    
    31   23   22 1    
    32   31   22 1    
    33   24   23 2    
    34   38   23 1    
    35   25   24 1    
    36   26   25 ar   
    37   31   25 ar   
    38   27   26 1    
    39   28   26 ar   
    40   39   27 1    
    41   40   27 1    
    42   29   28 ar   
    43   30   29 ar   
    44   41   29 1    
    45   31   30 ar   
@<TRIPOS>SUBSTRUCTURE
     1 ATP281      1 GROUP   
@<TRIPOS>SET

