#    Name: 1u8v_FAD_1_INTS_M
#    Modification time : Tue Mar 25 06:16:37 2014

@<TRIPOS>MOLECULE
1u8v_FAD_1_INTS_M
  114     0    12     0     0
SMALL
NO_CHARGES


@<TRIPOS>ATOM
      1 NZ         78.3405   32.0020   30.7930 N.4       3 LYC4        0.0000 
      2 NZ         78.9420   31.8750   32.1340 N.4      11 LYL4        0.0000 
      3 NZ         77.7390   32.1290   29.4520 N.4       7 LYP4        0.0000 
      4 N          78.3405   32.0020   30.7930 N.am      2 SEC2        0.0000 
      5 N          78.9420   31.8750   32.1340 N.am     10 SEL2        0.0000 
      6 N          77.7390   32.1290   29.4520 N.am      6 SEP2        0.0000 
      7 NZ         81.2540   34.0025   32.0265 N.4       3 LYC4        0.0000 
      8 NZ         81.2030   32.8620   32.9010 N.4      11 LYL4        0.0000 
      9 NZ         82.1820   35.0190   30.1680 N.4       7 LYP4        0.0000 
     10 N          81.2540   34.0025   32.0265 N.am      2 SEC2        0.0000 
     11 N          81.2030   32.8620   32.9010 N.am     10 SEL2        0.0000 
     12 N          81.3050   35.1430   31.1520 N.am      6 SEP2        0.0000 
     13 CA         82.1740   30.3230   34.8830 C.3       4 GLC5        0.0000 
     14 CA         80.7420   31.3300   35.4390 C.3      12 GLL5        0.0000 
     15 CA         83.6060   29.3160   34.3270 C.3       8 GLP5        0.0000 
     16 CA         81.0245   30.9415   38.1850 C.3       4 GLC5        0.0000 
     17 CA         79.7800   31.4830   36.5440 C.3      12 GLL5        0.0000 
     18 CA         82.2690   30.4000   39.8260 C.3       8 GLP5        0.0000 
     19 O          78.7060   28.7550   38.5365 O.2       1 ALC1        0.0000 
     20 O          78.4990   30.1420   38.2520 O.2       9 ALL1        0.0000 
     21 O          78.9130   27.3680   38.8210 O.2       5 ALP1        0.0000 
     22 CA         78.2630   34.5765   36.9835 C.3       4 GLC5        0.0000 
     23 CA         77.7340   32.4830   36.7410 C.3      12 GLL5        0.0000 
     24 CA         78.7920   36.6700   37.2260 C.3       8 GLP5        0.0000 
     25 CA         77.8315   33.1125   38.8255 C.3       4 GLC5        0.0000 
     26 CA         77.9290   33.7420   40.9100 C.3       8 GLP5        0.0000 
     27 CA         74.3485   35.4490   38.7370 C.3       4 GLC5        0.0000 
     28 CA         73.9540   34.7310   37.1440 C.3      12 GLL5        0.0000 
     29 CA         74.7430   36.1670   40.3300 C.3       8 GLP5        0.0000 
     30 CA         73.9140   33.5040   38.6760 C.3       4 GLC5        0.0000 
     31 CA         73.8740   32.2770   40.2080 C.3       8 GLP5        0.0000 
     32 N          74.9670   33.0275   38.2270 N.am      2 SEC2        0.0000 
     33 N          75.0750   33.9750   37.1850 N.am     10 SEL2        0.0000 
     34 N          74.8590   32.0800   39.2690 N.am      6 SEP2        0.0000 
     35 N          79.8610   25.7865   24.7670 N.am      2 SEC2        0.0000 
     36 N          80.6370   24.6090   24.5810 N.am     10 SEL2        0.0000 
     37 N          79.0850   26.9640   24.9530 N.am      6 SEP2        0.0000 
     38 N          78.8925   25.6495   21.3245 N.am      2 SEC2        0.0000 
     39 N          79.6230   25.0690   22.6130 N.am     10 SEL2        0.0000 
     40 N          78.1620   26.2300   20.0360 N.am      6 SEP2        0.0000 
     41 N          79.1820   26.4915   22.4705 N.am      2 SEC2        0.0000 
     42 N          78.7410   27.9140   22.3280 N.am      6 SEP2        0.0000 
     43 N          80.7875   25.6055   21.8490 N.am      2 SEC2        0.0000 
     44 N          81.9520   26.1420   21.0850 N.am      6 SEP2        0.0000 
     45 N          83.8445   21.4605   22.2690 N.am      2 SEC2        0.0000 
     46 N          82.3020   21.5550   22.6400 N.am     10 SEL2        0.0000 
     47 N          85.3870   21.3660   21.8980 N.am      6 SEP2        0.0000 
     48 CA         86.1510   21.9330   26.1000 C.3       4 GLC5        0.0000 
     49 CA         84.4520   21.6670   27.1390 C.3      12 GLL5        0.0000 
     50 CA         87.8500   22.1990   25.0610 C.3       8 GLP5        0.0000 
     51 CA         87.0085   21.8060   26.9950 C.3       4 GLC5        0.0000 
     52 CA         86.1670   21.4130   28.9290 C.3      12 GLL5        0.0000 
     53 CA         87.8400   20.7625   29.5880 C.3       4 GLC5        0.0000 
     54 CA         89.5130   20.1120   30.2470 C.3       8 GLP5        0.0000 
     55 CA         84.9115   20.1665   29.6310 C.3       4 GLC5        0.0000 
     56 CA         83.6560   18.9200   30.3330 C.3       8 GLP5        0.0000 
     57 CA         87.3500   22.3925   30.2730 C.3       4 GLC5        0.0000 
     58 CA         88.5330   23.3720   31.6170 C.3       8 GLP5        0.0000 
     59 CA         85.5140   23.2035   32.3880 C.3       4 GLC5        0.0000 
     60 CA         84.8920   23.5280   30.3550 C.3      12 GLL5        0.0000 
     61 CA         86.1360   22.8790   34.4210 C.3       8 GLP5        0.0000 
     62 CA         84.0960   21.6415   30.9575 C.3       4 GLC5        0.0000 
     63 CA         83.3000   19.7550   31.5600 C.3       8 GLP5        0.0000 
     64 CA         84.9420   25.2915   30.9615 C.3       4 GLC5        0.0000 
     65 CA         84.9920   27.0550   31.5680 C.3       8 GLP5        0.0000 
     66 CA         86.7125   23.4500   30.9860 C.3       4 GLC5        0.0000 
     67 CA         80.6450   26.7765   25.8225 C.3       4 GLC5        0.0000 
     68 CA         81.4650   25.4320   27.0990 C.3      12 GLL5        0.0000 
     69 CA         79.8250   28.1210   24.5460 C.3       8 GLP5        0.0000 
     70 CA         82.6175   26.7700   26.7315 C.3       4 GLC5        0.0000 
     71 CA         83.7700   28.1080   26.3640 C.3       8 GLP5        0.0000 
     72 CA         79.7675   23.3750   28.9480 C.3       4 GLC5        0.0000 
     73 CA         80.4020   25.3760   28.1990 C.3      12 GLL5        0.0000 
     74 CA         79.1330   21.3740   29.6970 C.3       8 GLP5        0.0000 
     75 O          79.1085   26.0750   26.2555 O.2       1 ALC1        0.0000 
     76 O          79.1320   25.1860   27.5580 O.2       9 ALL1        0.0000 
     77 O          79.0850   26.9640   24.9530 O.2       5 ALP1        0.0000 
     78 CA         77.3440   25.9530   30.4695 C.3       4 GLC5        0.0000 
     79 CA         79.2260   26.9200   29.9490 C.3      12 GLL5        0.0000 
     80 CA         75.4620   24.9860   30.9900 C.3       8 GLP5        0.0000 
     81 N          83.2495   28.5580   31.4510 N.am      2 SEC2        0.0000 
     82 N          82.2530   29.1040   30.5380 N.am     10 SEL2        0.0000 
     83 N          84.2460   28.0120   32.3640 N.am      6 SEP2        0.0000 
     84 NZ         79.5055   31.7010   29.6150 N.4       3 LYC4        0.0000 
     85 NZ         81.2720   31.2730   29.7780 N.4      11 LYL4        0.0000 
     86 NZ         81.9365   32.5480   29.7600 N.4       3 LYC4        0.0000 
     87 N          81.9365   32.5480   29.7600 N.am      2 SEC2        0.0000 
     88 N          81.2720   31.2730   29.7780 N.am     10 SEL2        0.0000 
     89 N          82.6010   33.8230   29.7420 N.am      6 SEP2        0.0000 
     90 N          81.8070   31.4110   28.5275 N.am      2 SEC2        0.0000 
     91 N          82.3420   31.5490   27.2770 N.am      6 SEP2        0.0000 
     92 CA         77.6405   28.9742   35.7587 C.3       4 GLC5        0.0000 
     93 CA         77.5470   31.0510   36.1870 C.3      12 GLL5        0.0000 
     94 CA         77.1440   27.1880   34.9710 C.3       8 GLP5        0.0000 
     95 CA         77.2542   35.5538   36.3930 C.3       4 GLC5        0.0000 
     96 CA         75.8410   34.0090   36.0990 C.3      12 GLL5        0.0000 
     97 CA         83.3653   20.5862   27.9733 C.3       4 GLC5        0.0000 
     98 CA         83.3830   22.3180   26.5760 C.3      12 GLL5        0.0000 
     99 CA         82.8130   19.1800   29.0890 C.3       8 GLP5        0.0000 
    100 CA         83.6830   20.8335   28.9260 C.3       4 GLC5        0.0000 
    101 CA         84.8620   21.9600   28.4210 C.3      12 GLL5        0.0000 
    102 CA         86.8178   23.2082   28.2240 C.3       4 GLC5        0.0000 
    103 CA         88.1210   24.7300   27.7730 C.3       8 GLP5        0.0000 
    104 CA         86.3445   24.0005   28.7515 C.3       4 GLC5        0.0000 
    105 CA         84.2440   23.0140   29.1050 C.3      12 GLL5        0.0000 
    106 CA         83.9622   24.5805   26.6163 C.3       4 GLC5        0.0000 
    107 CA         83.2230   23.6960   28.5020 C.3      12 GLL5        0.0000 
    108 CA         84.7750   25.8900   25.5300 C.3       8 GLP5        0.0000 
    109 CA         80.1397   27.5400   27.1750 C.3       4 GLC5        0.0000 
    110 CA         79.8820   29.0670   25.7410 C.3       8 GLP5        0.0000 
    111 CA         80.7332   25.2760   30.5865 C.3       4 GLC5        0.0000 
    112 CA         80.3930   26.6500   29.0190 C.3      12 GLL5        0.0000 
    113 CA         81.0690   24.5390   32.5640 C.3       8 GLP5        0.0000 
    114 CA         80.1983   26.0173   31.4983 C.3       4 GLC5        0.0000 
@<TRIPOS>BOND
@<TRIPOS>SUBSTRUCTURE
     1 ALC1       19 GROUP        1 X    ALC  0     ROOT ALC X 1
     2 SEC2        4 GROUP        1 X    SEC  0     **** SEC X 2
     3 LYC4        1 GROUP        1 X    LYC  0     **** LYC X 4
     4 GLC5       13 GROUP        1 X    GLC  0     **** GLC X 6
     5 ALP1       21 GROUP        1 Y    ALP  0     ROOT ALP Y 8
     6 SEP2        6 GROUP        1 Y    SEP  0     **** SEP Y 9
     7 LYP4        3 GROUP        1 Y    LYP  0     **** LYP Y 11
     8 GLP5       15 GROUP        1 Y    GLP  0     **** GLP Y 13
     9 ALL1       20 GROUP        1 Z    ALL  0     ROOT ALL Z 15
    10 SEL2        5 GROUP        1 Z    SEL  0     **** SEL Z 16
    11 LYL4        2 GROUP        1 Z    LYL  0     **** LYL Z 18
    12 GLL5       14 GROUP        1 Z    GLL  0     **** GLL Z 20
@<TRIPOS>SET

