#    Name: 1u8v_FAD_1_ligand
#    Modification time : Tue Mar 25 06:16:38 2014

@<TRIPOS>MOLECULE
1u8v_FAD_1_ligand
   84    89     1     0     0
SMALL
NO_CHARGES


@<TRIPOS>ATOM
      1 PA         80.2500   31.7330   32.8070 P.3       1 FAD492      0.0000 
      2 O1A        78.9420   31.8750   32.1340 O.co2     1 FAD492      0.0000 
      3 O2A        81.2030   32.8620   32.9010 O.co2     1 FAD492      0.0000 
      4 O5B        79.9220   31.2610   34.2780 O.3       1 FAD492      0.0000 
      5 C5B        80.7420   31.3300   35.4390 C.3       1 FAD492      0.0000 
      6 C4B        79.7800   31.4830   36.5440 C.3       1 FAD492      0.0000 
      7 O4B        79.1390   32.7300   36.5840 O.3       1 FAD492      0.0000 
      8 C3B        78.7270   30.4700   36.9060 C.3       1 FAD492      0.0000 
      9 O3B        78.4990   30.1420   38.2520 O.3       1 FAD492      0.0000 
     10 C2B        77.5470   31.0510   36.1870 C.3       1 FAD492      0.0000 
     11 O2B        76.2790   30.5680   36.6040 O.3       1 FAD492      0.0000 
     12 C1B        77.7340   32.4830   36.7410 C.3       1 FAD492      0.0000 
     13 N9A        77.0520   33.4470   35.8800 N.pl3     1 FAD492      0.0000 
     14 C8A        77.4560   33.8250   34.6430 C.2       1 FAD492      0.0000 
     15 N7A        76.5690   34.6800   34.1200 N.2       1 FAD492      0.0000 
     16 C5A        75.5920   34.8660   35.0210 C.ar      1 FAD492      0.0000 
     17 C6A        74.4540   35.6420   35.0030 C.ar      1 FAD492      0.0000 
     18 N6A        74.0450   36.3290   33.9550 N.pl3     1 FAD492      0.0000 
     19 N1A        73.6240   35.5310   36.0810 N.ar      1 FAD492      0.0000 
     20 C2A        73.9540   34.7310   37.1440 C.ar      1 FAD492      0.0000 
     21 N3A        75.0750   33.9750   37.1850 N.ar      1 FAD492      0.0000 
     22 C4A        75.8410   34.0090   36.0990 C.ar      1 FAD492      0.0000 
     23 N1         80.6370   24.6090   24.5810 N.2       1 FAD492      0.0000 
     24 C2         80.2950   24.3280   23.3380 C.2       1 FAD492      0.0000 
     25 O2         79.6230   25.0690   22.6130 O.2       1 FAD492      0.0000 
     26 N3         80.8940   23.2740   22.7080 N.am      1 FAD492      0.0000 
     27 C4         81.7820   22.4570   23.3160 C.2       1 FAD492      0.0000 
     28 O4         82.3020   21.5550   22.6400 O.2       1 FAD492      0.0000 
     29 C4X        82.1070   22.7250   24.6200 C.2       1 FAD492      0.0000 
     30 N5         83.0470   21.9790   25.2990 N.2       1 FAD492      0.0000 
     31 C5X        83.3830   22.3180   26.5760 C.ar      1 FAD492      0.0000 
     32 C6         84.4520   21.6670   27.1390 C.ar      1 FAD492      0.0000 
     33 C7         84.8620   21.9600   28.4210 C.ar      1 FAD492      0.0000 
     34 C7M        86.1670   21.4130   28.9290 C.3       1 FAD492      0.0000 
     35 C8         84.2440   23.0140   29.1050 C.ar      1 FAD492      0.0000 
     36 C8M        84.8920   23.5280   30.3550 C.3       1 FAD492      0.0000 
     37 C9         83.2230   23.6960   28.5020 C.ar      1 FAD492      0.0000 
     38 C9A        82.7690   23.3740   27.2300 C.ar      1 FAD492      0.0000 
     39 N10        81.7900   24.0980   26.5520 N.pl3     1 FAD492      0.0000 
     40 C10        81.5760   23.8620   25.2330 C.2       1 FAD492      0.0000 
     41 C1'        81.4650   25.4320   27.0990 C.3       1 FAD492      0.0000 
     42 C2'        80.4020   25.3760   28.1990 C.3       1 FAD492      0.0000 
     43 O2'        79.1320   25.1860   27.5580 O.3       1 FAD492      0.0000 
     44 C3'        80.3930   26.6500   29.0190 C.3       1 FAD492      0.0000 
     45 O3'        81.5800   26.6630   29.7930 O.3       1 FAD492      0.0000 
     46 C4'        79.2260   26.9200   29.9490 C.3       1 FAD492      0.0000 
     47 O4'        78.0990   27.2610   29.1760 O.3       1 FAD492      0.0000 
     48 C5'        79.4290   28.0710   30.9160 C.3       1 FAD492      0.0000 
     49 O5'        79.7620   29.3160   30.2810 O.3       1 FAD492      0.0000 
     50 P          81.1220   30.0530   30.6200 P.3       1 FAD492      0.0000 
     51 O1P        82.2530   29.1040   30.5380 O.co2     1 FAD492      0.0000 
     52 O2P        81.2720   31.2730   29.7780 O.co2     1 FAD492      0.0000 
     53 O3P        80.9870   30.4840   32.1640 O.3       1 FAD492      0.0000 
     54 H          81.3996   32.1855   35.4113 H         1 FAD492      0.0000 
     55 H          81.3113   30.4236   35.5784 H         1 FAD492      0.0000 
     56 H          80.4521   31.5104   37.5348 H         1 FAD492      0.0000 
     57 H          78.9885   29.5584   36.2933 H         1 FAD492      0.0000 
     58 H          77.7329   31.0944   35.1729 H         1 FAD492      0.0000 
     59 H          77.4316   32.5204   37.7239 H         1 FAD492      0.0000 
     60 H          78.2717   33.5153   34.2078 H         1 FAD492      0.0000 
     61 H          73.1752   36.8117   34.0574 H         1 FAD492      0.0000 
     62 H          74.6417   36.3050   33.1529 H         1 FAD492      0.0000 
     63 H          73.2921   34.7088   37.9727 H         1 FAD492      0.0000 
     64 H          80.6458   23.0936   21.6926 H         1 FAD492      0.0000 
     65 H          84.9602   20.9433   26.5929 H         1 FAD492      0.0000 
     66 H          82.7629   24.4886   29.0093 H         1 FAD492      0.0000 
     67 H          81.0970   26.0940   26.2984 H         1 FAD492      0.0000 
     68 H          82.3687   25.9038   27.5176 H         1 FAD492      0.0000 
     69 H          80.6331   24.5430   28.8410 H         1 FAD492      0.0000 
     70 H          80.4543   27.5041   28.3046 H         1 FAD492      0.0000 
     71 H          79.0207   26.0249   30.5264 H         1 FAD492      0.0000 
     72 H          80.2218   27.7699   31.6386 H         1 FAD492      0.0000 
     73 H          78.4997   28.1712   31.5224 H         1 FAD492      0.0000 
     74 H          86.9402   21.7231   28.3758 H         1 FAD492      0.0000 
     75 H          86.3475   21.6973   29.8706 H         1 FAD492      0.0000 
     76 H          86.1804   20.4132   28.9170 H         1 FAD492      0.0000 
     77 H          85.8138   23.8739   30.1802 H         1 FAD492      0.0000 
     78 H          84.3702   24.2773   30.7627 H         1 FAD492      0.0000 
     79 H          84.9736   22.8149   31.0512 H         1 FAD492      0.0000 
     80 H          78.1540   29.2036   38.2347 H         1 FAD492      0.0000 
     81 H          76.3835   30.3760   37.5798 H         1 FAD492      0.0000 
     82 H          79.0806   25.9069   26.8669 H         1 FAD492      0.0000 
     83 H          81.7134   27.6212   30.0459 H         1 FAD492      0.0000 
     84 H          78.1396   26.6579   28.3793 H         1 FAD492      0.0000 
@<TRIPOS>BOND
     1    2    1 ar   
     2    3    1 ar   
     3    4    1 1    
     4   53    1 1    
     5    5    4 1    
     6    6    5 1    
     7   54    5 1    
     8   55    5 1    
     9    7    6 1    
    10    8    6 1    
    11   56    6 1    
    12   12    7 1    
    13    9    8 1    
    14   10    8 1    
    15   57    8 1    
    16   80    9 1    
    17   11   10 1    
    18   12   10 1    
    19   58   10 1    
    20   81   11 1    
    21   13   12 1    
    22   59   12 1    
    23   14   13 1    
    24   22   13 1    
    25   15   14 2    
    26   60   14 1    
    27   16   15 1    
    28   17   16 ar   
    29   22   16 ar   
    30   18   17 1    
    31   19   17 ar   
    32   61   18 1    
    33   62   18 1    
    34   20   19 ar   
    35   21   20 ar   
    36   63   20 1    
    37   22   21 ar   
    38   24   23 1    
    39   40   23 2    
    40   25   24 2    
    41   26   24 am   
    42   27   26 am   
    43   64   26 1    
    44   28   27 2    
    45   29   27 1    
    46   30   29 2    
    47   40   29 1    
    48   31   30 1    
    49   32   31 ar   
    50   38   31 ar   
    51   33   32 ar   
    52   65   32 1    
    53   34   33 1    
    54   35   33 ar   
    55   74   34 1    
    56   75   34 1    
    57   76   34 1    
    58   36   35 1    
    59   37   35 ar   
    60   77   36 1    
    61   78   36 1    
    62   79   36 1    
    63   38   37 ar   
    64   66   37 1    
    65   39   38 1    
    66   40   39 1    
    67   41   39 1    
    68   42   41 1    
    69   67   41 1    
    70   68   41 1    
    71   43   42 1    
    72   44   42 1    
    73   69   42 1    
    74   82   43 1    
    75   45   44 1    
    76   46   44 1    
    77   70   44 1    
    78   83   45 1    
    79   47   46 1    
    80   48   46 1    
    81   71   46 1    
    82   84   47 1    
    83   49   48 1    
    84   72   48 1    
    85   73   48 1    
    86   50   49 1    
    87   51   50 ar   
    88   52   50 ar   
    89   53   50 1    
@<TRIPOS>SUBSTRUCTURE
     1 FAD492      1 GROUP   
@<TRIPOS>SET

