#    Name: 1gup_GDU_4_INTS_M
#    Modification time : Tue Mar 25 03:56:12 2014

@<TRIPOS>MOLECULE
1gup_GDU_4_INTS_M
   93     0    12     0     0
SMALL
NO_CHARGES


@<TRIPOS>ATOM
      1 O          -7.2090  -11.4605  156.1980 O.2       1 ALC1        0.0000 
      2 O          -6.0650  -10.9550  155.8590 O.2       9 ALL1        0.0000 
      3 O          -8.3530  -11.9660  156.5370 O.2       5 ALP1        0.0000 
      4 CA         -5.0165  -11.6620  152.6840 C.3       4 GLC5        0.0000 
      5 CA         -4.0950  -11.5150  154.7030 C.3      12 GLL5        0.0000 
      6 CA         -5.9380  -11.8090  150.6650 C.3       8 GLP5        0.0000 
      7 CA         -4.7635  -13.2070  155.1930 C.3       4 GLC5        0.0000 
      8 CA         -5.4320  -14.8990  155.6830 C.3       8 GLP5        0.0000 
      9 N          -6.7905   -9.4745  158.4400 N.am      2 SEC2        0.0000 
     10 N          -6.1560   -9.1850  157.2000 N.am     10 SEL2        0.0000 
     11 N          -7.4250   -9.7640  159.6800 N.am      6 SEP2        0.0000 
     12 N          -6.7705  -14.1055  154.0730 N.am      2 SEC2        0.0000 
     13 N          -6.1430  -12.7420  154.5060 N.am     10 SEL2        0.0000 
     14 N          -7.3980  -15.4690  153.6400 N.am      6 SEP2        0.0000 
     15 CA         -4.9500   -6.8375  156.8255 C.3       4 GLC5        0.0000 
     16 CA         -3.4950   -8.4780  156.7290 C.3      12 GLL5        0.0000 
     17 CA         -6.4050   -5.1970  156.9220 C.3       8 GLP5        0.0000 
     18 O          -3.5305   -8.9475  159.2910 O.2       1 ALC1        0.0000 
     19 O          -2.2990   -9.5250  158.6540 O.2       9 ALL1        0.0000 
     20 O          -4.7620   -8.3700  159.9280 O.2       5 ALP1        0.0000 
     21 N          -1.3405   -7.1835  159.9260 N.am      2 SEC2        0.0000 
     22 N          -1.5570   -6.6940  158.5960 N.am     10 SEL2        0.0000 
     23 N          -1.1240   -7.6730  161.2560 N.am      6 SEP2        0.0000 
     24 N          -0.3230   -6.6795  159.7235 N.am      2 SEC2        0.0000 
     25 N           0.9110   -6.6650  160.8510 N.am      6 SEP2        0.0000 
     26 N          -2.9715   -6.4405  159.0660 N.am      2 SEC2        0.0000 
     27 N          -4.3860   -6.1870  159.5360 N.am      6 SEP2        0.0000 
     28 CA          0.6685   -7.1140  154.9515 C.3       4 GLC5        0.0000 
     29 CA         -1.2150   -6.0350  155.2340 C.3      12 GLL5        0.0000 
     30 CA          2.5520   -8.1930  154.6690 C.3       8 GLP5        0.0000 
     31 N           1.9255   -5.0340  153.7015 N.am      2 SEC2        0.0000 
     32 N           0.9380   -3.9810  154.0490 N.am     10 SEL2        0.0000 
     33 N           2.9130   -6.0870  153.3540 N.am      6 SEP2        0.0000 
     34 N           1.6055   -1.8125  156.4540 N.am      2 SEC2        0.0000 
     35 N           0.4620   -2.4990  155.8390 N.am     10 SEL2        0.0000 
     36 N           2.7490   -1.1260  157.0690 N.am      6 SEP2        0.0000 
     37 N          -0.2280   -2.5580  156.9120 N.am      2 SEC2        0.0000 
     38 N          -0.9180   -2.6170  157.9850 N.am      6 SEP2        0.0000 
     39 N           1.4595   -6.1465  155.8750 N.am      2 SEC2        0.0000 
     40 N           1.5350   -4.6580  156.4960 N.am     10 SEL2        0.0000 
     41 N           1.3840   -7.6350  155.2540 N.am      6 SEP2        0.0000 
     42 NZ          0.6085   -5.9510  159.7305 N.4       3 LYC4        0.0000 
     43 NZ          0.3060   -5.2370  158.6100 N.4      11 LYL4        0.0000 
     44 NZ          0.1040   -7.3330  161.6600 N.4       7 LYP4        0.0000 
     45 N           0.6085   -5.9510  159.7305 N.am      2 SEC2        0.0000 
     46 N           0.3060   -5.2370  158.6100 N.am     10 SEL2        0.0000 
     47 N          -0.3060   -3.9270  158.2975 N.am      2 SEC2        0.0000 
     48 NZ          1.8360   -7.7880  158.3300 N.4       3 LYC4        0.0000 
     49 NZ          1.5650   -7.0440  157.5080 N.4      11 LYL4        0.0000 
     50 NZ          3.1830   -8.7410  159.9180 N.4       7 LYP4        0.0000 
     51 N           1.2380   -6.8545  159.1795 N.am      2 SEC2        0.0000 
     52 N           1.5650   -7.0440  157.5080 N.am     10 SEL2        0.0000 
     53 N           1.8360   -7.7880  158.3300 N.am      2 SEC2        0.0000 
     54 N           2.1070   -8.5320  159.1520 N.am      6 SEP2        0.0000 
     55 N           1.4745   -7.3395  156.3810 N.am      2 SEC2        0.0000 
     56 N           2.4945   -6.8975  158.8905 N.am      2 SEC2        0.0000 
     57 N           2.8820   -5.2630  158.6290 N.am     10 SEL2        0.0000 
     58 N           3.5305   -6.5675  159.2315 N.am      2 SEC2        0.0000 
     59 N           4.1790   -7.8720  159.8340 N.am      6 SEP2        0.0000 
     60 CA          6.3865   -4.6985  162.1075 C.3       4 GLC5        0.0000 
     61 CA          4.8600   -4.4130  160.5000 C.3      12 GLL5        0.0000 
     62 CA          7.9130   -4.9840  163.7150 C.3       8 GLP5        0.0000 
     63 CA          4.9320   -1.7745  162.7080 C.3       4 GLC5        0.0000 
     64 CA          4.1590   -3.2550  161.2040 C.3      12 GLL5        0.0000 
     65 CA          5.7050   -0.2940  164.2120 C.3       8 GLP5        0.0000 
     66 CA          1.5175   -0.3245  162.2535 C.3       4 GLC5        0.0000 
     67 CA          1.9860   -1.8770  160.9840 C.3      12 GLL5        0.0000 
     68 CA          1.0490    1.2280  163.5230 C.3       8 GLP5        0.0000 
     69 CA          0.5430   -0.7840  160.5885 C.3       4 GLC5        0.0000 
     70 CA         -0.9000    0.3090  160.1930 C.3       8 GLP5        0.0000 
     71 CA          0.5815   -2.4810  162.1275 C.3       4 GLC5        0.0000 
     72 CA         -0.8230   -3.0850  163.2710 C.3       8 GLP5        0.0000 
     73 N           6.3440   -4.9580  162.2815 N.am      2 SEC2        0.0000 
     74 N           6.2220   -4.5330  160.9190 N.am     10 SEL2        0.0000 
     75 N           6.4660   -5.3830  163.6440 N.am      6 SEP2        0.0000 
     76 O           7.1560   -3.6435  160.7270 O.2       1 ALC1        0.0000 
     77 O           6.2220   -4.5330  160.9190 O.2       9 ALL1        0.0000 
     78 O           8.0900   -2.7540  160.5350 O.2       5 ALP1        0.0000 
     79 O           5.6710   -2.1655  162.2145 O.2       1 ALC1        0.0000 
     80 O           4.8640   -2.0250  161.0640 O.2       9 ALL1        0.0000 
     81 O           6.4780   -2.3060  163.3650 O.2       5 ALP1        0.0000 
     82 N           2.5110    0.7615  161.1450 N.am      2 SEC2        0.0000 
     83 N           2.6580   -0.6550  160.6680 N.am     10 SEL2        0.0000 
     84 N           2.3640    2.1780  161.6220 N.am      6 SEP2        0.0000 
     85 CA         -2.7917  -12.4330  155.2610 C.3       4 GLC5        0.0000 
     86 CA         -3.5120  -10.4810  155.2690 C.3      12 GLL5        0.0000 
     87 CA         -1.7800  -13.8680  155.5360 C.3       8 GLP5        0.0000 
     88 CA         -0.4470   -8.7423  158.2395 C.3       4 GLC5        0.0000 
     89 CA         -2.1650   -8.8410  157.3670 C.3      12 GLL5        0.0000 
     90 CA          0.8890   -9.3270  159.0960 C.3       8 GLP5        0.0000 
     91 CA          5.2257   -2.2192  158.3830 C.3       4 GLC5        0.0000 
     92 CA          3.5440   -4.0050  158.4120 C.3      12 GLL5        0.0000 
     93 CA          6.2120   -0.4060  158.0460 C.3       8 GLP5        0.0000 
@<TRIPOS>BOND
@<TRIPOS>SUBSTRUCTURE
     1 ALC1        1 GROUP        1 X    ALC  0     ROOT ALC X 1
     2 SEC2        9 GROUP        1 X    SEC  0     **** SEC X 2
     3 LYC4       42 GROUP        1 X    LYC  0     **** LYC X 4
     4 GLC5        4 GROUP        1 X    GLC  0     **** GLC X 6
     5 ALP1        3 GROUP        1 Y    ALP  0     ROOT ALP Y 8
     6 SEP2       11 GROUP        1 Y    SEP  0     **** SEP Y 9
     7 LYP4       44 GROUP        1 Y    LYP  0     **** LYP Y 11
     8 GLP5        6 GROUP        1 Y    GLP  0     **** GLP Y 13
     9 ALL1        2 GROUP        1 Z    ALL  0     ROOT ALL Z 15
    10 SEL2       10 GROUP        1 Z    SEL  0     **** SEL Z 16
    11 LYL4       43 GROUP        1 Z    LYL  0     **** LYL Z 18
    12 GLL5        5 GROUP        1 Z    GLL  0     **** GLL Z 20
@<TRIPOS>SET

