#    Name: 1gup_GDU_4_ligand
#    Modification time : Tue Mar 25 03:56:12 2014

@<TRIPOS>MOLECULE
1gup_GDU_4_ligand
   58    60     1     0     0
SMALL
NO_CHARGES


@<TRIPOS>ATOM
      1 N1         -4.1900   -9.6280  156.1340 N.am      1 GDU352      0.0000 
      2 C2         -5.5100   -9.8600  156.4510 C.2       1 GDU352      0.0000 
      3 N3         -6.0650  -10.9550  155.8590 N.am      1 GDU352      0.0000 
      4 C4         -5.4660  -11.8220  154.9570 C.2       1 GDU352      0.0000 
      5 C5         -4.0950  -11.5150  154.7030 C.2       1 GDU352      0.0000 
      6 C6         -3.5120  -10.4810  155.2690 C.2       1 GDU352      0.0000 
      7 O2         -6.1560   -9.1850  157.2000 O.2       1 GDU352      0.0000 
      8 O4         -6.1430  -12.7420  154.5060 O.2       1 GDU352      0.0000 
      9 C1D        -3.4950   -8.4780  156.7290 C.3       1 GDU352      0.0000 
     10 C2D        -2.1650   -8.8410  157.3670 C.3       1 GDU352      0.0000 
     11 O2D        -2.2990   -9.5250  158.6540 O.3       1 GDU352      0.0000 
     12 C3D        -1.4010   -7.4740  157.3990 C.3       1 GDU352      0.0000 
     13 C4D        -2.0840   -6.7100  156.2750 C.3       1 GDU352      0.0000 
     14 O4D        -3.1450   -7.5410  155.7450 O.3       1 GDU352      0.0000 
     15 O3D        -1.5570   -6.6940  158.5960 O.3       1 GDU352      0.0000 
     16 C5D        -1.2150   -6.0350  155.2340 C.3       1 GDU352      0.0000 
     17 O5D        -1.0170   -4.6350  155.5810 O.3       1 GDU352      0.0000 
     18 PA          0.4480   -3.9320  155.4560 P.3       1 GDU352      0.0000 
     19 O1A         0.9380   -3.9810  154.0490 O.co2     1 GDU352      0.0000 
     20 O2A         0.4620   -2.4990  155.8390 O.co2     1 GDU352      0.0000 
     21 O3A         1.5350   -4.6580  156.4960 O.3       1 GDU352      0.0000 
     22 PB          1.5140   -5.5630  157.7930 P.3       1 GDU352      0.0000 
     23 O1B         0.3060   -5.2370  158.6100 O.co2     1 GDU352      0.0000 
     24 O2B         1.5650   -7.0440  157.5080 O.co2     1 GDU352      0.0000 
     25 O3B         2.8820   -5.2630  158.6290 O.3       1 GDU352      0.0000 
     26 C1'         3.5440   -4.0050  158.4120 C.3       1 GDU352      0.0000 
     27 C2'         4.9350   -4.0600  159.0280 C.3       1 GDU352      0.0000 
     28 C3'         4.8600   -4.4130  160.5000 C.3       1 GDU352      0.0000 
     29 C4'         4.1590   -3.2550  161.2040 C.3       1 GDU352      0.0000 
     30 C5'         2.7850   -3.0780  160.5110 C.3       1 GDU352      0.0000 
     31 C6'         1.9860   -1.8770  160.9840 C.3       1 GDU352      0.0000 
     32 O2'         5.7970   -5.0260  158.4180 O.3       1 GDU352      0.0000 
     33 O3'         6.2220   -4.5330  160.9190 O.3       1 GDU352      0.0000 
     34 O4'         4.8640   -2.0250  161.0640 O.3       1 GDU352      0.0000 
     35 O5'         2.8500   -2.9400  159.0560 O.3       1 GDU352      0.0000 
     36 O6'         2.6580   -0.6550  160.6680 O.3       1 GDU352      0.0000 
     37 H          -7.0953  -11.1827  156.1176 H         1 GDU352      0.0000 
     38 H          -3.5886  -12.1525  154.0490 H         1 GDU352      0.0000 
     39 H          -2.4952  -10.2630  155.0813 H         1 GDU352      0.0000 
     40 H          -4.1018   -8.0136  157.4908 H         1 GDU352      0.0000 
     41 H          -1.6303   -9.4586  156.6341 H         1 GDU352      0.0000 
     42 H          -0.4027   -7.6420  157.1098 H         1 GDU352      0.0000 
     43 H          -2.6344   -5.8453  156.8271 H         1 GDU352      0.0000 
     44 H          -1.7041   -6.1297  154.2587 H         1 GDU352      0.0000 
     45 H          -0.2573   -6.5639  155.1850 H         1 GDU352      0.0000 
     46 H           3.6662   -3.8059  157.3631 H         1 GDU352      0.0000 
     47 H           5.3805   -3.0643  158.9641 H         1 GDU352      0.0000 
     48 H           4.3127   -5.2970  160.6128 H         1 GDU352      0.0000 
     49 H           3.9725   -3.5163  162.2160 H         1 GDU352      0.0000 
     50 H           2.1701   -3.9709  160.7406 H         1 GDU352      0.0000 
     51 H           1.8296   -1.9811  162.0703 H         1 GDU352      0.0000 
     52 H           0.9918   -1.9239  160.5099 H         1 GDU352      0.0000 
     53 H          -3.1098   -9.1216  159.0782 H         1 GDU352      0.0000 
     54 H          -1.1097   -5.8221  158.3967 H         1 GDU352      0.0000 
     55 H           6.3503   -5.3890  159.1677 H         1 GDU352      0.0000 
     56 H           6.6672   -3.6988  160.5935 H         1 GDU352      0.0000 
     57 H           5.3276   -1.8913  161.9400 H         1 GDU352      0.0000 
     58 H           3.6319   -0.8803  160.6971 H         1 GDU352      0.0000 
@<TRIPOS>BOND
     1    2    1 1    
     2    6    1 1    
     3    9    1 1    
     4    3    2 1    
     5    7    2 2    
     6    4    3 1    
     7   37    3 1    
     8    5    4 1    
     9    8    4 2    
    10    6    5 2    
    11   38    5 1    
    12   39    6 1    
    13   10    9 1    
    14   14    9 1    
    15   40    9 1    
    16   11   10 1    
    17   12   10 1    
    18   41   10 1    
    19   53   11 1    
    20   13   12 1    
    21   15   12 1    
    22   42   12 1    
    23   14   13 1    
    24   16   13 1    
    25   43   13 1    
    26   54   15 1    
    27   17   16 1    
    28   44   16 1    
    29   45   16 1    
    30   18   17 1    
    31   19   18 ar   
    32   20   18 ar   
    33   21   18 1    
    34   22   21 1    
    35   23   22 ar   
    36   24   22 ar   
    37   25   22 1    
    38   26   25 1    
    39   27   26 1    
    40   35   26 1    
    41   46   26 1    
    42   28   27 1    
    43   32   27 1    
    44   47   27 1    
    45   29   28 1    
    46   33   28 1    
    47   48   28 1    
    48   30   29 1    
    49   34   29 1    
    50   49   29 1    
    51   31   30 1    
    52   35   30 1    
    53   50   30 1    
    54   36   31 1    
    55   51   31 1    
    56   52   31 1    
    57   55   32 1    
    58   56   33 1    
    59   57   34 1    
    60   58   36 1    
@<TRIPOS>SUBSTRUCTURE
     1 GDU352      1 GROUP   
@<TRIPOS>SET

