#    Name: 3LDP_1_CAVITY_N1_ALL.mol2
#    Modification time : Tue Mar 11 11:18:30 2014

@<TRIPOS>MOLECULE
3LDP_1_CAVITY_N1_ALL.mol2
   65     0     7     0     0
SMALL
NO_CHARGES


@<TRIPOS>ATOM
      1 N          13.5078  -14.3380    3.9600 N.2       2 ALA2        0.0000 
      2 CA         14.9764  -13.1225    4.8906 C.3       6 GLY6        0.0000 
      3 N          13.0000  -12.3938    4.6400 N.2       2 ALA2        0.0000 
      4 N          14.0464  -12.9578    3.7252 N.2       2 ALA2        0.0000 
      5 CA         13.1165  -12.7932    2.5599 C.3       6 GLY6        0.0000 
      6 CA         13.4220  -10.6143    6.4853 C.3       6 GLY6        0.0000 
      7 OG         12.4921  -10.4497    5.3199 O.2       1 SER1        0.0000 
      8 O          13.5386  -11.0137    4.4052 O.2       2 ALA2        0.0000 
      9 O          14.5850  -11.5777    3.4904 O.2       2 ALA2        0.0000 
     10 O          20.0064  -11.8195    4.9222 O.2       2 ALA2        0.0000 
     11 CA         12.9142   -8.6701    7.1652 C.3       6 GLY6        0.0000 
     12 CA         13.9606   -9.2342    6.2505 C.3       6 GLY6        0.0000 
     13 CA         15.0071   -9.7982    5.3357 C.3       6 GLY6        0.0000 
     14 CA         16.0536  -10.3622    4.4210 C.3       6 GLY6        0.0000 
     15 CA         17.1001  -10.9262    3.5062 C.3       6 GLY6        0.0000 
     16 N          13.0307   -9.0695    5.0851 N.2       2 ALA2        0.0000 
     17 O          14.0772   -9.6336    4.1704 O.2       2 ALA2        0.0000 
     18 O          15.1236  -10.1976    3.2556 O.2       2 ALA2        0.0000 
     19 O          17.2166  -11.3256    1.4261 O.2       2 ALA2        0.0000 
     20 CA         17.4363   -5.4230    7.8768 C.3       6 GLY6        0.0000 
     21 NZ         18.4828   -5.9871    6.9620 N.2       4 LYS4        0.0000 
     22 CZ         19.5293   -6.5511    6.0473 C.ar      5 PHE5        0.0000 
     23 OG         16.5064   -5.2584    6.7114 O.2       1 SER1        0.0000 
     24 DU         17.5529   -5.8224    5.7966 H         7 CUB7        0.0000 
     25 CZ         18.5993   -6.3864    4.8819 C.ar      5 PHE5        0.0000 
     26 CZ         19.6458   -6.9505    3.9671 C.ar      5 PHE5        0.0000 
     27 CA         16.6229   -5.6578    4.6313 C.3       6 GLY6        0.0000 
     28 NZ         17.6694   -6.2218    3.7165 N.2       4 LYS4        0.0000 
     29 CA         19.0214   -4.6069    6.7272 C.3       6 GLY6        0.0000 
     30 O          18.0914   -4.4423    5.5618 O.2       2 ALA2        0.0000 
     31 CZ         19.1379   -5.0063    4.6471 C.ar      5 PHE5        0.0000 
     32 NZ         18.2080   -4.8417    3.4817 N.2       4 LYS4        0.0000 
     33 OG         21.4750  -10.6040    5.8527 O.2       1 SER1        0.0000 
     34 NZ         17.4056   -8.7473    7.4316 N.2       4 LYS4        0.0000 
     35 NZ         18.4521   -9.3113    6.5169 N.2       4 LYS4        0.0000 
     36 O          19.4986   -9.8754    5.6021 O.2       2 ALA2        0.0000 
     37 OG         20.5450  -10.4394    4.6874 O.2       1 SER1        0.0000 
     38 CA         15.4292   -8.0187    7.1810 C.3       6 GLY6        0.0000 
     39 CA         16.4757   -8.5827    6.2663 C.3       6 GLY6        0.0000 
     40 CA         17.5221   -9.1467    5.3515 C.3       6 GLY6        0.0000 
     41 CA         18.5686   -9.7107    4.4368 C.3       6 GLY6        0.0000 
     42 DU         19.6151  -10.2748    3.5220 H         7 CUB7        0.0000 
     43 CA         20.6615  -10.8388    2.6073 C.3       6 GLY6        0.0000 
     44 CA         13.4528   -7.2900    6.9304 C.3       6 GLY6        0.0000 
     45 N          14.4992   -7.8540    6.0157 N.2       2 ALA2        0.0000 
     46 N          15.5457   -8.4181    5.1009 N.2       2 ALA2        0.0000 
     47 O          16.5922   -8.9821    4.1861 O.2       2 ALA2        0.0000 
     48 O          17.6386   -9.5461    3.2714 O.2       2 ALA2        0.0000 
     49 NZ         18.6851  -10.1101    2.3566 N.2       4 LYS4        0.0000 
     50 CA         19.7316  -10.6741    1.4419 C.3       6 GLY6        0.0000 
     51 OD1        16.8977   -6.8032    8.1116 O.3       3 ASP3        0.0000 
     52 NZ         17.9442   -7.3672    7.1968 N.2       4 LYS4        0.0000 
     53 NZ         18.9907   -7.9312    6.2821 N.2       4 LYS4        0.0000 
     54 OG         20.0371   -8.4952    5.3673 O.2       1 SER1        0.0000 
     55 OG         21.0836   -9.0593    4.4526 O.2       1 SER1        0.0000 
     56 OG         15.9678   -6.6385    6.9462 O.2       1 SER1        0.0000 
     57 DU         17.0143   -7.2026    6.0315 H         7 CUB7        0.0000 
     58 DU         18.0607   -7.7666    5.1167 H         7 CUB7        0.0000 
     59 DU         19.1072   -8.3306    4.2019 H         7 CUB7        0.0000 
     60 CA         20.1537   -8.8946    3.2872 C.3       6 GLY6        0.0000 
     61 O          15.0378   -6.4739    5.7808 O.2       2 ALA2        0.0000 
     62 CA         16.0843   -7.0379    4.8661 C.3       6 GLY6        0.0000 
     63 CA         17.1308   -7.6019    3.9513 C.3       6 GLY6        0.0000 
     64 NZ         18.1772   -8.1660    3.0366 N.2       4 LYS4        0.0000 
     65 CA         19.2237   -8.7300    2.1218 C.3       6 GLY6        0.0000 
@<TRIPOS>BOND
@<TRIPOS>SUBSTRUCTURE
     1 SER1        7 GROUP   
     2 ALA2        1 GROUP   
     3 ASP3       51 GROUP   
     4 LYS4       21 GROUP   
     5 PHE5       22 GROUP   
     6 GLY6        2 GROUP   
     7 CUB7       24 GROUP   
@<TRIPOS>SET

