#    Name: 3ldp_3P1_1_INTS_M
#    Modification time : Mon Mar 24 21:32:48 2014

@<TRIPOS>MOLECULE
3ldp_3P1_1_INTS_M
   55     0     9     0     0
SMALL
NO_CHARGES


@<TRIPOS>ATOM
      1 N          11.3160  -10.5505    6.1560 N.am      2 SEC2        0.0000 
      2 N          12.5140  -10.0740    6.0020 N.am      8 SEL2        0.0000 
      3 N          10.1180  -11.0270    6.3100 N.am      5 SEP2        0.0000 
      4 CA         12.7370   -9.3415    8.8715 C.3       3 GLC5        0.0000 
      5 CA         12.6290   -9.0420    6.8560 C.3       9 GLL5        0.0000 
      6 CA         12.8450   -9.6410   10.8870 C.3       6 GLP5        0.0000 
      7 CA         13.1745  -10.9430    7.4420 C.3       3 GLC5        0.0000 
      8 CA         13.7200  -12.8440    8.0280 C.3       6 GLP5        0.0000 
      9 CA         11.0945   -8.1365    7.4010 C.3       3 GLC5        0.0000 
     10 CA          9.5600   -7.2310    7.9460 C.3       6 GLP5        0.0000 
     11 CA         11.4390  -11.1360    5.2955 C.3       3 GLC5        0.0000 
     12 CA         13.4760  -10.3220    5.0870 C.3       9 GLL5        0.0000 
     13 CA          9.4020  -11.9500    5.5040 C.3       6 GLP5        0.0000 
     14 CA         12.1165   -9.6700    3.8150 C.3       3 GLC5        0.0000 
     15 CA         10.7570   -9.0180    2.5430 C.3       6 GLP5        0.0000 
     16 CA         14.8200   -8.4295    8.0990 C.3       3 GLC5        0.0000 
     17 CA         14.6970   -8.4840    5.9250 C.3       9 GLL5        0.0000 
     18 CA         14.9430   -8.3750   10.2730 C.3       6 GLP5        0.0000 
     19 CA         13.6120   -6.6000    5.6200 C.3       3 GLC5        0.0000 
     20 CA         12.5270   -4.7160    5.3150 C.3       6 GLP5        0.0000 
     21 CA         15.6190   -6.2555    4.4645 C.3       3 GLC5        0.0000 
     22 CA         16.3230   -6.7200    6.3670 C.3       9 GLL5        0.0000 
     23 CA         14.9150   -5.7910    2.5620 C.3       6 GLP5        0.0000 
     24 CA         14.4250   -5.7180    5.8410 C.3       3 GLC5        0.0000 
     25 CA         20.5850   -5.2575    5.2025 C.3       3 GLC5        0.0000 
     26 CA         18.9660   -4.5700    5.3240 C.3       9 GLL5        0.0000 
     27 CA         22.2040   -5.9450    5.0810 C.3       6 GLP5        0.0000 
     28 N          16.7595   -6.2045    9.6130 N.am      2 SEC2        0.0000 
     29 N          17.7500   -5.2120    8.5750 N.am      8 SEL2        0.0000 
     30 N          15.7690   -7.1970   10.6510 N.am      5 SEP2        0.0000 
     31 N          16.4550   -7.4460    9.5330 N.am      2 SEC2        0.0000 
     32 N          17.1410   -7.6950    8.4150 N.am      8 SEL2        0.0000 
     33 O          17.4875   -8.7840    9.0600 O.2       1 ALC1        0.0000 
     34 O          17.1410   -7.6950    8.4150 O.2       7 ALL1        0.0000 
     35 O          17.8340   -9.8730    9.7050 O.2       4 ALP1        0.0000 
     36 O          18.4295   -8.3580    8.6880 O.2       1 ALC1        0.0000 
     37 O          19.7180   -9.0210    8.9610 O.2       4 ALP1        0.0000 
     38 CA         14.7780   -7.3978    4.0222 C.3       3 GLC5        0.0000 
     39 CA         14.5850   -9.5250    5.0400 C.3       9 GLL5        0.0000 
     40 CA         15.1249  -10.4354    6.5081 C.3       3 GLC5        0.0000 
     41 CA         15.8860  -11.6670    7.5220 C.3       6 GLP5        0.0000 
     42 CA         15.9367   -7.6455    8.5135 C.3       3 GLC5        0.0000 
     43 CA         18.3567  -10.7135    5.3852 C.3       3 GLC5        0.0000 
     44 CA         19.2080   -9.9480    3.7600 C.3       9 GLL5        0.0000 
     45 CA         17.0330  -11.6950    6.5560 C.3       6 GLP5        0.0000 
     46 CA         18.9965  -11.4040    5.8255 C.3       3 GLC5        0.0000 
     47 CA         21.0120  -10.4400    5.2630 C.3       9 GLL5        0.0000 
     48 CA         20.6649   -8.6170    2.6596 C.3       3 GLC5        0.0000 
     49 CA         20.1530   -9.5160    4.6690 C.3       9 GLL5        0.0000 
     50 CA         21.8840   -7.7510    1.2680 C.3       6 GLP5        0.0000 
     51 CA         18.4698  -12.2825    5.1903 C.3       3 GLC5        0.0000 
     52 CA         19.9600  -12.1890    4.0010 C.3       9 GLL5        0.0000 
     53 CA         18.6051   -3.3346    6.7761 C.3       3 GLC5        0.0000 
     54 CA         18.2160   -5.7800    7.3690 C.3       9 GLL5        0.0000 
     55 CA         18.7370   -1.7110    7.5020 C.3       6 GLP5        0.0000 
@<TRIPOS>BOND
@<TRIPOS>SUBSTRUCTURE
     1 ALC1       33 GROUP        1 X    ALC  0     ROOT ALC X 1
     2 SEC2        1 GROUP        1 X    SEC  0     **** SEC X 2
     3 GLC5        4 GROUP        1 X    GLC  0     **** GLC X 6
     4 ALP1       35 GROUP        1 Y    ALP  0     ROOT ALP Y 8
     5 SEP2        3 GROUP        1 Y    SEP  0     **** SEP Y 9
     6 GLP5        6 GROUP        1 Y    GLP  0     **** GLP Y 13
     7 ALL1       34 GROUP        1 Z    ALL  0     ROOT ALL Z 15
     8 SEL2        2 GROUP        1 Z    SEL  0     **** SEL Z 16
     9 GLL5        5 GROUP        1 Z    GLL  0     **** GLL Z 20
@<TRIPOS>SET

