#    Name: 3ldp_3P1_1_ligand
#    Modification time : Mon Mar 24 21:32:48 2014

@<TRIPOS>MOLECULE
3ldp_3P1_1_ligand
   52    56     1     0     0
SMALL
NO_CHARGES


@<TRIPOS>ATOM
      1 N1         12.5140  -10.0740    6.0020 N.ar      1 3P1408      0.0000 
      2 C2         12.6290   -9.0420    6.8560 C.ar      1 3P1408      0.0000 
      3 N3         13.7050   -8.2470    6.8200 N.ar      1 3P1408      0.0000 
      4 C4         13.4760  -10.3220    5.0870 C.ar      1 3P1408      0.0000 
      5 N5         15.8380   -7.8660    5.6790 N.pl3     1 3P1408      0.0000 
      6 C6         16.4530   -8.4880    4.6510 C.2       1 3P1408      0.0000 
      7 N7         15.6780   -9.5230    4.2610 N.2       1 3P1408      0.0000 
      8 C8         14.5850   -9.5250    5.0400 C.ar      1 3P1408      0.0000 
      9 C9         14.6970   -8.4840    5.9250 C.ar      1 3P1408      0.0000 
     10 C10        16.3230   -6.7200    6.3670 C.3       1 3P1408      0.0000 
     11 O11        16.8270   -5.7790    5.4060 O.3       1 3P1408      0.0000 
     12 C12        17.7450   -4.9130    6.1840 C.3       1 3P1408      0.0000 
     13 C13        18.2160   -5.7800    7.3690 C.3       1 3P1408      0.0000 
     14 C14        17.5380   -7.1120    7.1410 C.3       1 3P1408      0.0000 
     15 N15        13.3450  -11.3340    4.2410 N.pl3     1 3P1408      0.0000 
     16 N16        17.6380   -8.1360    4.1250 N.pl3     1 3P1408      0.0000 
     17 C17        18.2690   -8.9520    3.1070 C.3       1 3P1408      0.0000 
     18 C18        19.2080   -9.9480    3.7600 C.ar      1 3P1408      0.0000 
     19 N19        19.1250  -11.2680    3.4300 N.ar      1 3P1408      0.0000 
     20 C20        21.0120  -10.4400    5.2630 C.ar      1 3P1408      0.0000 
     21 C21        20.1530   -9.5160    4.6690 C.ar      1 3P1408      0.0000 
     22 C22        20.9080  -11.7860    4.9270 C.ar      1 3P1408      0.0000 
     23 C23        19.9600  -12.1890    4.0010 C.ar      1 3P1408      0.0000 
     24 C24        19.8530  -13.5510    3.6480 C.ar      1 3P1408      0.0000 
     25 C25        20.7060  -14.4930    4.2300 C.ar      1 3P1408      0.0000 
     26 C26        21.6640  -14.0850    5.1590 C.ar      1 3P1408      0.0000 
     27 C27        21.7650  -12.7250    5.5080 C.ar      1 3P1408      0.0000 
     28 C28        18.9660   -4.5700    5.3240 C.3       1 3P1408      0.0000 
     29 O29        19.4990   -5.7730    4.7270 O.3       1 3P1408      0.0000 
     30 O30        17.7500   -5.2120    8.5750 O.3       1 3P1408      0.0000 
     31 O31        17.1410   -7.6950    8.4150 O.3       1 3P1408      0.0000 
     32 H          11.8686   -8.8610    7.5543 H         1 3P1408      0.0000 
     33 H          15.6237   -6.2849    7.0055 H         1 3P1408      0.0000 
     34 H          17.2775   -4.0603    6.5341 H         1 3P1408      0.0000 
     35 H          19.2517   -5.8958    7.3081 H         1 3P1408      0.0000 
     36 H          18.1496   -7.7250    6.5674 H         1 3P1408      0.0000 
     37 H          12.5018  -11.8659    4.3184 H         1 3P1408      0.0000 
     38 H          14.1013  -11.4740    3.6019 H         1 3P1408      0.0000 
     39 H          18.1420   -7.2835    4.4181 H         1 3P1408      0.0000 
     40 H          18.8481   -8.3364    2.4118 H         1 3P1408      0.0000 
     41 H          17.5237   -9.5078    2.5298 H         1 3P1408      0.0000 
     42 H          21.7133  -10.1288    5.9410 H         1 3P1408      0.0000 
     43 H          20.2280   -8.5207    4.9106 H         1 3P1408      0.0000 
     44 H          19.1487  -13.8433    2.9650 H         1 3P1408      0.0000 
     45 H          20.6270  -15.4832    3.9738 H         1 3P1408      0.0000 
     46 H          22.2935  -14.7679    5.5882 H         1 3P1408      0.0000 
     47 H          22.4700  -12.4271    6.1901 H         1 3P1408      0.0000 
     48 H          19.7042   -4.0820    5.9672 H         1 3P1408      0.0000 
     49 H          18.6497   -3.8518    4.5618 H         1 3P1408      0.0000 
     50 H          19.5410   -5.5787    3.7469 H         1 3P1408      0.0000 
     51 H          17.3640   -5.9777    9.0894 H         1 3P1408      0.0000 
     52 H          17.6692   -8.5410    8.4882 H         1 3P1408      0.0000 
@<TRIPOS>BOND
     1    2    1 ar   
     2    4    1 ar   
     3    3    2 ar   
     4   32    2 1    
     5    9    3 ar   
     6    8    4 ar   
     7   15    4 1    
     8    6    5 1    
     9    9    5 1    
    10   10    5 1    
    11    7    6 2    
    12   16    6 1    
    13    8    7 1    
    14    9    8 ar   
    15   11   10 1    
    16   14   10 1    
    17   33   10 1    
    18   12   11 1    
    19   13   12 1    
    20   28   12 1    
    21   34   12 1    
    22   14   13 1    
    23   30   13 1    
    24   35   13 1    
    25   31   14 1    
    26   36   14 1    
    27   37   15 1    
    28   38   15 1    
    29   17   16 1    
    30   39   16 1    
    31   18   17 1    
    32   40   17 1    
    33   41   17 1    
    34   19   18 ar   
    35   21   18 ar   
    36   23   19 ar   
    37   21   20 ar   
    38   22   20 ar   
    39   42   20 1    
    40   43   21 1    
    41   23   22 ar   
    42   27   22 ar   
    43   24   23 ar   
    44   25   24 ar   
    45   44   24 1    
    46   26   25 ar   
    47   45   25 1    
    48   27   26 ar   
    49   46   26 1    
    50   47   27 1    
    51   29   28 1    
    52   48   28 1    
    53   49   28 1    
    54   50   29 1    
    55   51   30 1    
    56   52   31 1    
@<TRIPOS>SUBSTRUCTURE
     1 3P1408      1 GROUP   
@<TRIPOS>SET

