#    Name: 4eym_0RX_1_INTS_M
#    Modification time : Mon Mar 24 18:47:10 2014

@<TRIPOS>MOLECULE
4eym_0RX_1_INTS_M
   68     0     9     0     0
SMALL
NO_CHARGES


@<TRIPOS>ATOM
      1 N         -12.4445   12.4405  -25.3360 N.am      2 SEC2        0.0000 
      2 N         -13.3930   12.3820  -26.5740 N.am      8 SEL2        0.0000 
      3 N         -11.4960   12.4990  -24.0980 N.am      5 SEP2        0.0000 
      4 CA        -15.1805    9.1400  -19.4480 C.3       3 GLC5        0.0000 
      5 CA        -16.4390    9.0650  -21.1810 C.3       9 GLL5        0.0000 
      6 CA        -13.9220    9.2150  -17.7150 C.3       6 GLP5        0.0000 
      7 CA        -18.0365    6.1790  -20.7610 C.3       3 GLC5        0.0000 
      8 CA        -17.4310    7.9360  -20.9340 C.3       9 GLL5        0.0000 
      9 CA        -18.6420    4.4220  -20.5880 C.3       6 GLP5        0.0000 
     10 CA        -17.2540    5.5975  -21.4710 C.3       3 GLC5        0.0000 
     11 CA        -15.8660    6.7730  -22.3540 C.3       9 GLL5        0.0000 
     12 CA        -14.4055    6.7630  -20.9035 C.3       3 GLC5        0.0000 
     13 CA        -12.9450    6.7530  -19.4530 C.3       6 GLP5        0.0000 
     14 CA        -17.2765    8.7285  -24.5110 C.3       3 GLC5        0.0000 
     15 CA        -16.1500    7.8560  -23.3860 C.3       9 GLL5        0.0000 
     16 CA        -18.4030    9.6010  -25.6360 C.3       6 GLP5        0.0000 
     17 CA        -17.6750   13.5690  -22.4960 C.3       3 GLC5        0.0000 
     18 CA        -15.9480   12.6380  -23.2250 C.3       9 GLL5        0.0000 
     19 CA        -19.4020   14.5000  -21.7670 C.3       6 GLP5        0.0000 
     20 CA        -14.4085   14.0700  -25.9425 C.3       3 GLC5        0.0000 
     21 CA        -15.2990   12.6790  -24.4560 C.3       9 GLL5        0.0000 
     22 CA        -13.5180   15.4610  -27.4290 C.3       6 GLP5        0.0000 
     23 O         -15.6270    9.6990  -27.2015 O.2       1 ALC1        0.0000 
     24 O         -14.5590   10.6180  -27.3330 O.2       7 ALL1        0.0000 
     25 O         -16.6950    8.7800  -27.0700 O.2       4 ALP1        0.0000 
     26 CA        -13.8505   11.6130  -32.8015 C.3       3 GLC5        0.0000 
     27 CA        -11.8910   11.9800  -32.8140 C.3       9 GLL5        0.0000 
     28 CA        -15.8100   11.2460  -32.7890 C.3       6 GLP5        0.0000 
     29 CA        -12.1880   14.6330  -32.3920 C.3       3 GLC5        0.0000 
     30 CA        -11.3790   12.9720  -33.6450 C.3       9 GLL5        0.0000 
     31 CA        -12.9970   16.2940  -31.1390 C.3       6 GLP5        0.0000 
     32 CA        -11.1935   14.1025  -35.4415 C.3       3 GLC5        0.0000 
     33 CA        -11.0080   15.2330  -37.2380 C.3       6 GLP5        0.0000 
     34 CA        -10.1150   14.6565  -33.4475 C.3       3 GLC5        0.0000 
     35 CA         -8.8510   16.3410  -33.2500 C.3       6 GLP5        0.0000 
     36 N          -9.6830   13.8630  -35.1710 N.am      2 SEC2        0.0000 
     37 N         -10.3580   12.7070  -34.4720 N.am      8 SEL2        0.0000 
     38 N          -9.0080   15.0190  -35.8700 N.am      5 SEP2        0.0000 
     39 CA        -16.9464   10.0996  -24.8224 C.3       3 GLC5        0.0000 
     40 CA        -14.9400   11.4950  -25.0830 C.3       9 GLL5        0.0000 
     41 CA        -13.6264   11.0661  -23.5234 C.3       3 GLC5        0.0000 
     42 CA        -15.8890   10.3030  -23.2410 C.3       9 GLL5        0.0000 
     43 CA        -11.7630   11.5340  -23.0380 C.3       6 GLP5        0.0000 
     44 CA        -18.1490    8.7937  -22.8153 C.3       3 GLC5        0.0000 
     45 CA        -19.3630    9.0870  -24.5730 C.3       6 GLP5        0.0000 
     46 CA        -16.2379   13.4062  -25.4821 C.3       3 GLC5        0.0000 
     47 CA        -16.9420   14.4500  -26.9670 C.3       6 GLP5        0.0000 
     48 CA        -13.6932   12.0963  -23.4393 C.3       3 GLC5        0.0000 
     49 CA        -15.0187   11.2138  -30.1977 C.3       3 GLC5        0.0000 
     50 CA        -13.8530   10.4180  -28.4740 C.3       9 GLL5        0.0000 
     51 CA        -15.9010   12.3920  -31.4180 C.3       6 GLP5        0.0000 
     52 CA        -15.1810    8.2595  -30.1315 C.3       3 GLC5        0.0000 
     53 CA        -14.4200    9.6530  -29.4810 C.3       9 GLL5        0.0000 
     54 CA        -16.2870    6.9830  -30.1900 C.3       6 GLP5        0.0000 
     55 CA        -12.8567    8.0010  -32.0000 C.3       3 GLC5        0.0000 
     56 CA        -13.7300    9.4190  -30.6650 C.3       9 GLL5        0.0000 
     57 CA        -12.6160    6.3140  -33.2390 C.3       6 GLP5        0.0000 
     58 CA        -14.4537   10.4670  -31.7750 C.3       3 GLC5        0.0000 
     59 CA        -11.2197   12.4913  -28.8773 C.3       3 GLC5        0.0000 
     60 CA        -11.8830   10.7140  -29.8490 C.3       9 GLL5        0.0000 
     61 CA        -10.2090   14.1530  -28.4990 C.3       6 GLP5        0.0000 
     62 CA        -11.6873    9.1415  -34.2940 C.3       3 GLC5        0.0000 
     63 CA        -11.3200   10.7100  -32.8340 C.3       9 GLL5        0.0000 
     64 CA        -12.5820    7.6970  -35.3200 C.3       6 GLP5        0.0000 
     65 CA        -12.2956   11.9232  -34.8053 C.3       3 GLC5        0.0000 
     66 CA        -13.0990   11.6880  -36.3760 C.3       6 GLP5        0.0000 
     67 CA        -11.5663   11.3320  -35.2430 C.3       3 GLC5        0.0000 
     68 CA         -9.8020   11.4900  -34.5180 C.3       9 GLL5        0.0000 
@<TRIPOS>BOND
@<TRIPOS>SUBSTRUCTURE
     1 ALC1       23 GROUP        1 X    ALC  0     ROOT ALC X 1
     2 SEC2        1 GROUP        1 X    SEC  0     **** SEC X 2
     3 GLC5        4 GROUP        1 X    GLC  0     **** GLC X 6
     4 ALP1       25 GROUP        1 Y    ALP  0     ROOT ALP Y 8
     5 SEP2        3 GROUP        1 Y    SEP  0     **** SEP Y 9
     6 GLP5        6 GROUP        1 Y    GLP  0     **** GLP Y 13
     7 ALL1       24 GROUP        1 Z    ALL  0     ROOT ALL Z 15
     8 SEL2        2 GROUP        1 Z    SEL  0     **** SEL Z 16
     9 GLL5        5 GROUP        1 Z    GLL  0     **** GLL Z 20
@<TRIPOS>SET

