#    Name: 4eym_0RX_1_ligand
#    Modification time : Mon Mar 24 18:47:10 2014

@<TRIPOS>MOLECULE
4eym_0RX_1_ligand
   48    51     1     0     0
SMALL
NO_CHARGES


@<TRIPOS>ATOM
      1 O1        -13.3930   12.3820  -26.5740 O.2       1 0RX401      0.0000 
      2 C1        -14.2360   11.5210  -26.4060 C.2       1 0RX401      0.0000 
      3 C13       -14.9400   11.4950  -25.0830 C.ar      1 0RX401      0.0000 
      4 C21       -15.2410   10.2920  -24.4700 C.ar      1 0RX401      0.0000 
      5 C16       -15.8890   10.3030  -23.2410 C.ar      1 0RX401      0.0000 
      6 N4        -16.1680    9.0870  -22.6130 N.3       1 0RX401      0.0000 
      7 C20       -16.4390    9.0650  -21.1810 C.3       1 0RX401      0.0000 
      8 C19       -17.4310    7.9360  -20.9340 C.3       1 0RX401      0.0000 
      9 O3        -16.9610    6.6850  -21.4430 O.3       1 0RX401      0.0000 
     10 C18       -15.8660    6.7730  -22.3540 C.3       1 0RX401      0.0000 
     11 C17       -16.1500    7.8560  -23.3860 C.3       1 0RX401      0.0000 
     12 N3        -16.2240   11.4670  -22.6440 N.ar      1 0RX401      0.0000 
     13 C15       -15.9480   12.6380  -23.2250 C.ar      1 0RX401      0.0000 
     14 C14       -15.2990   12.6790  -24.4560 C.ar      1 0RX401      0.0000 
     15 N1        -14.5590   10.6180  -27.3330 N.am      1 0RX401      0.0000 
     16 C2        -13.8530   10.4180  -28.4740 C.ar      1 0RX401      0.0000 
     17 C12       -14.4200    9.6530  -29.4810 C.ar      1 0RX401      0.0000 
     18 C11       -13.7300    9.4190  -30.6650 C.ar      1 0RX401      0.0000 
     19 C5        -12.4650    9.9570  -30.8570 C.ar      1 0RX401      0.0000 
     20 C4        -11.8830   10.7140  -29.8490 C.ar      1 0RX401      0.0000 
     21 C3        -12.5780   10.9450  -28.6620 C.ar      1 0RX401      0.0000 
     22 O2        -11.8040    9.7060  -32.0340 O.3       1 0RX401      0.0000 
     23 C6        -11.3200   10.7100  -32.8340 C.ar      1 0RX401      0.0000 
     24 C10       -11.8910   11.9800  -32.8140 C.ar      1 0RX401      0.0000 
     25 C9        -11.3790   12.9720  -33.6450 C.ar      1 0RX401      0.0000 
     26 N2        -10.3580   12.7070  -34.4720 N.ar      1 0RX401      0.0000 
     27 C8         -9.8020   11.4900  -34.5180 C.ar      1 0RX401      0.0000 
     28 C7        -10.2650   10.4620  -33.7020 C.ar      1 0RX401      0.0000 
     29 H         -14.9909    9.4042  -24.9136 H         1 0RX401      0.0000 
     30 H         -16.8844    9.9939  -20.8516 H         1 0RX401      0.0000 
     31 H         -15.5398    8.8644  -20.6145 H         1 0RX401      0.0000 
     32 H         -18.3915    8.2255  -21.4004 H         1 0RX401      0.0000 
     33 H         -17.6155    7.8840  -19.8444 H         1 0RX401      0.0000 
     34 H         -15.7070    5.8307  -22.8900 H         1 0RX401      0.0000 
     35 H         -14.9322    7.0319  -21.8427 H         1 0RX401      0.0000 
     36 H         -15.3612    7.8569  -24.1105 H         1 0RX401      0.0000 
     37 H         -17.1011    7.6603  -23.8380 H         1 0RX401      0.0000 
     38 H         -16.2094   13.5389  -22.7749 H         1 0RX401      0.0000 
     39 H         -15.0882   13.5822  -24.8955 H         1 0RX401      0.0000 
     40 H         -15.4258   10.0099  -27.1759 H         1 0RX401      0.0000 
     41 H         -15.3636    9.2523  -29.3525 H         1 0RX401      0.0000 
     42 H         -14.1609    8.8428  -31.4035 H         1 0RX401      0.0000 
     43 H         -10.9411   11.1050  -29.9747 H         1 0RX401      0.0000 
     44 H         -12.1429   11.5111  -27.9179 H         1 0RX401      0.0000 
     45 H         -12.6798   12.1815  -32.1938 H         1 0RX401      0.0000 
     46 H         -11.8076   13.9191  -33.6071 H         1 0RX401      0.0000 
     47 H          -9.0104   11.2861  -35.1659 H         1 0RX401      0.0000 
     48 H          -9.8326    9.5362  -33.7423 H         1 0RX401      0.0000 
@<TRIPOS>BOND
     1    2    1 2    
     2    3    2 1    
     3   15    2 am   
     4    4    3 ar   
     5   14    3 ar   
     6    5    4 ar   
     7   29    4 1    
     8    6    5 1    
     9   12    5 ar   
    10    7    6 1    
    11   11    6 1    
    12    8    7 1    
    13   30    7 1    
    14   31    7 1    
    15    9    8 1    
    16   32    8 1    
    17   33    8 1    
    18   10    9 1    
    19   11   10 1    
    20   34   10 1    
    21   35   10 1    
    22   36   11 1    
    23   37   11 1    
    24   13   12 ar   
    25   14   13 ar   
    26   38   13 1    
    27   39   14 1    
    28   16   15 1    
    29   40   15 1    
    30   17   16 ar   
    31   21   16 ar   
    32   18   17 ar   
    33   41   17 1    
    34   19   18 ar   
    35   42   18 1    
    36   20   19 ar   
    37   22   19 1    
    38   21   20 ar   
    39   43   20 1    
    40   44   21 1    
    41   23   22 1    
    42   24   23 ar   
    43   28   23 ar   
    44   25   24 ar   
    45   45   24 1    
    46   26   25 ar   
    47   46   25 1    
    48   27   26 ar   
    49   28   27 ar   
    50   47   27 1    
    51   48   28 1    
@<TRIPOS>SUBSTRUCTURE
     1 0RX401      1 GROUP   
@<TRIPOS>SET

