#    Name: 1xse_NDP_2_INTS_M
#    Modification time : Tue Mar 25 10:36:28 2014

@<TRIPOS>MOLECULE
1xse_NDP_2_INTS_M
  121     0    12     0     0
SMALL
NO_CHARGES


@<TRIPOS>ATOM
      1 N           8.1420   30.2335   28.5775 N.am      2 SEC2        0.0000 
      2 N           9.3750   29.7750   28.5170 N.am     10 SEL2        0.0000 
      3 N           6.9090   30.6920   28.6380 N.am      6 SEP2        0.0000 
      4 CA         14.4980   27.8120   26.7365 C.3       4 GLC5        0.0000 
      5 CA         12.6000   26.9340   27.4820 C.3      12 GLL5        0.0000 
      6 CA         16.3960   28.6900   25.9910 C.3       8 GLP5        0.0000 
      7 CA          9.9490   25.4360   28.1315 C.3       4 GLC5        0.0000 
      8 CA         11.9820   25.8160   28.2980 C.3      12 GLL5        0.0000 
      9 CA          7.9160   25.0560   27.9650 C.3       8 GLP5        0.0000 
     10 N          11.9545   23.2500   26.7525 N.am      2 SEC2        0.0000 
     11 N          12.2740   24.5680   27.6590 N.am     10 SEL2        0.0000 
     12 N          11.6350   21.9320   25.8460 N.am      6 SEP2        0.0000 
     13 N          11.5555   23.4185   28.2130 N.am      2 SEC2        0.0000 
     14 N          10.8370   22.2690   28.7670 N.am      6 SEP2        0.0000 
     15 N          11.7705   23.4570   29.4940 N.am      2 SEC2        0.0000 
     16 N          12.7040   24.6450   30.2210 N.am     10 SEL2        0.0000 
     17 CA         15.6765   27.0375   28.0345 C.3       4 GLC5        0.0000 
     18 CA         14.1660   26.2830   29.1230 C.3      12 GLL5        0.0000 
     19 CA         17.1870   27.7920   26.9460 C.3       8 GLP5        0.0000 
     20 CA         19.1495   25.5915   33.0530 C.3       4 GLC5        0.0000 
     21 CA         17.7060   27.1830   32.3920 C.3      12 GLL5        0.0000 
     22 CA         20.5930   24.0000   33.7140 C.3       8 GLP5        0.0000 
     23 CA         19.5690   27.1170   31.2525 C.3       4 GLC5        0.0000 
     24 CA         21.4320   27.0510   30.1130 C.3       8 GLP5        0.0000 
     25 O          19.1020   26.9150   34.3140 O.2       1 ALC1        0.0000 
     26 O          18.0850   27.9490   33.4550 O.2       9 ALL1        0.0000 
     27 O          20.1190   25.8810   35.1730 O.2       5 ALP1        0.0000 
     28 N          19.8775   25.9300   32.0055 N.am      2 SEC2        0.0000 
     29 N          18.5270   26.2070   31.9150 N.am     10 SEL2        0.0000 
     30 N          21.2280   25.6530   32.0960 N.am      6 SEP2        0.0000 
     31 CA         17.1725   23.7030   30.0085 C.3       4 GLC5        0.0000 
     32 CA         18.1710   25.4520   30.8670 C.3      12 GLL5        0.0000 
     33 CA         16.1740   21.9540   29.1500 C.3       8 GLP5        0.0000 
     34 CA         17.5820   24.3965   32.5200 C.3       4 GLC5        0.0000 
     35 CA         16.9930   23.3410   34.1730 C.3       8 GLP5        0.0000 
     36 CA         19.3820   24.7260   32.2905 C.3       4 GLC5        0.0000 
     37 CA         19.6595   25.7210   29.9750 C.3       4 GLC5        0.0000 
     38 CA         21.1480   25.9900   29.0830 C.3       8 GLP5        0.0000 
     39 CA         16.6560   27.1680   28.7940 C.3       4 GLC5        0.0000 
     40 CA         16.1250   26.5440   30.6420 C.3      12 GLL5        0.0000 
     41 N           9.0250   28.5445   22.9285 N.am      2 SEC2        0.0000 
     42 N           9.5170   29.4040   23.8920 N.am     10 SEL2        0.0000 
     43 N           8.5330   27.6850   21.9650 N.am      6 SEP2        0.0000 
     44 N           7.8300   29.7370   23.6805 N.am      2 SEC2        0.0000 
     45 N           6.1430   30.0700   23.4690 N.am      6 SEP2        0.0000 
     46 N           9.3020   32.8775   25.2550 N.am      2 SEC2        0.0000 
     47 N           8.5370   31.6210   24.7850 N.am     10 SEL2        0.0000 
     48 N          10.0670   34.1340   25.7250 N.am      6 SEP2        0.0000 
     49 N           7.3400   30.8455   24.1270 N.am      2 SEC2        0.0000 
     50 N          10.5250   32.7965   24.9165 N.am      2 SEC2        0.0000 
     51 N          10.9830   31.4590   24.1080 N.am     10 SEL2        0.0000 
     52 CA         14.3960   32.6940   25.4320 C.3       4 GLC5        0.0000 
     53 CA         13.8110   32.5870   23.7840 C.3      12 GLL5        0.0000 
     54 CA         14.9810   32.8010   27.0800 C.3       8 GLP5        0.0000 
     55 N          15.9665   34.0155   23.5555 N.am      2 SEC2        0.0000 
     56 N          15.1780   32.7260   23.3420 N.am     10 SEL2        0.0000 
     57 N          16.7550   35.3050   23.7690 N.am      6 SEP2        0.0000 
     58 O          15.3105   31.3810   23.5655 O.2       1 ALC1        0.0000 
     59 O          15.1780   32.7260   23.3420 O.2       9 ALL1        0.0000 
     60 O          15.4430   30.0360   23.7890 O.2       5 ALP1        0.0000 
     61 CA         13.2805   33.2935   25.5875 C.3       4 GLC5        0.0000 
     62 CA         13.0740   33.9090   23.7730 C.3      12 GLL5        0.0000 
     63 CA         13.4870   32.6780   27.4020 C.3       8 GLP5        0.0000 
     64 CA         11.6825   34.1480   25.4230 C.3       4 GLC5        0.0000 
     65 CA         10.2910   34.3870   27.0730 C.3       8 GLP5        0.0000 
     66 N          15.3160   35.1805   23.9290 N.am      2 SEC2        0.0000 
     67 N          13.8770   35.0560   24.0890 N.am     10 SEL2        0.0000 
     68 O          13.3360   36.3245   24.4125 O.2       1 ALC1        0.0000 
     69 O          13.8770   35.0560   24.0890 O.2       9 ALL1        0.0000 
     70 O          12.7950   37.5930   24.7360 O.2       5 ALP1        0.0000 
     71 CA         10.9255   32.6740   21.6570 C.3       4 GLC5        0.0000 
     72 CA         12.5520   33.9480   22.3390 C.3      12 GLL5        0.0000 
     73 CA          9.2990   31.4000   20.9750 C.3       8 GLP5        0.0000 
     74 CA         13.6490   33.2415   20.9240 C.3       4 GLC5        0.0000 
     75 CA         14.7460   32.5350   19.5090 C.3       8 GLP5        0.0000 
     76 CA         12.0270   33.8575   20.3635 C.3       4 GLC5        0.0000 
     77 CA         11.5020   33.7670   18.3880 C.3       8 GLP5        0.0000 
     78 N           5.9385   36.1450   21.8090 N.am      2 SEC2        0.0000 
     79 N           6.7190   36.1090   22.8850 N.am     10 SEL2        0.0000 
     80 N           5.1580   36.1810   20.7330 N.am      6 SEP2        0.0000 
     81 NZ         13.9940   25.6045   33.0895 N.4       3 LYC4        0.0000 
     82 NZ         14.2920   24.5460   32.0610 N.4      11 LYL4        0.0000 
     83 NZ         14.7220   26.1810   34.7950 N.4       7 LYP4        0.0000 
     84 N          15.0110   23.2515   31.8125 N.am      2 SEC2        0.0000 
     85 N          14.2920   24.5460   32.0610 N.am     10 SEL2        0.0000 
     86 N          15.7300   21.9570   31.5640 N.am      6 SEP2        0.0000 
     87 N          14.8965   24.8995   33.1500 N.am      2 SEC2        0.0000 
     88 N          15.5010   25.2530   34.2390 N.am      6 SEP2        0.0000 
     89 N          13.9940   25.6045   33.0895 N.am      2 SEC2        0.0000 
     90 N          13.6960   26.6630   34.1180 N.am      6 SEP2        0.0000 
     91 NZ         12.8900   26.2085   33.2375 N.4       3 LYC4        0.0000 
     92 NZ         12.0840   25.7540   32.3570 N.4      11 LYL4        0.0000 
     93 N          12.8900   26.2085   33.2375 N.am      2 SEC2        0.0000 
     94 N          12.0840   25.7540   32.3570 N.am     10 SEL2        0.0000 
     95 N          12.9690   21.6910   32.4245 N.am      2 SEC2        0.0000 
     96 N          12.1660   23.1730   32.1290 N.am     10 SEL2        0.0000 
     97 N          13.7720   20.2090   32.7200 N.am      6 SEP2        0.0000 
     98 CA         14.0753   24.1250   29.0890 C.3       4 GLC5        0.0000 
     99 CA         14.6850   22.1610   28.8270 C.3       8 GLP5        0.0000 
    100 CA         16.8675   25.9575   33.4823 C.3       4 GLC5        0.0000 
    101 CA         16.4700   27.3910   31.7830 C.3      12 GLL5        0.0000 
    102 CA         16.6470   24.6280   34.8770 C.3       8 GLP5        0.0000 
    103 CA         18.0125   29.1370   31.5282 C.3       4 GLC5        0.0000 
    104 CA         18.9370   30.9870   30.9690 C.3       8 GLP5        0.0000 
    105 CA         10.9312   31.3085   22.0805 C.3       4 GLC5        0.0000 
    106 CA         12.0920   30.7400   23.5530 C.3      12 GLL5        0.0000 
    107 CA         14.0845   32.3377   21.4053 C.3       4 GLC5        0.0000 
    108 CA         13.0350   31.6940   22.8190 C.3      12 GLL5        0.0000 
    109 CA          9.4780   33.1992   21.7910 C.3       4 GLC5        0.0000 
    110 CA         10.1730   34.5310   22.6540 C.3      12 GLL5        0.0000 
    111 CA          8.1745   35.3428   20.7357 C.3       4 GLC5        0.0000 
    112 CA          9.1410   35.4660   22.5600 C.3      12 GLL5        0.0000 
    113 CA          7.0990   34.5950   19.2030 C.3       8 GLP5        0.0000 
    114 CA         12.3302   37.9305   21.7218 C.3       4 GLC5        0.0000 
    115 CA         10.6430   37.0530   21.5500 C.3      12 GLL5        0.0000 
    116 CA         13.5140   39.2880   21.8210 C.3       8 GLP5        0.0000 
    117 CA         10.8712   36.3462   19.8186 C.3       4 GLC5        0.0000 
    118 CA         11.6500   36.0930   21.6950 C.3      12 GLL5        0.0000 
    119 CA         10.9170   36.2040   17.9080 C.3       8 GLP5        0.0000 
    120 CA         13.9326   25.6900   27.1813 C.3       4 GLC5        0.0000 
    121 CA         14.9870   25.1480   25.7420 C.3       8 GLP5        0.0000 
@<TRIPOS>BOND
@<TRIPOS>SUBSTRUCTURE
     1 ALC1       25 GROUP        1 X    ALC  0     ROOT ALC X 1
     2 SEC2        1 GROUP        1 X    SEC  0     **** SEC X 2
     3 LYC4       81 GROUP        1 X    LYC  0     **** LYC X 4
     4 GLC5        4 GROUP        1 X    GLC  0     **** GLC X 6
     5 ALP1       27 GROUP        1 Y    ALP  0     ROOT ALP Y 8
     6 SEP2        3 GROUP        1 Y    SEP  0     **** SEP Y 9
     7 LYP4       83 GROUP        1 Y    LYP  0     **** LYP Y 11
     8 GLP5        6 GROUP        1 Y    GLP  0     **** GLP Y 13
     9 ALL1       26 GROUP        1 Z    ALL  0     ROOT ALL Z 15
    10 SEL2        2 GROUP        1 Z    SEL  0     **** SEL Z 16
    11 LYL4       82 GROUP        1 Z    LYL  0     **** LYL Z 18
    12 GLL5        5 GROUP        1 Z    GLL  0     **** GLL Z 20
@<TRIPOS>SET

