#    Name: 1xse_NDP_2_ligand
#    Modification time : Tue Mar 25 10:36:28 2014

@<TRIPOS>MOLECULE
1xse_NDP_2_ligand
   74    78     1     0     0
SMALL
NO_CHARGES


@<TRIPOS>ATOM
      1 PA          9.4550   29.2100   27.1180 P.3       1 NDP2300     0.0000 
      2 O1A         9.3750   29.7750   28.5170 O.co2     1 NDP2300     0.0000 
      3 O2A         8.1980   28.7210   26.4410 O.co2     1 NDP2300     0.0000 
      4 O5B        10.4930   27.9730   27.0830 O.3       1 NDP2300     0.0000 
      5 C5B        11.8070   28.2140   27.5640 C.3       1 NDP2300     0.0000 
      6 C4B        12.6000   26.9340   27.4820 C.3       1 NDP2300     0.0000 
      7 O4B        13.9390   27.1300   27.9970 O.3       1 NDP2300     0.0000 
      8 C3B        11.9820   25.8160   28.2980 C.3       1 NDP2300     0.0000 
      9 O3B        12.2740   24.5680   27.6590 O.3       1 NDP2300     0.0000 
     10 C2B        12.7650   25.8950   29.5790 C.3       1 NDP2300     0.0000 
     11 O2B        12.7040   24.6450   30.2210 O.3       1 NDP2300     0.0000 
     12 C1B        14.1660   26.2830   29.1230 C.3       1 NDP2300     0.0000 
     13 N9A        14.9120   26.9350   30.2350 N.pl3     1 NDP2300     0.0000 
     14 C8A        14.4950   27.9360   31.0290 C.2       1 NDP2300     0.0000 
     15 N7A        15.4280   28.2210   31.9670 N.2       1 NDP2300     0.0000 
     16 C5A        16.4700   27.3910   31.7830 C.ar      1 NDP2300     0.0000 
     17 C6A        17.7060   27.1830   32.3920 C.ar      1 NDP2300     0.0000 
     18 N6A        18.0850   27.9490   33.4550 N.pl3     1 NDP2300     0.0000 
     19 N1A        18.5270   26.2070   31.9150 N.ar      1 NDP2300     0.0000 
     20 C2A        18.1710   25.4520   30.8670 C.ar      1 NDP2300     0.0000 
     21 N3A        17.0020   25.5900   30.2380 N.ar      1 NDP2300     0.0000 
     22 C4A        16.1250   26.5440   30.6420 C.ar      1 NDP2300     0.0000 
     23 O3         10.2070   30.2890   26.1870 O.3       1 NDP2300     0.0000 
     24 PN          9.7090   30.6760   24.7050 P.3       1 NDP2300     0.0000 
     25 O1N         9.5170   29.4040   23.8920 O.co2     1 NDP2300     0.0000 
     26 O2N         8.5370   31.6210   24.7850 O.co2     1 NDP2300     0.0000 
     27 O5D        10.9830   31.4590   24.1080 O.3       1 NDP2300     0.0000 
     28 C5D        12.0920   30.7400   23.5530 C.3       1 NDP2300     0.0000 
     29 C4D        13.0350   31.6940   22.8190 C.3       1 NDP2300     0.0000 
     30 O4D        12.2890   32.5760   21.9790 O.3       1 NDP2300     0.0000 
     31 C3D        13.8110   32.5870   23.7840 C.3       1 NDP2300     0.0000 
     32 O3D        15.1780   32.7260   23.3420 O.3       1 NDP2300     0.0000 
     33 C2D        13.0740   33.9090   23.7730 C.3       1 NDP2300     0.0000 
     34 O2D        13.8770   35.0560   24.0890 O.3       1 NDP2300     0.0000 
     35 C1D        12.5520   33.9480   22.3390 C.3       1 NDP2300     0.0000 
     36 N1N        11.4030   34.8730   22.2300 N.pl3     1 NDP2300     0.0000 
     37 C2N        10.1730   34.5310   22.6540 C.2       1 NDP2300     0.0000 
     38 C3N         9.1410   35.4660   22.5600 C.2       1 NDP2300     0.0000 
     39 C7N         7.7540   35.0990   22.9350 C.2       1 NDP2300     0.0000 
     40 O7N         6.7190   36.1090   22.8850 O.2       1 NDP2300     0.0000 
     41 N7N         7.4930   33.8090   23.5920 N.am      1 NDP2300     0.0000 
     42 C4N         9.3590   36.7150   21.9770 C.3       1 NDP2300     0.0000 
     43 C5N        10.6430   37.0530   21.5500 C.2       1 NDP2300     0.0000 
     44 C6N        11.6500   36.0930   21.6950 C.2       1 NDP2300     0.0000 
     45 P2B        12.7930   24.5270   31.8180 P.3       1 NDP2300     0.0000 
     46 O1X        14.2920   24.5460   32.0610 O.co2     1 NDP2300     0.0000 
     47 O2X        12.0840   25.7540   32.3570 O.co2     1 NDP2300     0.0000 
     48 O3X        12.1660   23.1730   32.1290 O.co2     1 NDP2300     0.0000 
     49 H          11.8027   28.5473   28.6078 H         1 NDP2300     0.0000 
     50 H          12.3240   28.9753   26.9692 H         1 NDP2300     0.0000 
     51 H          12.6504   26.6084   26.4514 H         1 NDP2300     0.0000 
     52 H          10.9886   26.0042   28.4663 H         1 NDP2300     0.0000 
     53 H          12.3643   26.6973   30.1562 H         1 NDP2300     0.0000 
     54 H          14.6581   25.3714   28.8216 H         1 NDP2300     0.0000 
     55 H          13.6351   28.3989   30.9447 H         1 NDP2300     0.0000 
     56 H          18.6835   27.5081   34.1239 H         1 NDP2300     0.0000 
     57 H          17.7310   28.8841   33.4720 H         1 NDP2300     0.0000 
     58 H          18.8528   24.7091   30.5221 H         1 NDP2300     0.0000 
     59 H          11.7607   29.9782   22.8344 H         1 NDP2300     0.0000 
     60 H          12.6731   30.2291   24.3326 H         1 NDP2300     0.0000 
     61 H          13.7405   31.1247   22.2462 H         1 NDP2300     0.0000 
     62 H          13.7355   32.1596   24.7585 H         1 NDP2300     0.0000 
     63 H          12.2093   33.8042   24.4098 H         1 NDP2300     0.0000 
     64 H          13.3880   34.3291   21.7323 H         1 NDP2300     0.0000 
     65 H           9.9725   33.6013   23.0448 H         1 NDP2300     0.0000 
     66 H           8.2965   33.2527   23.8040 H         1 NDP2300     0.0000 
     67 H           6.5334   33.5936   23.7730 H         1 NDP2300     0.0000 
     68 H           8.9745   37.5348   22.6937 H         1 NDP2300     0.0000 
     69 H           8.6236   36.8508   21.0971 H         1 NDP2300     0.0000 
     70 H          10.8409   37.9590   21.1497 H         1 NDP2300     0.0000 
     71 H          12.6143   36.3422   21.3758 H         1 NDP2300     0.0000 
     72 H          13.2018   24.6716   27.3007 H         1 NDP2300     0.0000 
     73 H          15.5555   31.8005   23.3738 H         1 NDP2300     0.0000 
     74 H          13.2211   35.7868   24.2779 H         1 NDP2300     0.0000 
@<TRIPOS>BOND
     1    2    1 ar   
     2    3    1 ar   
     3    4    1 1    
     4   23    1 1    
     5    5    4 1    
     6    6    5 1    
     7   49    5 1    
     8   50    5 1    
     9    7    6 1    
    10    8    6 1    
    11   51    6 1    
    12   12    7 1    
    13    9    8 1    
    14   10    8 1    
    15   52    8 1    
    16   72    9 1    
    17   11   10 1    
    18   12   10 1    
    19   53   10 1    
    20   45   11 1    
    21   13   12 1    
    22   54   12 1    
    23   14   13 1    
    24   22   13 1    
    25   15   14 2    
    26   55   14 1    
    27   16   15 1    
    28   17   16 ar   
    29   22   16 ar   
    30   18   17 1    
    31   19   17 ar   
    32   56   18 1    
    33   57   18 1    
    34   20   19 ar   
    35   21   20 ar   
    36   58   20 1    
    37   22   21 ar   
    38   24   23 1    
    39   25   24 ar   
    40   26   24 ar   
    41   27   24 1    
    42   28   27 1    
    43   29   28 1    
    44   59   28 1    
    45   60   28 1    
    46   30   29 1    
    47   31   29 1    
    48   61   29 1    
    49   35   30 1    
    50   32   31 1    
    51   33   31 1    
    52   62   31 1    
    53   73   32 1    
    54   34   33 1    
    55   35   33 1    
    56   63   33 1    
    57   74   34 1    
    58   36   35 1    
    59   64   35 1    
    60   37   36 1    
    61   44   36 1    
    62   38   37 2    
    63   65   37 1    
    64   39   38 1    
    65   42   38 1    
    66   40   39 2    
    67   41   39 am   
    68   66   41 1    
    69   67   41 1    
    70   43   42 1    
    71   68   42 1    
    72   69   42 1    
    73   44   43 2    
    74   70   43 1    
    75   71   44 1    
    76   46   45 ar   
    77   47   45 ar   
    78   48   45 ar   
@<TRIPOS>SUBSTRUCTURE
     1 NDP2300     1 GROUP   
@<TRIPOS>SET

