#    Name: 4je7_BB2_2_INTS_M
#    Modification time : Tue Mar 25 05:49:58 2014

@<TRIPOS>MOLECULE
4je7_BB2_2_INTS_M
   71     0    12     0     0
SMALL
NO_CHARGES


@<TRIPOS>ATOM
      1 CA         27.3505  -14.0210  -37.5205 C.3       4 GLC5        0.0000 
      2 CA         27.3650  -15.9520  -37.9790 C.3      12 GLL5        0.0000 
      3 CA         27.3360  -12.0900  -37.0620 C.3       8 GLP5        0.0000 
      4 Zn         24.1160  -15.9495  -37.8485 Zn        3 ZIC7        0.0000 
      5 Zn         25.0620  -15.3580  -37.7590 Zn       11 ZIL7        0.0000 
      6 Zn         23.1700  -16.5410  -37.9380 Zn        7 ZIP7        0.0000 
      7 N          24.0980  -14.5110  -38.7015 N.am      2 SEC2        0.0000 
      8 N          25.0620  -15.3580  -37.7590 N.am     10 SEL2        0.0000 
      9 N          23.1340  -13.6640  -39.6440 N.am      6 SEP2        0.0000 
     10 N          25.0240  -14.4010  -36.7525 N.am      2 SEC2        0.0000 
     11 N          24.9860  -13.4440  -35.7460 N.am      6 SEP2        0.0000 
     12 O          26.7905  -16.2405  -40.4725 O.2       1 ALC1        0.0000 
     13 O          25.6580  -16.6470  -39.5020 O.2       9 ALL1        0.0000 
     14 O          27.9230  -15.8340  -41.4430 O.2       5 ALP1        0.0000 
     15 O          26.0250  -17.5340  -40.2755 O.2       1 ALC1        0.0000 
     16 O          26.3920  -18.4210  -41.0490 O.2       5 ALP1        0.0000 
     17 Zn         23.7745  -16.6380  -38.9240 Zn        3 ZIC7        0.0000 
     18 Zn         24.3790  -16.7350  -39.9100 Zn       11 ZIL7        0.0000 
     19 N          23.7565  -15.1995  -39.7770 N.am      2 SEC2        0.0000 
     20 N          24.3790  -16.7350  -39.9100 N.am     10 SEL2        0.0000 
     21 O          23.8315  -15.7645  -40.7430 O.2       1 ALC1        0.0000 
     22 O          24.3790  -16.7350  -39.9100 O.2       9 ALL1        0.0000 
     23 O          23.2840  -14.7940  -41.5760 O.2       5 ALP1        0.0000 
     24 N          30.9590  -16.5045  -38.2065 N.am      2 SEC2        0.0000 
     25 N          30.0170  -16.3550  -36.9690 N.am     10 SEL2        0.0000 
     26 N          31.9010  -16.6540  -39.4440 N.am      6 SEP2        0.0000 
     27 CA         29.6270  -18.9280  -38.0185 C.3       4 GLC5        0.0000 
     28 CA         27.7360  -18.4440  -37.6710 C.3      12 GLL5        0.0000 
     29 CA         31.5180  -19.4120  -38.3660 C.3       8 GLP5        0.0000 
     30 CA         25.8535  -18.9240  -38.0460 C.3       4 GLC5        0.0000 
     31 CA         23.9710  -19.4040  -38.4210 C.3       8 GLP5        0.0000 
     32 CA         29.6990  -20.1005  -37.6940 C.3       4 GLC5        0.0000 
     33 CA         27.8800  -20.7890  -37.0220 C.3      12 GLL5        0.0000 
     34 CA         27.4390  -23.7115  -35.8135 C.3       4 GLC5        0.0000 
     35 CA         27.4230  -21.8150  -36.0080 C.3      12 GLL5        0.0000 
     36 CA         27.4550  -25.6080  -35.6190 C.3       8 GLP5        0.0000 
     37 CA         25.9220  -21.8930  -37.2510 C.3       4 GLC5        0.0000 
     38 CA         24.4210  -21.9710  -38.4940 C.3       8 GLP5        0.0000 
     39 CA         29.9670  -22.8390  -34.2330 C.3       4 GLC5        0.0000 
     40 CA         28.6870  -22.3310  -35.3370 C.3      12 GLL5        0.0000 
     41 CA         31.2470  -23.3470  -33.1290 C.3       8 GLP5        0.0000 
     42 CA         28.3250  -23.9265  -34.7570 C.3       4 GLC5        0.0000 
     43 CA         27.9630  -25.5220  -34.1770 C.3       8 GLP5        0.0000 
     44 CA         29.5220  -22.7350  -37.2145 C.3       4 GLC5        0.0000 
     45 CA         30.3570  -23.1390  -39.0920 C.3       8 GLP5        0.0000 
     46 O          27.4465  -16.9555  -34.4600 O.2       1 ALC1        0.0000 
     47 O          28.9500  -16.3540  -34.9880 O.2       9 ALL1        0.0000 
     48 O          25.9430  -17.5570  -33.9320 O.2       5 ALP1        0.0000 
     49 CA         27.2760  -15.7875  -32.2440 C.3       4 GLC5        0.0000 
     50 CA         28.6310  -14.4180  -32.9300 C.3      12 GLL5        0.0000 
     51 CA         25.9210  -17.1570  -31.5580 C.3       8 GLP5        0.0000 
     52 CA         28.0610  -16.6175  -31.7580 C.3       4 GLC5        0.0000 
     53 CA         30.2010  -16.0780  -31.9580 C.3      12 GLL5        0.0000 
     54 CA         36.7945  -16.9465  -36.4510 C.3       4 GLC5        0.0000 
     55 CA         35.0510  -16.4640  -35.5500 C.3      12 GLL5        0.0000 
     56 CA         38.5380  -17.4290  -37.3520 C.3       8 GLP5        0.0000 
     57 CA         29.0182  -15.3242  -38.0542 C.3       4 GLC5        0.0000 
     58 CA         27.6760  -17.0650  -36.9820 C.3      12 GLL5        0.0000 
     59 CA         30.5160  -14.1400  -38.6280 C.3       8 GLP5        0.0000 
     60 CA         25.8630  -20.3850  -37.3435 C.3       4 GLC5        0.0000 
     61 CA         27.3720  -19.4650  -36.6100 C.3      12 GLL5        0.0000 
     62 CA         24.1000  -20.6430  -37.8710 C.3       8 GLP5        0.0000 
     63 CA         27.8417  -22.4915  -38.1305 C.3       4 GLC5        0.0000 
     64 CA         28.0320  -23.6810  -39.7460 C.3       8 GLP5        0.0000 
     65 CA         26.9585  -22.2780  -34.1843 C.3       4 GLC5        0.0000 
     66 CA         25.8620  -22.4830  -32.6960 C.3       8 GLP5        0.0000 
     67 CA         32.9297  -14.6715  -37.0877 C.3       4 GLC5        0.0000 
     68 CA         34.5140  -15.0590  -35.8000 C.3      12 GLL5        0.0000 
     69 CA         32.0200  -14.3150  -38.7480 C.3       8 GLP5        0.0000 
     70 CA         34.2596  -17.2542  -37.0027 C.3       4 GLC5        0.0000 
     71 CA         34.0290  -18.5380  -38.4660 C.3       8 GLP5        0.0000 
@<TRIPOS>BOND
@<TRIPOS>SUBSTRUCTURE
     1 ALC1       12 GROUP        1 X    ALC  0     ROOT ALC X 1
     2 SEC2        7 GROUP        1 X    SEC  0     **** SEC X 2
     3 ZIC7        4 GROUP        1 X    ZIC  0     **** ZIC X 5
     4 GLC5        1 GROUP        1 X    GLC  0     **** GLC X 6
     5 ALP1       14 GROUP        1 Y    ALP  0     ROOT ALP Y 8
     6 SEP2        9 GROUP        1 Y    SEP  0     **** SEP Y 9
     7 ZIP7        6 GROUP        1 Y    ZIP  0     **** ZIP Y 12
     8 GLP5        3 GROUP        1 Y    GLP  0     **** GLP Y 13
     9 ALL1       13 GROUP        1 Z    ALL  0     ROOT ALL Z 15
    10 SEL2        8 GROUP        1 Z    SEL  0     **** SEL Z 16
    11 ZIL7        5 GROUP        1 Z    ZIL  0     **** ZIL Z 19
    12 GLL5        2 GROUP        1 Z    GLL  0     **** GLL Z 20
@<TRIPOS>SET

