#    Name: 4je7_BB2_2_ligand
#    Modification time : Tue Mar 25 05:49:58 2014

@<TRIPOS>MOLECULE
4je7_BB2_2_ligand
   62    62     1     0     0
SMALL
NO_CHARGES


@<TRIPOS>ATOM
      1 C5         27.3650  -15.9520  -37.9790 C.3       1 BB2201      0.0000 
      2 C3         25.9180  -15.9550  -38.4020 C.2       1 BB2201      0.0000 
      3 O4         25.0620  -15.3580  -37.7590 O.2       1 BB2201      0.0000 
      4 N1         25.6580  -16.6470  -39.5020 N.am      1 BB2201      0.0000 
      5 O2         24.3790  -16.7350  -39.9100 O.3       1 BB2201      0.0000 
      6 C6         27.6760  -17.0650  -36.9820 C.3       1 BB2201      0.0000 
      7 C12        28.9930  -16.5940  -36.3050 C.2       1 BB2201      0.0000 
      8 O13        30.0170  -16.3550  -36.9690 O.2       1 BB2201      0.0000 
      9 C7         27.7360  -18.4440  -37.6710 C.3       1 BB2201      0.0000 
     10 C8         27.3720  -19.4650  -36.6100 C.3       1 BB2201      0.0000 
     11 C9         27.8800  -20.7890  -37.0220 C.3       1 BB2201      0.0000 
     12 C10        27.4230  -21.8150  -36.0080 C.3       1 BB2201      0.0000 
     13 C11        28.6870  -22.3310  -35.3370 C.3       1 BB2201      0.0000 
     14 N14        28.9500  -16.3540  -34.9880 N.am      1 BB2201      0.0000 
     15 C15        30.1990  -15.7860  -34.4260 C.3       1 BB2201      0.0000 
     16 C16        30.0030  -15.0850  -33.0690 C.3       1 BB2201      0.0000 
     17 C18        28.6310  -14.4180  -32.9300 C.3       1 BB2201      0.0000 
     18 C17        30.2010  -16.0780  -31.9580 C.3       1 BB2201      0.0000 
     19 C19        31.3840  -16.8060  -34.5390 C.2       1 BB2201      0.0000 
     20 O20        31.0850  -17.9960  -34.3860 O.2       1 BB2201      0.0000 
     21 N21        32.6920  -16.4010  -34.8490 N.am      1 BB2201      0.0000 
     22 C22        33.8820  -17.3000  -35.0080 C.3       1 BB2201      0.0000 
     23 C23        33.1650  -14.9970  -35.0550 C.3       1 BB2201      0.0000 
     24 C24        34.5140  -15.0590  -35.8000 C.3       1 BB2201      0.0000 
     25 C25        35.0510  -16.4640  -35.5500 C.3       1 BB2201      0.0000 
     26 C26        34.2990  -17.9850  -33.6960 C.3       1 BB2201      0.0000 
     27 O27        34.6890  -17.0140  -32.7040 O.3       1 BB2201      0.0000 
     28 H          27.6119  -14.9866  -37.5203 H         1 BB2201      0.0000 
     29 H          28.0059  -16.0770  -38.8604 H         1 BB2201      0.0000 
     30 H          26.4112  -17.1103  -40.0390 H         1 BB2201      0.0000 
     31 H          26.8998  -17.0535  -36.2326 H         1 BB2201      0.0000 
     32 H          28.7312  -18.6167  -38.0228 H         1 BB2201      0.0000 
     33 H          27.0221  -18.4691  -38.4670 H         1 BB2201      0.0000 
     34 H          26.2895  -19.4891  -36.5010 H         1 BB2201      0.0000 
     35 H          27.8170  -19.1636  -35.6638 H         1 BB2201      0.0000 
     36 H          28.9658  -20.7856  -37.0576 H         1 BB2201      0.0000 
     37 H          27.4898  -21.0589  -37.9994 H         1 BB2201      0.0000 
     38 H          26.9243  -22.6224  -36.5046 H         1 BB2201      0.0000 
     39 H          26.7921  -21.3508  -35.2775 H         1 BB2201      0.0000 
     40 H          28.1903  -16.5155  -34.3823 H         1 BB2201      0.0000 
     41 H          30.4978  -14.9390  -35.1596 H         1 BB2201      0.0000 
     42 H          30.7689  -14.3138  -32.9757 H         1 BB2201      0.0000 
     43 H          33.6614  -18.0643  -35.7430 H         1 BB2201      0.0000 
     44 H          33.3163  -14.5056  -34.1073 H         1 BB2201      0.0000 
     45 H          32.4623  -14.4455  -35.6587 H         1 BB2201      0.0000 
     46 H          35.1782  -14.3359  -35.3865 H         1 BB2201      0.0000 
     47 H          34.3479  -14.9122  -36.8420 H         1 BB2201      0.0000 
     48 H          35.3957  -16.8904  -36.4713 H         1 BB2201      0.0000 
     49 H          35.8327  -16.4291  -34.8171 H         1 BB2201      0.0000 
     50 H          35.1225  -18.6750  -33.9283 H         1 BB2201      0.0000 
     51 H          33.4487  -18.5910  -33.3525 H         1 BB2201      0.0000 
     52 H          29.3123  -22.7501  -35.9953 H         1 BB2201      0.0000 
     53 H          29.1907  -21.5979  -34.8800 H         1 BB2201      0.0000 
     54 H          28.4838  -23.0230  -34.6443 H         1 BB2201      0.0000 
     55 H          28.5247  -13.9686  -32.0430 H         1 BB2201      0.0000 
     56 H          28.4844  -13.7205  -33.6314 H         1 BB2201      0.0000 
     57 H          27.8861  -15.0798  -33.0144 H         1 BB2201      0.0000 
     58 H          31.1174  -16.4779  -31.9763 H         1 BB2201      0.0000 
     59 H          30.0826  -15.6574  -31.0585 H         1 BB2201      0.0000 
     60 H          29.5498  -16.8347  -32.0158 H         1 BB2201      0.0000 
     61 H          24.2300  -15.9209  -40.4714 H         1 BB2201      0.0000 
     62 H          35.6754  -17.1372  -32.5952 H         1 BB2201      0.0000 
@<TRIPOS>BOND
     1    2    1 1    
     2    6    1 1    
     3   28    1 1    
     4   29    1 1    
     5    3    2 2    
     6    4    2 am   
     7    5    4 1    
     8   30    4 1    
     9   61    5 1    
    10    7    6 1    
    11    9    6 1    
    12   31    6 1    
    13    8    7 2    
    14   14    7 am   
    15   10    9 1    
    16   32    9 1    
    17   33    9 1    
    18   11   10 1    
    19   34   10 1    
    20   35   10 1    
    21   12   11 1    
    22   36   11 1    
    23   37   11 1    
    24   13   12 1    
    25   38   12 1    
    26   39   12 1    
    27   52   13 1    
    28   53   13 1    
    29   54   13 1    
    30   15   14 1    
    31   40   14 1    
    32   16   15 1    
    33   19   15 1    
    34   41   15 1    
    35   17   16 1    
    36   18   16 1    
    37   42   16 1    
    38   55   17 1    
    39   56   17 1    
    40   57   17 1    
    41   58   18 1    
    42   59   18 1    
    43   60   18 1    
    44   20   19 2    
    45   21   19 am   
    46   22   21 1    
    47   23   21 1    
    48   25   22 1    
    49   26   22 1    
    50   43   22 1    
    51   24   23 1    
    52   44   23 1    
    53   45   23 1    
    54   25   24 1    
    55   46   24 1    
    56   47   24 1    
    57   48   25 1    
    58   49   25 1    
    59   27   26 1    
    60   50   26 1    
    61   51   26 1    
    62   62   27 1    
@<TRIPOS>SUBSTRUCTURE
     1 BB2201      1 GROUP   
@<TRIPOS>SET

