#    Name: 3gkj_HC3_1_INTS_M
#    Modification time : Tue Mar 25 12:37:06 2014

@<TRIPOS>MOLECULE
3gkj_HC3_1_INTS_M
   90     0     9     0     0
SMALL
NO_CHARGES


@<TRIPOS>ATOM
      1 CA        -38.4290  -27.5960    1.5465 C.3       3 GLC5        0.0000 
      2 CA        -36.6500  -26.5960    2.0760 C.3       9 GLL5        0.0000 
      3 CA        -40.2080  -28.5960    1.0170 C.3       6 GLP5        0.0000 
      4 CA        -37.2570  -25.3195    0.6980 C.3       3 GLC5        0.0000 
      5 CA        -37.8640  -24.0430   -0.6800 C.3       6 GLP5        0.0000 
      6 CA        -36.2320  -24.8350    2.8290 C.3       3 GLC5        0.0000 
      7 CA        -35.8140  -23.0740    3.5820 C.3       6 GLP5        0.0000 
      8 CA        -36.9950  -25.5465    3.8930 C.3       3 GLC5        0.0000 
      9 CA        -37.3400  -24.4970    5.7100 C.3       6 GLP5        0.0000 
     10 CA        -40.6050  -28.4685    5.8275 C.3       3 GLC5        0.0000 
     11 CA        -38.7120  -28.1090    5.6640 C.3       9 GLL5        0.0000 
     12 CA        -42.4980  -28.8280    5.9910 C.3       6 GLP5        0.0000 
     13 CA        -38.4485  -26.3945    6.2985 C.3       3 GLC5        0.0000 
     14 CA        -38.1850  -24.6800    6.9330 C.3       6 GLP5        0.0000 
     15 CA        -39.5615  -31.5555    4.7745 C.3       3 GLC5        0.0000 
     16 CA        -38.4510  -30.5910    5.9550 C.3       9 GLL5        0.0000 
     17 CA        -40.6720  -32.5200    3.5940 C.3       6 GLP5        0.0000 
     18 CA        -39.5530  -32.1985    5.7495 C.3       3 GLC5        0.0000 
     19 CA        -39.2250  -30.7090    7.2940 C.3       9 GLL5        0.0000 
     20 CA        -39.8810  -33.6880    4.2050 C.3       6 GLP5        0.0000 
     21 N         -39.5365  -29.9060   10.9245 N.am      2 SEC2        0.0000 
     22 N         -38.9150  -30.9090    9.6560 N.am      8 SEL2        0.0000 
     23 N         -40.1580  -28.9030   12.1930 N.am      5 SEP2        0.0000 
     24 N         -39.0365  -31.6605   10.9485 N.am      2 SEC2        0.0000 
     25 N         -39.1580  -32.4120   12.2410 N.am      5 SEP2        0.0000 
     26 O         -38.4285  -30.0455   10.7645 O.2       1 ALC1        0.0000 
     27 O         -38.9150  -30.9090    9.6560 O.2       7 ALL1        0.0000 
     28 O         -37.9420  -29.1820   11.8730 O.2       4 ALP1        0.0000 
     29 CA        -35.9670  -29.5195    9.9800 C.3       3 GLC5        0.0000 
     30 CA        -37.4490  -29.3900    8.4310 C.3       9 GLL5        0.0000 
     31 CA        -34.4850  -29.6490   11.5290 C.3       6 GLP5        0.0000 
     32 CA        -33.7345  -29.7715    4.4260 C.3       3 GLC5        0.0000 
     33 CA        -34.7820  -28.3340    5.7880 C.3       9 GLL5        0.0000 
     34 CA        -32.6870  -31.2090    3.0640 C.3       6 GLP5        0.0000 
     35 CA        -36.5225  -26.3235    5.1455 C.3       3 GLC5        0.0000 
     36 CA        -35.7050  -28.1500    4.5810 C.3       9 GLL5        0.0000 
     37 CA        -34.0935  -24.9295    3.4525 C.3       3 GLC5        0.0000 
     38 CA        -33.8460  -26.9500    3.1220 C.3       9 GLL5        0.0000 
     39 CA        -34.3410  -22.9090    3.7830 C.3       6 GLP5        0.0000 
     40 CA        -31.8730  -26.4365    0.6380 C.3       3 GLC5        0.0000 
     41 CA        -33.6590  -26.8290    1.5970 C.3       9 GLL5        0.0000 
     42 CA        -30.0870  -26.0440   -0.3210 C.3       6 GLP5        0.0000 
     43 CA        -38.2425  -28.2830   -0.0245 C.3       3 GLC5        0.0000 
     44 CA        -36.2770  -27.9700   -1.0660 C.3       9 GLL5        0.0000 
     45 CA        -35.9640  -28.9210   -2.5330 C.3       3 GLC5        0.0000 
     46 CA        -35.6510  -29.8720   -4.0000 C.3       6 GLP5        0.0000 
     47 CA        -32.0955  -27.5975   -1.8435 C.3       3 GLC5        0.0000 
     48 CA        -33.9310  -27.2330   -1.3740 C.3       9 GLL5        0.0000 
     49 CA        -30.2600  -27.9620   -2.3130 C.3       6 GLP5        0.0000 
     50 CA        -33.7195  -26.3640   -4.7895 C.3       3 GLC5        0.0000 
     51 CA        -34.0760  -26.3330   -2.6080 C.3       9 GLL5        0.0000 
     52 CA        -33.3630  -26.3950   -6.9710 C.3       6 GLP5        0.0000 
     53 CA        -33.5730  -21.0980   -1.9205 C.3       3 GLC5        0.0000 
     54 CA        -34.2780  -22.5050   -3.1110 C.3       9 GLL5        0.0000 
     55 CA        -32.8680  -19.6910   -0.7300 C.3       6 GLP5        0.0000 
     56 CA        -31.4830  -25.1930   -3.0810 C.3       3 GLC5        0.0000 
     57 CA        -32.8400  -24.1620   -4.3400 C.3       9 GLL5        0.0000 
     58 CA        -30.1260  -26.2240   -1.8220 C.3       6 GLP5        0.0000 
     59 CA        -38.6552  -28.9058    1.8122 C.3       3 GLC5        0.0000 
     60 CA        -37.5500  -29.2760    3.2340 C.3       9 GLL5        0.0000 
     61 CA        -37.3221  -31.2379    3.2439 C.3       3 GLC5        0.0000 
     62 CA        -36.6550  -29.1550    1.9810 C.3       9 GLL5        0.0000 
     63 CA        -37.7130  -33.2230    2.9090 C.3       6 GLP5        0.0000 
     64 CA        -40.6680  -29.7390    6.3078 C.3       3 GLC5        0.0000 
     65 CA        -38.2990  -32.4892    8.2933 C.3       3 GLC5        0.0000 
     66 CA        -37.8880  -34.2610    8.7240 C.3       6 GLP5        0.0000 
     67 CA        -33.6527  -29.4400    6.9153 C.3       3 GLC5        0.0000 
     68 CA        -35.5890  -28.6280    7.0270 C.3       9 GLL5        0.0000 
     69 CA        -32.1200  -30.3990    7.4230 C.3       6 GLP5        0.0000 
     70 CA        -36.1084  -27.6856    8.7660 C.3       3 GLC5        0.0000 
     71 CA        -35.8440  -26.4390   10.1480 C.3       6 GLP5        0.0000 
     72 CA        -33.5472  -27.3820    6.8617 C.3       3 GLC5        0.0000 
     73 CA        -31.9090  -26.2830    7.3160 C.3       6 GLP5        0.0000 
     74 CA        -33.3669  -28.7841    2.6515 C.3       3 GLC5        0.0000 
     75 CA        -32.1290  -30.1150    2.4160 C.3       6 GLP5        0.0000 
     76 CA        -31.8322  -27.0993    3.1612 C.3       3 GLC5        0.0000 
     77 CA        -29.9120  -27.3090    3.9630 C.3       6 GLP5        0.0000 
     78 CA        -33.1500  -28.6812    1.1605 C.3       3 GLC5        0.0000 
     79 CA        -32.1010  -30.0890    1.0520 C.3       6 GLP5        0.0000 
     80 CA        -33.3173  -28.6450    0.0742 C.3       3 GLC5        0.0000 
     81 CA        -35.1360  -27.1690   -0.4330 C.3       9 GLL5        0.0000 
     82 CA        -36.7852  -25.8062   -0.7147 C.3       3 GLC5        0.0000 
     83 CA        -34.8272  -28.3275   -2.9955 C.3       3 GLC5        0.0000 
     84 CA        -32.0965  -25.9062   -2.1288 C.3       3 GLC5        0.0000 
     85 CA        -33.4162  -25.2293   -5.4488 C.3       3 GLC5        0.0000 
     86 CA        -34.0990  -23.9650   -3.5130 C.3       9 GLL5        0.0000 
     87 CA        -35.7026  -23.0569   -1.8088 C.3       3 GLC5        0.0000 
     88 CA        -37.2270  -22.6590   -0.6180 C.3       6 GLP5        0.0000 
     89 CA        -31.9706  -22.5887   -3.7465 C.3       3 GLC5        0.0000 
     90 CA        -30.4270  -21.4790   -3.6670 C.3       6 GLP5        0.0000 
@<TRIPOS>BOND
@<TRIPOS>SUBSTRUCTURE
     1 ALC1       26 GROUP        1 X    ALC  0     ROOT ALC X 1
     2 SEC2       21 GROUP        1 X    SEC  0     **** SEC X 2
     3 GLC5        1 GROUP        1 X    GLC  0     **** GLC X 6
     4 ALP1       28 GROUP        1 Y    ALP  0     ROOT ALP Y 8
     5 SEP2       23 GROUP        1 Y    SEP  0     **** SEP Y 9
     6 GLP5        3 GROUP        1 Y    GLP  0     **** GLP Y 13
     7 ALL1       27 GROUP        1 Z    ALL  0     ROOT ALL Z 15
     8 SEL2       22 GROUP        1 Z    SEL  0     **** SEL Z 16
     9 GLL5        2 GROUP        1 Z    GLL  0     **** GLL Z 20
@<TRIPOS>SET

