#    Name: 3gkj_HC3_1_ligand
#    Modification time : Tue Mar 25 12:37:06 2014

@<TRIPOS>MOLECULE
3gkj_HC3_1_ligand
   75    78     1     0     0
SMALL
NO_CHARGES


@<TRIPOS>ATOM
      1 C18       -36.6500  -26.5960    2.0760 C.3       1 HC3253      0.0000 
      2 C13       -35.8080  -27.8690    2.0390 C.3       1 HC3253      0.0000 
      3 C12       -36.6550  -29.1550    1.9810 C.3       1 HC3253      0.0000 
      4 C11       -37.5500  -29.2760    3.2340 C.3       1 HC3253      0.0000 
      5 C9        -36.7600  -29.2900    4.5500 C.3       1 HC3253      0.0000 
      6 C10       -37.6960  -29.2530    5.7760 C.3       1 HC3253      0.0000 
      7 C19       -38.7120  -28.1090    5.6640 C.3       1 HC3253      0.0000 
      8 C1        -38.4510  -30.5910    5.9550 C.3       1 HC3253      0.0000 
      9 C2        -39.2250  -30.7090    7.2940 C.3       1 HC3253      0.0000 
     10 C3        -38.1950  -30.7260    8.4310 C.3       1 HC3253      0.0000 
     11 O1        -38.9150  -30.9090    9.6560 O.3       1 HC3253      0.0000 
     12 C4        -37.4490  -29.3900    8.4310 C.3       1 HC3253      0.0000 
     13 C5        -36.8640  -29.0830    7.0510 C.2       1 HC3253      0.0000 
     14 C6        -35.5890  -28.6280    7.0270 C.2       1 HC3253      0.0000 
     15 C7        -34.7820  -28.3340    5.7880 C.3       1 HC3253      0.0000 
     16 C8        -35.7050  -28.1500    4.5810 C.3       1 HC3253      0.0000 
     17 C14       -34.9190  -28.0440    3.2650 C.3       1 HC3253      0.0000 
     18 C15       -33.8460  -26.9500    3.1220 C.3       1 HC3253      0.0000 
     19 C16       -33.6590  -26.8290    1.5970 C.3       1 HC3253      0.0000 
     20 C17       -34.7390  -27.7180    0.9410 C.3       1 HC3253      0.0000 
     21 C20       -35.1360  -27.1690   -0.4330 C.3       1 HC3253      0.0000 
     22 C21       -36.2770  -27.9700   -1.0660 C.3       1 HC3253      0.0000 
     23 C22       -33.9310  -27.2330   -1.3740 C.3       1 HC3253      0.0000 
     24 C23       -34.0760  -26.3330   -2.6080 C.3       1 HC3253      0.0000 
     25 C24       -34.0580  -24.8440   -2.2630 C.3       1 HC3253      0.0000 
     26 C25       -34.0990  -23.9650   -3.5130 C.3       1 HC3253      0.0000 
     27 C26       -34.2780  -22.5050   -3.1110 C.3       1 HC3253      0.0000 
     28 C27       -32.8400  -24.1620   -4.3400 C.3       1 HC3253      0.0000 
     29 O2        -35.2340  -24.3320   -4.3270 O.3       1 HC3253      0.0000 
     30 H         -35.9957  -30.0152    1.9316 H         1 HC3253      0.0000 
     31 H         -37.2837  -29.1292    1.0972 H         1 HC3253      0.0000 
     32 H         -38.1380  -30.1997    3.1587 H         1 HC3253      0.0000 
     33 H         -38.2534  -28.4336    3.2467 H         1 HC3253      0.0000 
     34 H         -36.2038  -30.2433    4.5886 H         1 HC3253      0.0000 
     35 H         -37.7290  -31.4168    5.8924 H         1 HC3253      0.0000 
     36 H         -39.1622  -30.7106    5.1261 H         1 HC3253      0.0000 
     37 H         -39.7829  -31.6253    7.2967 H         1 HC3253      0.0000 
     38 H         -39.8701  -29.8586    7.4020 H         1 HC3253      0.0000 
     39 H         -37.5069  -31.5139    8.2457 H         1 HC3253      0.0000 
     40 H         -36.6416  -29.4303    9.1619 H         1 HC3253      0.0000 
     41 H         -38.1383  -28.5945    8.7133 H         1 HC3253      0.0000 
     42 H         -35.0609  -28.4440    7.9262 H         1 HC3253      0.0000 
     43 H         -34.0990  -29.1582    5.5877 H         1 HC3253      0.0000 
     44 H         -34.2030  -27.4230    5.9317 H         1 HC3253      0.0000 
     45 H         -36.2550  -27.2093    4.7261 H         1 HC3253      0.0000 
     46 H         -34.3855  -29.0179    3.0943 H         1 HC3253      0.0000 
     47 H         -32.9443  -27.2743    3.5660 H         1 HC3253      0.0000 
     48 H         -34.2124  -26.0380    3.5085 H         1 HC3253      0.0000 
     49 H         -32.6899  -27.1894    1.3258 H         1 HC3253      0.0000 
     50 H         -33.8059  -25.8132    1.2981 H         1 HC3253      0.0000 
     51 H         -34.2563  -28.7035    0.8178 H         1 HC3253      0.0000 
     52 H         -35.4364  -26.1449   -0.3362 H         1 HC3253      0.0000 
     53 H         -33.7898  -28.2708   -1.7054 H         1 HC3253      0.0000 
     54 H         -33.0288  -26.9366   -0.8218 H         1 HC3253      0.0000 
     55 H         -35.0188  -26.5733   -3.1143 H         1 HC3253      0.0000 
     56 H         -33.2572  -26.5505   -3.3047 H         1 HC3253      0.0000 
     57 H         -33.1504  -24.6184   -1.6958 H         1 HC3253      0.0000 
     58 H         -34.9213  -24.6115   -1.6329 H         1 HC3253      0.0000 
     59 H         -36.0804  -25.7748    2.1099 H         1 HC3253      0.0000 
     60 H         -37.2348  -26.5139    1.2690 H         1 HC3253      0.0000 
     61 H         -37.2493  -26.5702    2.8761 H         1 HC3253      0.0000 
     62 H         -38.2626  -27.2176    5.6055 H         1 HC3253      0.0000 
     63 H         -39.2871  -28.2013    4.8511 H         1 HC3253      0.0000 
     64 H         -39.3242  -28.0773    6.4541 H         1 HC3253      0.0000 
     65 H         -36.5352  -27.6052   -1.9606 H         1 HC3253      0.0000 
     66 H         -36.0271  -28.9288   -1.2015 H         1 HC3253      0.0000 
     67 H         -37.0990  -27.9590   -0.4966 H         1 HC3253      0.0000 
     68 H         -33.5311  -22.1862   -2.5274 H         1 HC3253      0.0000 
     69 H         -34.3057  -21.9012   -3.9076 H         1 HC3253      0.0000 
     70 H         -35.1279  -22.3609   -2.6042 H         1 HC3253      0.0000 
     71 H         -32.0164  -23.9243   -3.8250 H         1 HC3253      0.0000 
     72 H         -32.7359  -25.1110   -4.6377 H         1 HC3253      0.0000 
     73 H         -32.8443  -23.5952   -5.1638 H         1 HC3253      0.0000 
     74 H         -38.4991  -30.2659   10.2990 H         1 HC3253      0.0000 
     75 H         -35.0525  -23.9252   -5.2223 H         1 HC3253      0.0000 
@<TRIPOS>BOND
     1    2    1 1    
     2   59    1 1    
     3   60    1 1    
     4   61    1 1    
     5    3    2 1    
     6   17    2 1    
     7   20    2 1    
     8    4    3 1    
     9   30    3 1    
    10   31    3 1    
    11    5    4 1    
    12   32    4 1    
    13   33    4 1    
    14    6    5 1    
    15   16    5 1    
    16   34    5 1    
    17    7    6 1    
    18    8    6 1    
    19   13    6 1    
    20   62    7 1    
    21   63    7 1    
    22   64    7 1    
    23    9    8 1    
    24   35    8 1    
    25   36    8 1    
    26   10    9 1    
    27   37    9 1    
    28   38    9 1    
    29   11   10 1    
    30   12   10 1    
    31   39   10 1    
    32   74   11 1    
    33   13   12 1    
    34   40   12 1    
    35   41   12 1    
    36   14   13 2    
    37   15   14 1    
    38   42   14 1    
    39   16   15 1    
    40   43   15 1    
    41   44   15 1    
    42   17   16 1    
    43   45   16 1    
    44   18   17 1    
    45   46   17 1    
    46   19   18 1    
    47   47   18 1    
    48   48   18 1    
    49   20   19 1    
    50   49   19 1    
    51   50   19 1    
    52   21   20 1    
    53   51   20 1    
    54   22   21 1    
    55   23   21 1    
    56   52   21 1    
    57   65   22 1    
    58   66   22 1    
    59   67   22 1    
    60   24   23 1    
    61   53   23 1    
    62   54   23 1    
    63   25   24 1    
    64   55   24 1    
    65   56   24 1    
    66   26   25 1    
    67   57   25 1    
    68   58   25 1    
    69   27   26 1    
    70   28   26 1    
    71   29   26 1    
    72   68   27 1    
    73   69   27 1    
    74   70   27 1    
    75   71   28 1    
    76   72   28 1    
    77   73   28 1    
    78   75   29 1    
@<TRIPOS>SUBSTRUCTURE
     1 HC3253      1 GROUP   
@<TRIPOS>SET

