#    Name: 3m98_E02_1_INTS_M
#    Modification time : Mon Mar 24 22:52:43 2014

@<TRIPOS>MOLECULE
3m98_E02_1_INTS_M
   34     0    12     0     0
SMALL
NO_CHARGES


@<TRIPOS>ATOM
      1 N          -2.0170    1.6965   13.6160 N.am      2 SEC2        0.0000 
      2 N          -2.9500    1.9040   12.3830 N.am     10 SEL2        0.0000 
      3 N          -1.0840    1.4890   14.8490 N.am      6 SEP2        0.0000 
      4 CA         -7.5665    5.1975   15.5615 C.3       4 GLC5        0.0000 
      5 CA         -5.6030    4.6620   15.4110 C.3      12 GLL5        0.0000 
      6 CA         -9.5300    5.7330   15.7120 C.3       8 GLP5        0.0000 
      7 CA         -6.2425    5.9810   17.0895 C.3       4 GLC5        0.0000 
      8 CA         -6.8820    7.3000   18.7680 C.3       8 GLP5        0.0000 
      9 N          -3.9315    0.6035   18.6790 N.am      2 SEC2        0.0000 
     10 N          -5.2440    1.0380   18.2120 N.am     10 SEL2        0.0000 
     11 N          -2.6190    0.1690   19.1460 N.am      6 SEP2        0.0000 
     12 CA         -8.1495    4.7705   16.6725 C.3       4 GLC5        0.0000 
     13 CA         -6.7690    3.8080   17.6330 C.3      12 GLL5        0.0000 
     14 CA         -6.8255    5.5540   18.2005 C.3       4 GLC5        0.0000 
     15 CA         -8.1785    3.4655   18.5275 C.3       4 GLC5        0.0000 
     16 CA         -9.5880    3.1230   19.4220 C.3       8 GLP5        0.0000 
     17 CA         -5.2675    4.5860   18.2605 C.3       4 GLC5        0.0000 
     18 CA         -3.7660    5.3640   18.8880 C.3       8 GLP5        0.0000 
     19 CA         -6.4410    4.1690   19.7660 C.3       4 GLC5        0.0000 
     20 CA         -6.1130    4.5300   21.8990 C.3       8 GLP5        0.0000 
     21 O          -4.3820   -1.3290   16.8835 O.2       1 ALC1        0.0000 
     22 O          -5.2220   -0.4760   16.1190 O.2       9 ALL1        0.0000 
     23 O          -3.5420   -2.1820   17.6480 O.2       5 ALP1        0.0000 
     24 Zn         -5.9100   -1.0790   15.7305 Zn        3 ZIC7        0.0000 
     25 Zn         -5.2220   -0.4760   16.1190 Zn       11 ZIL7        0.0000 
     26 Zn         -6.5980   -1.6820   15.3420 Zn        7 ZIP7        0.0000 
     27 CA          1.0457    1.9198    8.8370 C.3       4 GLC5        0.0000 
     28 CA          1.1220    3.5850   10.0020 C.3      12 GLL5        0.0000 
     29 CA          1.3210    0.0940    8.2230 C.3       8 GLP5        0.0000 
     30 CA         -7.6463    3.1065   15.5218 C.3       4 GLC5        0.0000 
     31 CA         -5.4020    2.3030   15.8380 C.3      12 GLL5        0.0000 
     32 CA         -9.6390    3.2640   15.0340 C.3       8 GLP5        0.0000 
     33 CA         -4.7600    4.7462   17.3420 C.3       4 GLC5        0.0000 
     34 CA         -5.9050    3.5950   16.1810 C.3      12 GLL5        0.0000 
@<TRIPOS>BOND
@<TRIPOS>SUBSTRUCTURE
     1 ALC1       21 GROUP        1 X    ALC  0     ROOT ALC X 1
     2 SEC2        1 GROUP        1 X    SEC  0     **** SEC X 2
     3 ZIC7       24 GROUP        1 X    ZIC  0     **** ZIC X 5
     4 GLC5        4 GROUP        1 X    GLC  0     **** GLC X 6
     5 ALP1       23 GROUP        1 Y    ALP  0     ROOT ALP Y 8
     6 SEP2        3 GROUP        1 Y    SEP  0     **** SEP Y 9
     7 ZIP7       26 GROUP        1 Y    ZIP  0     **** ZIP Y 12
     8 GLP5        6 GROUP        1 Y    GLP  0     **** GLP Y 13
     9 ALL1       22 GROUP        1 Z    ALL  0     ROOT ALL Z 15
    10 SEL2        2 GROUP        1 Z    SEL  0     **** SEL Z 16
    11 ZIL7       25 GROUP        1 Z    ZIL  0     **** ZIL Z 19
    12 GLL5        5 GROUP        1 Z    GLL  0     **** GLL Z 20
@<TRIPOS>SET

