#    Name: 3m98_E02_1_ligand
#    Modification time : Mon Mar 24 22:52:43 2014

@<TRIPOS>MOLECULE
3m98_E02_1_ligand
   34    36     1     0     0
SMALL
NO_CHARGES


@<TRIPOS>ATOM
      1 N1         -2.8830    4.1650   10.2040 N.pl3     1 E02263      0.0000 
      2 C2         -3.1500    4.4890    8.8230 C.2       1 E02263      0.0000 
      3 N3         -2.0180    4.4370    8.1440 N.2       1 E02263      0.0000 
      4 C4         -1.0070    4.0840    9.0940 C.ar      1 E02263      0.0000 
      5 C5         -1.5460    3.9340   10.3020 C.ar      1 E02263      0.0000 
      6 C6         -0.8170    3.5870   11.5070 C.ar      1 E02263      0.0000 
      7 C7          0.4880    3.4150   11.3640 C.ar      1 E02263      0.0000 
      8 C8          1.1220    3.5850   10.0020 C.ar      1 E02263      0.0000 
      9 C9          0.4190    3.9060    8.9000 C.ar      1 E02263      0.0000 
     10 C10        -3.7690    4.0690   11.4020 C.3       1 E02263      0.0000 
     11 C11        -3.5730    2.9780   12.5190 C.2       1 E02263      0.0000 
     12 O12        -2.9500    1.9040   12.3830 O.2       1 E02263      0.0000 
     13 C13        -4.3850    3.2270   13.8460 C.ar      1 E02263      0.0000 
     14 C14        -4.7270    2.1030   14.6970 C.ar      1 E02263      0.0000 
     15 C15        -5.4020    2.3030   15.8380 C.ar      1 E02263      0.0000 
     16 C16        -5.9050    3.5950   16.1810 C.ar      1 E02263      0.0000 
     17 C17        -5.6030    4.6620   15.4110 C.ar      1 E02263      0.0000 
     18 C18        -4.8570    4.4670   14.2170 C.ar      1 E02263      0.0000 
     19 S19        -5.8750    0.8320   16.8520 S.o2      1 E02263      0.0000 
     20 O20        -5.2440    1.0380   18.2120 O.2       1 E02263      0.0000 
     21 CL21       -6.7690    3.8080   17.6330 Cl        1 E02263      0.0000 
     22 O22        -7.3790    0.7750   16.7840 O.2       1 E02263      0.0000 
     23 N23        -5.2220   -0.4760   16.1190 N.pl3     1 E02263      0.0000 
     24 H          -4.0330    4.6988    8.5162 H         1 E02263      0.0000 
     25 H          -1.3269    3.4974   12.3657 H         1 E02263      0.0000 
     26 H           1.1336    3.1687   12.1153 H         1 E02263      0.0000 
     27 H           2.1508    3.4327    9.9871 H         1 E02263      0.0000 
     28 H           0.8049    4.0251    7.9886 H         1 E02263      0.0000 
     29 H          -4.8549    3.9789   11.0583 H         1 E02263      0.0000 
     30 H          -3.7797    5.0762   11.9414 H         1 E02263      0.0000 
     31 H          -4.4291    1.1702   14.3815 H         1 E02263      0.0000 
     32 H          -5.8931    5.6140   15.6562 H         1 E02263      0.0000 
     33 H          -4.6718    5.2964   13.6184 H         1 E02263      0.0000 
     34 H          -4.3237   -0.7639   16.4512 H         1 E02263      0.0000 
@<TRIPOS>BOND
     1    2    1 1    
     2    5    1 1    
     3   10    1 1    
     4    3    2 2    
     5   24    2 1    
     6    4    3 1    
     7    5    4 ar   
     8    9    4 ar   
     9    6    5 ar   
    10    7    6 ar   
    11   25    6 1    
    12    8    7 ar   
    13   26    7 1    
    14    9    8 ar   
    15   27    8 1    
    16   28    9 1    
    17   11   10 1    
    18   29   10 1    
    19   30   10 1    
    20   12   11 2    
    21   13   11 1    
    22   14   13 ar   
    23   18   13 ar   
    24   15   14 ar   
    25   31   14 1    
    26   16   15 ar   
    27   19   15 1    
    28   17   16 ar   
    29   21   16 1    
    30   18   17 ar   
    31   32   17 1    
    32   33   18 1    
    33   20   19 2    
    34   22   19 2    
    35   23   19 1    
    36   34   23 1    
@<TRIPOS>SUBSTRUCTURE
     1 E02263      1 GROUP   
@<TRIPOS>SET

