#    Name: 1s9e_ADB_1_INTS_M
#    Modification time : Tue Mar 25 02:07:28 2014

@<TRIPOS>MOLECULE
1s9e_ADB_1_INTS_M
   64     0     9     0     0
SMALL
NO_CHARGES


@<TRIPOS>ATOM
      1 CA        142.9155  -18.9390   75.2690 C.3       3 GLC5        0.0000 
      2 CA        143.5520  -20.4300   74.7920 C.3       9 GLL5        0.0000 
      3 CA        142.2790  -17.4480   75.7460 C.3       6 GLP5        0.0000 
      4 CA        142.4785  -21.0950   73.7525 C.3       3 GLC5        0.0000 
      5 CA        141.4050  -21.7600   72.7130 C.3       6 GLP5        0.0000 
      6 CA        145.0395  -19.4810   74.6110 C.3       3 GLC5        0.0000 
      7 CA        146.5270  -18.5320   74.4300 C.3       6 GLP5        0.0000 
      8 CA        142.9705  -20.1725   76.8170 C.3       3 GLC5        0.0000 
      9 CA        142.3890  -19.9150   78.8420 C.3       6 GLP5        0.0000 
     10 CA        146.9525  -24.7145   71.2730 C.3       3 GLC5        0.0000 
     11 CA        147.2340  -24.2670   73.0480 C.3       9 GLL5        0.0000 
     12 CA        146.6710  -25.1620   69.4980 C.3       6 GLP5        0.0000 
     13 CA        147.6060  -22.3115   73.2760 C.3       3 GLC5        0.0000 
     14 CA        147.9780  -20.3560   73.5040 C.3       6 GLP5        0.0000 
     15 CA        142.8845  -22.2750   72.3070 C.3       3 GLC5        0.0000 
     16 CA        144.3640  -22.7900   71.9010 C.3       9 GLL5        0.0000 
     17 CA        145.5175  -23.9760   70.6995 C.3       3 GLC5        0.0000 
     18 CA        141.5865  -24.2655   72.1055 C.3       3 GLC5        0.0000 
     19 CA        143.2890  -24.8200   71.4730 C.3       9 GLL5        0.0000 
     20 CA        139.8840  -23.7110   72.7380 C.3       6 GLP5        0.0000 
     21 CA        144.9800  -24.9910   70.4855 C.3       3 GLC5        0.0000 
     22 O         142.1355  -26.6925   70.7870 O.2       1 ALC1        0.0000 
     23 O         142.9490  -26.1050   71.7760 O.2       7 ALL1        0.0000 
     24 O         141.3220  -27.2800   69.7980 O.2       4 ALP1        0.0000 
     25 N         141.2840  -24.5875   70.0915 N.am      2 SEC2        0.0000 
     26 N         142.8800  -24.3180   70.2810 N.am      8 SEL2        0.0000 
     27 N         139.6880  -24.8570   69.9020 N.am      5 SEP2        0.0000 
     28 CA        142.2985  -22.4055   71.3110 C.3       3 GLC5        0.0000 
     29 CA        143.1920  -23.0510   69.9090 C.3       9 GLL5        0.0000 
     30 CA        144.4250  -23.4460   68.8015 C.3       3 GLC5        0.0000 
     31 CA        145.6580  -23.8410   67.6940 C.3       6 GLP5        0.0000 
     32 CA        145.6415  -29.5420   77.6770 C.3       3 GLC5        0.0000 
     33 CA        144.2380  -29.4950   76.1860 C.3       9 GLL5        0.0000 
     34 CA        147.0450  -29.5890   79.1680 C.3       6 GLP5        0.0000 
     35 CA        143.4230  -28.5345   77.7405 C.3       3 GLC5        0.0000 
     36 CA        142.6080  -27.5740   79.2950 C.3       6 GLP5        0.0000 
     37 CA        142.8510  -30.6560   77.1180 C.3       3 GLC5        0.0000 
     38 CA        141.4640  -31.8170   78.0500 C.3       6 GLP5        0.0000 
     39 CA        143.1991  -22.6071   75.0949 C.3       3 GLC5        0.0000 
     40 CA        145.3930  -22.3840   74.0050 C.3       9 GLL5        0.0000 
     41 CA        141.3460  -23.1930   74.6990 C.3       6 GLP5        0.0000 
     42 CA        146.5151  -21.1886   74.4974 C.3       3 GLC5        0.0000 
     43 CA        144.7400  -21.6730   75.0880 C.3       9 GLL5        0.0000 
     44 CA        144.2892  -23.8218   77.7690 C.3       3 GLC5        0.0000 
     45 CA        145.0380  -22.0140   76.4350 C.3       9 GLL5        0.0000 
     46 CA        143.0540  -25.1270   78.9690 C.3       6 GLP5        0.0000 
     47 CA        148.1485  -23.8777   75.8665 C.3       3 GLC5        0.0000 
     48 CA        146.0110  -23.0190   76.7030 C.3       9 GLL5        0.0000 
     49 CA        149.9590  -24.3900   75.5630 C.3       6 GLP5        0.0000 
     50 CA        147.2527  -21.9543   74.2373 C.3       3 GLC5        0.0000 
     51 CA        146.6650  -23.7120   75.6370 C.3       9 GLL5        0.0000 
     52 CA        148.3855  -24.1100   74.6195 C.3       3 GLC5        0.0000 
     53 CA        146.3900  -23.3930   74.3040 C.3       9 GLL5        0.0000 
     54 CA        143.6005  -28.0920   71.1950 C.3       3 GLC5        0.0000 
     55 CA        143.2880  -26.8470   72.8920 C.3       9 GLL5        0.0000 
     56 CA        144.2660  -28.7300   69.3950 C.3       6 GLP5        0.0000 
     57 CA        145.5437  -28.5152   73.9200 C.3       3 GLC5        0.0000 
     58 CA        144.6610  -27.3570   74.9380 C.3       9 GLL5        0.0000 
     59 CA        146.5850  -30.1040   73.4530 C.3       6 GLP5        0.0000 
     60 CA        145.2061  -29.6133   74.4360 C.3       3 GLC5        0.0000 
     61 CA        142.8970  -28.9220   74.1950 C.3       9 GLL5        0.0000 
     62 CA        143.1186  -30.9012   74.9085 C.3       3 GLC5        0.0000 
     63 CA        143.9360  -28.5780   75.1090 C.3       9 GLL5        0.0000 
     64 CA        142.4100  -32.6800   74.3980 C.3       6 GLP5        0.0000 
@<TRIPOS>BOND
@<TRIPOS>SUBSTRUCTURE
     1 ALC1       22 GROUP        1 X    ALC  0     ROOT ALC X 1
     2 SEC2       25 GROUP        1 X    SEC  0     **** SEC X 2
     3 GLC5        1 GROUP        1 X    GLC  0     **** GLC X 6
     4 ALP1       24 GROUP        1 Y    ALP  0     ROOT ALP Y 8
     5 SEP2       27 GROUP        1 Y    SEP  0     **** SEP Y 9
     6 GLP5        3 GROUP        1 Y    GLP  0     **** GLP Y 13
     7 ALL1       23 GROUP        1 Z    ALL  0     ROOT ALL Z 15
     8 SEL2       26 GROUP        1 Z    SEL  0     **** SEL Z 16
     9 GLL5        2 GROUP        1 Z    GLL  0     **** GLL Z 20
@<TRIPOS>SET

