#    Name: 1s9e_ADB_1_ligand
#    Modification time : Tue Mar 25 02:07:29 2014

@<TRIPOS>MOLECULE
1s9e_ADB_1_ligand
   35    37     1     0     0
SMALL
NO_CHARGES


@<TRIPOS>ATOM
      1 C1        145.3930  -22.3840   74.0050 C.ar      1 ADB701      0.0000 
      2 O7        145.1150  -22.0570   72.7220 O.3       1 ADB701      0.0000 
      3 C2        144.7400  -21.6730   75.0880 C.ar      1 ADB701      0.0000 
      4 CL2       143.5520  -20.4300   74.7920 Cl        1 ADB701      0.0000 
      5 C3        145.0380  -22.0140   76.4350 C.ar      1 ADB701      0.0000 
      6 C4        146.0110  -23.0190   76.7030 C.ar      1 ADB701      0.0000 
      7 C5        146.6650  -23.7120   75.6370 C.ar      1 ADB701      0.0000 
      8 C6        146.3900  -23.3930   74.3040 C.ar      1 ADB701      0.0000 
      9 CL6       147.2340  -24.2670   73.0480 Cl        1 ADB701      0.0000 
     10 C8        144.3640  -22.7900   71.9010 C.ar      1 ADB701      0.0000 
     11 N1        144.0610  -24.0510   72.2620 N.ar      1 ADB701      0.0000 
     12 C9        143.2890  -24.8200   71.4730 C.ar      1 ADB701      0.0000 
     13 N5        142.9490  -26.1050   71.7760 N.pl3     1 ADB701      0.0000 
     14 N2        142.8800  -24.3180   70.2810 N.ar      1 ADB701      0.0000 
     15 C10       143.1920  -23.0510   69.9090 C.ar      1 ADB701      0.0000 
     16 N4        142.7560  -22.5400   68.6710 N.pl3     1 ADB701      0.0000 
     17 N3        143.9610  -22.2820   70.7170 N.ar      1 ADB701      0.0000 
     18 C11       143.2880  -26.8470   72.8920 C.ar      1 ADB701      0.0000 
     19 C12       142.5820  -28.0610   73.0980 C.ar      1 ADB701      0.0000 
     20 C13       142.8970  -28.9220   74.1950 C.ar      1 ADB701      0.0000 
     21 C14       143.9360  -28.5780   75.1090 C.ar      1 ADB701      0.0000 
     22 C15       144.6610  -27.3570   74.9380 C.ar      1 ADB701      0.0000 
     23 C16       144.3440  -26.4960   73.8360 C.ar      1 ADB701      0.0000 
     24 C17       144.2380  -29.4950   76.1860 C.1       1 ADB701      0.0000 
     25 N6        144.4920  -30.2610   77.0370 N.1       1 ADB701      0.0000 
     26 H         144.5633  -21.5472   77.1989 H         1 ADB701      0.0000 
     27 H         146.2470  -23.2501   77.6711 H         1 ADB701      0.0000 
     28 H         147.3405  -24.4485   75.8671 H         1 ADB701      0.0000 
     29 H         142.3242  -26.6245   71.0418 H         1 ADB701      0.0000 
     30 H         143.0292  -21.6011   68.4617 H         1 ADB701      0.0000 
     31 H         142.2104  -23.1597   68.1068 H         1 ADB701      0.0000 
     32 H         141.8328  -28.3289   72.4517 H         1 ADB701      0.0000 
     33 H         142.3742  -29.7875   74.3233 H         1 ADB701      0.0000 
     34 H         145.3916  -27.1015   75.5881 H         1 ADB701      0.0000 
     35 H         144.8547  -25.6283   73.7013 H         1 ADB701      0.0000 
@<TRIPOS>BOND
     1    2    1 1    
     2    3    1 ar   
     3    8    1 ar   
     4   10    2 1    
     5    4    3 1    
     6    5    3 ar   
     7    6    5 ar   
     8   26    5 1    
     9    7    6 ar   
    10   27    6 1    
    11    8    7 ar   
    12   28    7 1    
    13    9    8 1    
    14   11   10 ar   
    15   17   10 ar   
    16   12   11 ar   
    17   13   12 1    
    18   14   12 ar   
    19   18   13 1    
    20   29   13 1    
    21   15   14 ar   
    22   16   15 1    
    23   17   15 ar   
    24   30   16 1    
    25   31   16 1    
    26   19   18 ar   
    27   23   18 ar   
    28   20   19 ar   
    29   32   19 1    
    30   21   20 ar   
    31   33   20 1    
    32   22   21 ar   
    33   24   21 1    
    34   23   22 ar   
    35   34   22 1    
    36   35   23 1    
    37   25   24 3    
@<TRIPOS>SUBSTRUCTURE
     1 ADB701      1 GROUP   
@<TRIPOS>SET

