#    Name: 3kvx_FMY_1_INTS_M
#    Modification time : Mon Mar 24 20:38:13 2014

@<TRIPOS>MOLECULE
3kvx_FMY_1_INTS_M
   71     0     6     0     0
SMALL
NO_CHARGES


@<TRIPOS>ATOM
      1 CA        -26.5705   37.6215    9.0720 C.3       2 GLC5        0.0000 
      2 CA        -26.1580   35.9270    9.9440 C.3       6 GLL5        0.0000 
      3 CA        -26.9830   39.3160    8.2000 C.3       4 GLP5        0.0000 
      4 CA        -23.3825   36.8300   10.5755 C.3       2 GLC5        0.0000 
      5 CA        -24.9400   35.4500   10.3980 C.3       6 GLL5        0.0000 
      6 CA        -21.8250   38.2100   10.7530 C.3       4 GLP5        0.0000 
      7 CA        -29.7290   34.8075   14.3030 C.3       2 GLC5        0.0000 
      8 CA        -29.7790   33.1180   13.0800 C.3       6 GLL5        0.0000 
      9 CA        -29.6790   36.4970   15.5260 C.3       4 GLP5        0.0000 
     10 CA        -25.7080   35.5510   14.0465 C.3       2 GLC5        0.0000 
     11 CA        -26.1090   33.4950   14.3140 C.3       6 GLL5        0.0000 
     12 CA        -25.3070   37.6070   13.7790 C.3       4 GLP5        0.0000 
     13 CA        -25.2445   29.2665   14.1095 C.3       2 GLC5        0.0000 
     14 CA        -26.1280   31.0100   14.1410 C.3       6 GLL5        0.0000 
     15 CA        -24.3610   27.5230   14.0780 C.3       4 GLP5        0.0000 
     16 CA        -17.3650   33.7680   12.3310 C.3       2 GLC5        0.0000 
     17 CA        -18.3370   33.3240   10.5480 C.3       6 GLL5        0.0000 
     18 CA        -16.3930   34.2120   14.1140 C.3       4 GLP5        0.0000 
     19 CA        -28.6190   34.9465   15.1430 C.3       2 GLC5        0.0000 
     20 CA        -27.5590   33.3960   14.7600 C.3       6 GLL5        0.0000 
     21 CA        -28.5285   29.7730   13.2885 C.3       2 GLC5        0.0000 
     22 CA        -27.4240   31.3000   13.4290 C.3       6 GLL5        0.0000 
     23 CA        -29.6330   28.2460   13.1480 C.3       4 GLP5        0.0000 
     24 CA        -28.7365   31.1345   11.7070 C.3       2 GLC5        0.0000 
     25 CA        -30.0490   30.9690    9.9850 C.3       4 GLP5        0.0000 
     26 CA        -26.8715   31.8390   11.4555 C.3       2 GLC5        0.0000 
     27 CA        -26.3190   32.3780    9.4820 C.3       4 GLP5        0.0000 
     28 CA        -20.1430   33.3970   14.5680 C.3       2 GLC5        0.0000 
     29 CA        -19.5590   32.7330   13.0310 C.3       6 GLL5        0.0000 
     30 CA        -20.7270   34.0610   16.1050 C.3       4 GLP5        0.0000 
     31 N         -22.3025   35.6155   10.8575 N.am      1 SEC2        0.0000 
     32 N         -22.5060   34.3900   11.3720 N.am      5 SEL2        0.0000 
     33 N         -22.0990   36.8410   10.3430 N.am      3 SEP2        0.0000 
     34 CA        -31.9945   34.2035   15.1845 C.3       2 GLC5        0.0000 
     35 CA        -31.8170   32.0750   14.6360 C.3       6 GLL5        0.0000 
     36 CA        -32.1720   36.3320   15.7330 C.3       4 GLP5        0.0000 
     37 CA        -27.4035   36.8555    8.7865 C.3       2 GLC5        0.0000 
     38 CA        -27.3600   35.6020   10.6130 C.3       6 GLL5        0.0000 
     39 CA        -27.4470   38.1090    6.9600 C.3       4 GLP5        0.0000 
     40 CA        -32.1405   35.5740   12.4730 C.3       2 GLC5        0.0000 
     41 CA        -32.1210   34.5350   10.7560 C.3       6 GLL5        0.0000 
     42 CA        -32.1600   36.6130   14.1900 C.3       4 GLP5        0.0000 
     43 CA        -33.2260   36.0045   11.3215 C.3       2 GLC5        0.0000 
     44 CA        -34.3310   37.4740   11.8870 C.3       4 GLP5        0.0000 
     45 CA        -31.0850   32.7520   10.3705 C.3       2 GLC5        0.0000 
     46 CA        -31.2075   35.2570    7.5135 C.3       2 GLC5        0.0000 
     47 CA        -31.8690   35.3370    9.6320 C.3       6 GLL5        0.0000 
     48 CA        -30.5460   35.1770    5.3950 C.3       4 GLP5        0.0000 
     49 CA        -33.4490   36.3575    9.3055 C.3       2 GLC5        0.0000 
     50 CA        -35.0290   37.3780    8.9790 C.3       4 GLP5        0.0000 
     51 CA        -27.2365   36.8657   11.8946 C.3       2 GLC5        0.0000 
     52 CA        -27.3880   34.8420   11.7600 C.3       6 GLL5        0.0000 
     53 CA        -27.7070   38.1570   13.2240 C.3       4 GLP5        0.0000 
     54 CA        -25.2617   36.3060   12.4661 C.3       2 GLC5        0.0000 
     55 CA        -24.8750   34.6750   11.5760 C.3       6 GLL5        0.0000 
     56 CA        -31.8987   34.8593   13.6543 C.3       2 GLC5        0.0000 
     57 CA        -31.1010   33.3510   12.7210 C.3       6 GLL5        0.0000 
     58 CA        -29.8117   30.1160   13.8285 C.3       2 GLC5        0.0000 
     59 CA        -30.4980   31.7390   14.9190 C.3       6 GLL5        0.0000 
     60 CA        -27.1275   34.1303   16.4380 C.3       2 GLC5        0.0000 
     61 CA        -27.4210   34.8150   18.3390 C.3       4 GLP5        0.0000 
     62 CA        -17.7230   33.2287   13.4100 C.3       2 GLC5        0.0000 
     63 CA        -30.0053   31.8514   11.7424 C.3       2 GLC5        0.0000 
     64 CA        -31.5540   36.9100   10.3685 C.3       2 GLC5        0.0000 
     65 CA        -31.1130   38.8840   10.5430 C.3       4 GLP5        0.0000 
     66 CA        -33.0920   33.8315    9.3280 C.3       2 GLC5        0.0000 
     67 CA        -34.1890   32.7270    8.4620 C.3       4 GLP5        0.0000 
     68 CA        -33.3191   30.7454   13.9345 C.3       2 GLC5        0.0000 
     69 CA        -32.1740   32.8600   13.5160 C.3       6 GLL5        0.0000 
     70 CA        -34.2950   29.4860   13.0960 C.3       4 GLP5        0.0000 
     71 CA        -26.2262   33.7651   10.2861 C.3       2 GLC5        0.0000 
@<TRIPOS>BOND
@<TRIPOS>SUBSTRUCTURE
     1 SEC2       31 GROUP        1 X    SEC  0     ROOT SEC X 2
     2 GLC5        1 GROUP        1 X    GLC  0     **** GLC X 6
     3 SEP2       33 GROUP        1 Y    SEP  0     ROOT SEP Y 9
     4 GLP5        3 GROUP        1 Y    GLP  0     **** GLP Y 13
     5 SEL2       32 GROUP        1 Z    SEL  0     ROOT SEL Z 16
     6 GLL5        2 GROUP        1 Z    GLL  0     **** GLL Z 20
@<TRIPOS>SET

