#    Name: 3kvx_FMY_1_ligand
#    Modification time : Mon Mar 24 20:38:13 2014

@<TRIPOS>MOLECULE
3kvx_FMY_1_ligand
   64    69     1     0     0
SMALL
NO_CHARGES


@<TRIPOS>ATOM
      1 C01       -27.3880   34.8420   11.7600 C.ar      1 FMY403      0.0000 
      2 C02       -26.1580   35.9270    9.9440 C.ar      1 FMY403      0.0000 
      3 C03       -26.1110   34.4450   12.2410 C.ar      1 FMY403      0.0000 
      4 C04       -24.9400   35.4500   10.3980 C.ar      1 FMY403      0.0000 
      5 C05       -23.6690   33.4280   13.0930 C.2       1 FMY403      0.0000 
      6 C06       -32.1740   32.8600   13.5160 C.ar      1 FMY403      0.0000 
      7 C07       -30.4980   31.7390   14.9190 C.ar      1 FMY403      0.0000 
      8 C08       -29.7790   33.1180   13.0800 C.ar      1 FMY403      0.0000 
      9 C09       -26.1090   33.4950   14.3140 C.3       1 FMY403      0.0000 
     10 C10       -26.1280   31.0100   14.1410 C.3       1 FMY403      0.0000 
     11 C11       -18.5470   31.7580   12.3810 C.3       1 FMY403      0.0000 
     12 C12       -18.3370   33.3240   10.5480 C.3       1 FMY403      0.0000 
     13 C13       -27.5590   33.3960   14.7600 C.3       1 FMY403      0.0000 
     14 C14       -27.4240   31.3000   13.4290 C.3       1 FMY403      0.0000 
     15 C15       -19.5590   32.7330   13.0310 C.3       1 FMY403      0.0000 
     16 C16       -19.5860   34.1630   10.9160 C.3       1 FMY403      0.0000 
     17 N17       -22.3550   33.0950   13.2160 N.2       1 FMY403      0.0000 
     18 N18       -22.5060   34.3900   11.3720 N.2       1 FMY403      0.0000 
     19 N19       -28.4790   36.0950   10.1070 N.2       1 FMY403      0.0000 
     20 O20       -25.4950   32.2460   14.6130 O.3       1 FMY403      0.0000 
     21 O21       -18.4300   31.9420   10.9570 O.3       1 FMY403      0.0000 
     22 C22       -31.8170   32.0750   14.6360 C.ar      1 FMY403      0.0000 
     23 C23       -27.3600   35.6020   10.6130 C.ar      1 FMY403      0.0000 
     24 C24       -31.1010   33.3510   12.7210 C.ar      1 FMY403      0.0000 
     25 C25       -29.4830   32.2330   14.0990 C.ar      1 FMY403      0.0000 
     26 C26       -24.8750   34.6750   11.5760 C.ar      1 FMY403      0.0000 
     27 C27       -21.6740   33.7300   12.2210 C.2       1 FMY403      0.0000 
     28 N28       -28.1470   32.0510   14.4610 N.3       1 FMY403      0.0000 
     29 N29       -20.3080   33.5270   12.0260 N.3       1 FMY403      0.0000 
     30 N30       -23.7390   34.1540   11.9990 N.pl3     1 FMY403      0.0000 
     31 C31       -29.6710   35.5070   10.2230 C.2       1 FMY403      0.0000 
     32 N31       -30.6510   35.7850    9.2990 N.pl3     1 FMY403      0.0000 
     33 N32       -29.8660   34.7510   11.3240 N.2       1 FMY403      0.0000 
     34 C33       -31.0950   34.2710   11.5850 C.2       1 FMY403      0.0000 
     35 C34       -32.1210   34.5350   10.7560 C.2       1 FMY403      0.0000 
     36 C35       -31.8690   35.3370    9.6320 C.2       1 FMY403      0.0000 
     37 F37       -32.6910   31.5420   15.4700 F         1 FMY403      0.0000 
     38 H         -28.2187   34.5810   12.2291 H         1 FMY403      0.0000 
     39 H         -26.2022   36.5289    9.1069 H         1 FMY403      0.0000 
     40 H         -26.0766   33.9382   13.1670 H         1 FMY403      0.0000 
     41 H         -24.0740   35.6542    9.8844 H         1 FMY403      0.0000 
     42 H         -24.3658   33.1751   13.6873 H         1 FMY403      0.0000 
     43 H         -33.1208   33.0604   13.2924 H         1 FMY403      0.0000 
     44 H         -30.2731   31.1400   15.7142 H         1 FMY403      0.0000 
     45 H         -29.0203   33.6079   12.5832 H         1 FMY403      0.0000 
     46 H         -25.6453   34.3169   14.8522 H         1 FMY403      0.0000 
     47 H         -26.0969   33.7112   13.2494 H         1 FMY403      0.0000 
     48 H         -25.4580   30.4764   13.4517 H         1 FMY403      0.0000 
     49 H         -26.3323   30.3380   14.9868 H         1 FMY403      0.0000 
     50 H         -18.8763   30.7325   12.6300 H         1 FMY403      0.0000 
     51 H         -17.5767   31.9089   12.8888 H         1 FMY403      0.0000 
     52 H         -17.4619   33.8219   11.0107 H         1 FMY403      0.0000 
     53 H         -18.1976   33.4102    9.4521 H         1 FMY403      0.0000 
     54 H         -28.1404   34.1760   14.2513 H         1 FMY403      0.0000 
     55 H         -27.6123   33.5922   15.8388 H         1 FMY403      0.0000 
     56 H         -27.9155   30.3897   13.2020 H         1 FMY403      0.0000 
     57 H         -27.2346   31.9021   12.5785 H         1 FMY403      0.0000 
     58 H         -19.0020   33.3965   13.7070 H         1 FMY403      0.0000 
     59 H         -20.2510   32.1409   13.6458 H         1 FMY403      0.0000 
     60 H         -20.2147   34.2344   10.0287 H         1 FMY403      0.0000 
     61 H         -19.2492   35.1629   11.1887 H         1 FMY403      0.0000 
     62 H         -30.4522   36.2825    8.4525 H         1 FMY403      0.0000 
     63 H         -33.0625   34.1767   10.9151 H         1 FMY403      0.0000 
     64 H         -32.7051   35.5875    9.0305 H         1 FMY403      0.0000 
@<TRIPOS>BOND
     1    3    1 ar   
     2   23    1 ar   
     3   38    1 1    
     4    4    2 ar   
     5   23    2 ar   
     6   39    2 1    
     7   26    3 ar   
     8   40    3 1    
     9   26    4 ar   
    10   41    4 1    
    11   17    5 2    
    12   30    5 1    
    13   42    5 1    
    14   22    6 ar   
    15   24    6 ar   
    16   43    6 1    
    17   22    7 ar   
    18   25    7 ar   
    19   44    7 1    
    20   24    8 ar   
    21   25    8 ar   
    22   45    8 1    
    23   13    9 1    
    24   20    9 1    
    25   46    9 1    
    26   47    9 1    
    27   14   10 1    
    28   20   10 1    
    29   48   10 1    
    30   49   10 1    
    31   15   11 1    
    32   21   11 1    
    33   50   11 1    
    34   51   11 1    
    35   16   12 1    
    36   21   12 1    
    37   52   12 1    
    38   53   12 1    
    39   28   13 1    
    40   54   13 1    
    41   55   13 1    
    42   28   14 1    
    43   56   14 1    
    44   57   14 1    
    45   29   15 1    
    46   58   15 1    
    47   59   15 1    
    48   29   16 1    
    49   60   16 1    
    50   61   16 1    
    51   27   17 1    
    52   27   18 2    
    53   30   18 1    
    54   23   19 1    
    55   31   19 2    
    56   37   22 1    
    57   34   24 1    
    58   28   25 1    
    59   30   26 1    
    60   29   27 1    
    61   32   31 1    
    62   33   31 1    
    63   36   32 1    
    64   62   32 1    
    65   34   33 2    
    66   35   34 1    
    67   36   35 2    
    68   63   35 1    
    69   64   36 1    
@<TRIPOS>SUBSTRUCTURE
     1 FMY403      1 GROUP   
@<TRIPOS>SET

