#    Name: 1tvr_TB9_1_INTS_M
#    Modification time : Tue Mar 25 05:42:57 2014

@<TRIPOS>MOLECULE
1tvr_TB9_1_INTS_M
   72     0     6     0     0
SMALL
NO_CHARGES


@<TRIPOS>ATOM
      1 O         140.6655  -26.3405   69.9325 O.2       1 ALC1        0.0000 
      2 O         141.5670  -25.8320   71.0180 O.2       5 ALL1        0.0000 
      3 O         139.7640  -26.8490   68.8470 O.2       3 ALP1        0.0000 
      4 CA        141.3695  -24.1080   71.9655 C.3       2 GLC5        0.0000 
      5 CA        142.3710  -24.8230   70.3680 C.3       6 GLL5        0.0000 
      6 CA        140.3680  -23.3930   73.5630 C.3       4 GLP5        0.0000 
      7 CA        142.9225  -26.0510   68.7555 C.3       2 GLC5        0.0000 
      8 CA        143.4740  -27.2790   67.1430 C.3       4 GLP5        0.0000 
      9 CA        140.8545  -22.9805   70.2890 C.3       2 GLC5        0.0000 
     10 CA        141.9880  -24.1100   68.7930 C.3       6 GLL5        0.0000 
     11 CA        139.7210  -21.8510   71.7850 C.3       4 GLP5        0.0000 
     12 CA        142.2130  -24.9380   67.0880 C.3       2 GLC5        0.0000 
     13 CA        142.4380  -25.7660   65.3830 C.3       4 GLP5        0.0000 
     14 CA        144.5345  -27.2250   71.8775 C.3       2 GLC5        0.0000 
     15 CA        143.3280  -25.4150   72.3500 C.3       6 GLL5        0.0000 
     16 CA        145.7410  -29.0350   71.4050 C.3       4 GLP5        0.0000 
     17 CA        147.0255  -24.2460   73.8820 C.3       2 GLC5        0.0000 
     18 CA        145.5880  -24.7070   73.5000 C.3       6 GLL5        0.0000 
     19 CA        148.4630  -23.7850   74.2640 C.3       4 GLP5        0.0000 
     20 CA        143.5750  -28.7005   77.0690 C.3       2 GLC5        0.0000 
     21 CA        142.2520  -28.4010   75.5860 C.3       6 GLL5        0.0000 
     22 CA        144.8980  -29.0000   78.5520 C.3       4 GLP5        0.0000 
     23 CA        141.5265  -30.0855   76.5595 C.3       2 GLC5        0.0000 
     24 CA        140.8010  -31.7700   77.5330 C.3       4 GLP5        0.0000 
     25 CA        140.4720  -28.5230   74.6615 C.3       2 GLC5        0.0000 
     26 CA        138.6920  -28.6450   73.7370 C.3       4 GLP5        0.0000 
     27 CA        141.0990  -25.2245   73.3990 C.3       2 GLC5        0.0000 
     28 CA        141.8300  -27.0560   73.2350 C.3       6 GLL5        0.0000 
     29 CA        148.3235  -22.0710   70.1580 C.3       2 GLC5        0.0000 
     30 CA        146.6520  -22.5360   71.1970 C.3       6 GLL5        0.0000 
     31 CA        149.9950  -21.6060   69.1190 C.3       4 GLP5        0.0000 
     32 CA        147.1270  -23.0375   74.2775 C.3       2 GLC5        0.0000 
     33 CA        145.7910  -22.2900   74.2910 C.3       6 GLL5        0.0000 
     34 CA        146.4090  -22.9900   75.3765 C.3       2 GLC5        0.0000 
     35 CA        144.5000  -22.2350   74.9610 C.3       6 GLL5        0.0000 
     36 CA        148.3180  -23.7450   75.7920 C.3       4 GLP5        0.0000 
     37 CA        143.1470  -20.5835   77.5195 C.3       2 GLC5        0.0000 
     38 CA        144.1880  -21.7880   76.1850 C.3       6 GLL5        0.0000 
     39 CA        142.1060  -19.3790   78.8540 C.3       4 GLP5        0.0000 
     40 CA        141.5060  -22.6460   74.9555 C.3       2 GLC5        0.0000 
     41 CA        142.6440  -21.8990   76.3480 C.3       6 GLL5        0.0000 
     42 CA        141.8720  -21.0870   77.4665 C.3       2 GLC5        0.0000 
     43 CA        141.1000  -20.2750   78.5850 C.3       4 GLP5        0.0000 
     44 CA        142.2480  -23.3905   77.6905 C.3       2 GLC5        0.0000 
     45 CA        141.8520  -24.8820   79.0330 C.3       4 GLP5        0.0000 
     46 CA        146.1620  -19.5360   78.1065 C.3       2 GLC5        0.0000 
     47 CA        145.3540  -21.2580   77.0590 C.3       6 GLL5        0.0000 
     48 CA        146.9700  -17.8140   79.1540 C.3       4 GLP5        0.0000 
     49 CA        147.0445  -21.9445   77.4835 C.3       2 GLC5        0.0000 
     50 CA        148.7350  -22.6310   77.9080 C.3       4 GLP5        0.0000 
     51 CA        144.2265  -20.5200   78.3935 C.3       2 GLC5        0.0000 
     52 CA        143.0990  -19.7820   79.7280 C.3       4 GLP5        0.0000 
     53 CA        146.6932  -21.2417   71.9452 C.3       2 GLC5        0.0000 
     54 CA        147.3990  -19.8060   72.3710 C.3       4 GLP5        0.0000 
     55 CA        147.2253  -23.2312   72.8918 C.3       2 GLC5        0.0000 
     56 CA        141.9317  -24.5064   73.2189 C.3       2 GLC5        0.0000 
     57 CA        144.2390  -25.4430   73.4600 C.3       6 GLL5        0.0000 
     58 CA        145.8811  -26.6643   73.4175 C.3       2 GLC5        0.0000 
     59 CA        143.8930  -26.3640   74.5280 C.3       6 GLL5        0.0000 
     60 CA        147.3590  -27.6090   72.8310 C.3       4 GLP5        0.0000 
     61 CA        141.8972  -27.4997   76.7435 C.3       2 GLC5        0.0000 
     62 CA        142.6630  -27.1740   74.3960 C.3       6 GLL5        0.0000 
     63 CA        141.3370  -27.2120   78.4960 C.3       4 GLP5        0.0000 
     64 CA        146.0082  -22.7015   69.5254 C.3       2 GLC5        0.0000 
     65 CA        144.6870  -23.7730   70.8230 C.3       6 GLL5        0.0000 
     66 CA        146.1880  -22.4870   67.7860 C.3       4 GLP5        0.0000 
     67 CA        146.0913  -20.7312   74.7060 C.3       2 GLC5        0.0000 
     68 CA        147.0370  -19.2000   74.7860 C.3       4 GLP5        0.0000 
     69 CA        142.7490  -20.0042   75.8698 C.3       2 GLC5        0.0000 
     70 CA        142.0820  -18.1650   75.4730 C.3       4 GLP5        0.0000 
     71 CA        145.5830  -19.9950   76.1995 C.3       2 GLC5        0.0000 
     72 CA        146.3950  -18.4670   75.7770 C.3       4 GLP5        0.0000 
@<TRIPOS>BOND
@<TRIPOS>SUBSTRUCTURE
     1 ALC1        1 GROUP        1 X    ALC  0     ROOT ALC X 1
     2 GLC5        4 GROUP        1 X    GLC  0     **** GLC X 6
     3 ALP1        3 GROUP        1 Y    ALP  0     ROOT ALP Y 8
     4 GLP5        6 GROUP        1 Y    GLP  0     **** GLP Y 13
     5 ALL1        2 GROUP        1 Z    ALL  0     ROOT ALL Z 15
     6 GLL5        5 GROUP        1 Z    GLL  0     **** GLL Z 20
@<TRIPOS>SET

