#    Name: 1tvr_TB9_1_ligand
#    Modification time : Tue Mar 25 05:42:57 2014

@<TRIPOS>MOLECULE
1tvr_TB9_1_ligand
   42    44     1     0     0
SMALL
NO_CHARGES


@<TRIPOS>ATOM
      1 N1        141.5670  -25.8320   71.0180 N.am      1 TB9600      0.0000 
      2 C1A       142.1760  -26.1780   72.2290 C.ar      1 TB9600      0.0000 
      3 C2        142.3710  -24.8230   70.3680 C.2       1 TB9600      0.0000 
      4 S2        141.9880  -24.1100   68.7930 S.2       1 TB9600      0.0000 
      5 N3        143.5290  -24.5470   71.2420 N.am      1 TB9600      0.0000 
      6 C3A       143.3280  -25.4150   72.3500 C.ar      1 TB9600      0.0000 
      7 C4        144.6870  -23.7730   70.8230 C.3       1 TB9600      0.0000 
      8 C5        145.3230  -22.8190   71.8420 C.3       1 TB9600      0.0000 
      9 N6        145.6460  -23.2790   73.2100 N.4       1 TB9600      0.0000 
     10 C7        145.5880  -24.7070   73.5000 C.3       1 TB9600      0.0000 
     11 C7A       144.2390  -25.4430   73.4600 C.ar      1 TB9600      0.0000 
     12 C8        143.8930  -26.3640   74.5280 C.ar      1 TB9600      0.0000 
     13 CL9       142.2520  -28.4010   75.5860 Cl        1 TB9600      0.0000 
     14 C9        142.6630  -27.1740   74.3960 C.ar      1 TB9600      0.0000 
     15 C10       141.8300  -27.0560   73.2350 C.ar      1 TB9600      0.0000 
     16 C11       146.6520  -22.5360   71.1970 C.3       1 TB9600      0.0000 
     17 C12       145.7910  -22.2900   74.2910 C.3       1 TB9600      0.0000 
     18 C13       144.5000  -22.2350   74.9610 C.2       1 TB9600      0.0000 
     19 C14       144.1880  -21.7880   76.1850 C.2       1 TB9600      0.0000 
     20 C15       142.6440  -21.8990   76.3480 C.3       1 TB9600      0.0000 
     21 C16       145.3540  -21.2580   77.0590 C.3       1 TB9600      0.0000 
     22 H         140.7701  -26.1816   70.6643 H         1 TB9600      0.0000 
     23 H         144.4346  -23.1607   69.9095 H         1 TB9600      0.0000 
     24 H         145.5038  -24.4619   70.4605 H         1 TB9600      0.0000 
     25 H         144.7875  -21.8920   71.8406 H         1 TB9600      0.0000 
     26 H         147.0090  -23.3074   72.9482 H         1 TB9600      0.0000 
     27 H         146.0419  -24.9105   74.5218 H         1 TB9600      0.0000 
     28 H         146.2886  -25.2694   72.8041 H         1 TB9600      0.0000 
     29 H         144.4636  -26.4568   75.3363 H         1 TB9600      0.0000 
     30 H         140.9875  -27.6313   73.1760 H         1 TB9600      0.0000 
     31 H         146.0461  -21.3227   73.8746 H         1 TB9600      0.0000 
     32 H         146.5650  -22.6069   74.9799 H         1 TB9600      0.0000 
     33 H         143.6867  -22.6273   74.3375 H         1 TB9600      0.0000 
     34 H         147.2733  -22.0605   71.8198 H         1 TB9600      0.0000 
     35 H         147.1116  -23.3762   70.9093 H         1 TB9600      0.0000 
     36 H         146.5555  -21.9616   70.3841 H         1 TB9600      0.0000 
     37 H         142.3268  -22.8420   76.2474 H         1 TB9600      0.0000 
     38 H         142.3418  -21.5824   77.2471 H         1 TB9600      0.0000 
     39 H         142.1583  -21.3521   75.6661 H         1 TB9600      0.0000 
     40 H         146.0460  -21.9614   77.2213 H         1 TB9600      0.0000 
     41 H         145.8184  -20.4838   76.6289 H         1 TB9600      0.0000 
     42 H         145.0355  -20.9479   77.9548 H         1 TB9600      0.0000 
@<TRIPOS>BOND
     1    2    1 1    
     2    3    1 am   
     3   22    1 1    
     4    6    2 ar   
     5   15    2 ar   
     6    4    3 2    
     7    5    3 am   
     8    6    5 1    
     9    7    5 1    
    10   11    6 ar   
    11    8    7 1    
    12   23    7 1    
    13   24    7 1    
    14    9    8 1    
    15   16    8 1    
    16   25    8 1    
    17   10    9 1    
    18   17    9 1    
    19   26    9 1    
    20   11   10 1    
    21   27   10 1    
    22   28   10 1    
    23   12   11 ar   
    24   14   12 ar   
    25   29   12 1    
    26   14   13 1    
    27   15   14 ar   
    28   30   15 1    
    29   34   16 1    
    30   35   16 1    
    31   36   16 1    
    32   18   17 1    
    33   31   17 1    
    34   32   17 1    
    35   19   18 2    
    36   33   18 1    
    37   20   19 1    
    38   21   19 1    
    39   37   20 1    
    40   38   20 1    
    41   39   20 1    
    42   40   21 1    
    43   41   21 1    
    44   42   21 1    
@<TRIPOS>SUBSTRUCTURE
     1 TB9600      1 GROUP   
@<TRIPOS>SET

