#    Name: 2vnh_FAD_1_INTS_M
#    Modification time : Tue Mar 25 02:10:47 2014

@<TRIPOS>MOLECULE
2vnh_FAD_1_INTS_M
  114     0    12     0     0
SMALL
NO_CHARGES


@<TRIPOS>ATOM
      1 CA        -14.7050   57.9330    6.3265 C.3       4 GLC5        0.0000 
      2 CA        -13.8310   57.8440    4.2830 C.3      12 GLL5        0.0000 
      3 CA        -15.5790   58.0220    8.3700 C.3       8 GLP5        0.0000 
      4 O         -10.3165   57.2710    3.7520 O.2       1 ALC1        0.0000 
      5 O         -11.5050   58.4960    4.0100 O.2       9 ALL1        0.0000 
      6 O          -9.1280   56.0460    3.4940 O.2       5 ALP1        0.0000 
      7 CA        -10.7825   55.1010    6.0010 C.3       4 GLC5        0.0000 
      8 CA        -12.1420   56.7490    5.4990 C.3      12 GLL5        0.0000 
      9 CA         -9.4230   53.4530    6.5030 C.3       8 GLP5        0.0000 
     10 CA         -9.9450   57.2060    5.3830 C.3       4 GLC5        0.0000 
     11 CA         -7.7480   57.6630    5.2670 C.3       8 GLP5        0.0000 
     12 N         -11.2130   57.3610    7.6150 N.am      2 SEC2        0.0000 
     13 N         -12.0350   57.7500    6.4880 N.am     10 SEL2        0.0000 
     14 N         -10.3910   56.9720    8.7420 N.am      6 SEP2        0.0000 
     15 CA        -15.5695   55.5530    5.2205 C.3       4 GLC5        0.0000 
     16 CA        -13.4850   56.0790    5.7310 C.3      12 GLL5        0.0000 
     17 CA        -17.6540   55.0270    4.7100 C.3       8 GLP5        0.0000 
     18 CA        -14.5320   57.0505    7.0505 C.3       4 GLC5        0.0000 
     19 CA        -15.1360   51.7955    4.9935 C.3       4 GLC5        0.0000 
     20 CA        -13.5460   52.4440    5.5230 C.3      12 GLL5        0.0000 
     21 CA        -16.7260   51.1470    4.4640 C.3       8 GLP5        0.0000 
     22 CA        -15.3185   50.9250    6.0360 C.3       4 GLC5        0.0000 
     23 CA        -13.5550   51.2340    6.2190 C.3      12 GLL5        0.0000 
     24 CA        -17.0820   50.6160    5.8530 C.3       8 GLP5        0.0000 
     25 O         -13.3365   48.8355    6.1930 O.2       1 ALC1        0.0000 
     26 O         -13.5530   50.0740    5.5790 O.2       9 ALL1        0.0000 
     27 O         -13.1200   47.5970    6.8070 O.2       5 ALP1        0.0000 
     28 CA        -15.4085   51.9015    8.3010 C.3       4 GLC5        0.0000 
     29 CA        -13.4840   52.4510    8.3060 C.3      12 GLL5        0.0000 
     30 CA        -17.3330   51.3520    8.2960 C.3       8 GLP5        0.0000 
     31 CA        -12.4705   54.2705    8.7390 C.3       4 GLC5        0.0000 
     32 CA        -11.4570   56.0900    9.1720 C.3       8 GLP5        0.0000 
     33 CA        -14.9760   54.0710    8.4460 C.3       4 GLC5        0.0000 
     34 CA        -16.4680   55.6910    8.5860 C.3       8 GLP5        0.0000 
     35 N         -13.6265   54.8935    8.6845 N.am      2 SEC2        0.0000 
     36 N         -13.4730   53.6310    7.5980 N.am     10 SEL2        0.0000 
     37 N         -13.7800   56.1560    9.7710 N.am      6 SEP2        0.0000 
     38 CA        -15.4055   52.6995    6.5390 C.3       4 GLC5        0.0000 
     39 CA        -13.5080   53.6290    6.2450 C.3      12 GLL5        0.0000 
     40 CA        -17.3030   51.7700    6.8330 C.3       8 GLP5        0.0000 
     41 CA        -12.4825   54.8595    7.7085 C.3       4 GLC5        0.0000 
     42 CA        -14.9880   54.6600    7.4155 C.3       4 GLC5        0.0000 
     43 N         -16.9160   48.4065    4.2125 N.am      2 SEC2        0.0000 
     44 N         -15.7220   48.2540    3.5080 N.am     10 SEL2        0.0000 
     45 N         -18.1100   48.5590    4.9170 N.am      6 SEP2        0.0000 
     46 O         -15.4130   45.5055    3.4895 O.2       1 ALC1        0.0000 
     47 O         -14.4100   46.4570    3.0090 O.2       9 ALL1        0.0000 
     48 O         -16.4160   44.5540    3.9700 O.2       5 ALP1        0.0000 
     49 N         -12.2900   44.1185    1.4270 N.am      2 SEC2        0.0000 
     50 N         -12.9100   44.8200    2.8590 N.am     10 SEL2        0.0000 
     51 N         -11.6700   43.4170   -0.0050 N.am      6 SEP2        0.0000 
     52 CA        -11.2455   46.2625   -0.0775 C.3       4 GLC5        0.0000 
     53 CA        -10.0120   47.3400    1.2900 C.3      12 GLL5        0.0000 
     54 CA        -12.4790   45.1850   -1.4450 C.3       8 GLP5        0.0000 
     55 CA         -5.7570   45.8995   -1.0550 C.3       4 GLC5        0.0000 
     56 CA         -6.3740   47.2690    0.1580 C.3      12 GLL5        0.0000 
     57 CA         -5.1400   44.5300   -2.2680 C.3       8 GLP5        0.0000 
     58 CA         -5.0430   46.2070    1.0585 C.3       4 GLC5        0.0000 
     59 CA         -3.7120   45.1450    1.9590 C.3       8 GLP5        0.0000 
     60 CA         -5.6740   50.2110    1.8815 C.3       4 GLC5        0.0000 
     61 CA         -7.0380   50.2190    0.1440 C.3      12 GLL5        0.0000 
     62 CA         -4.3100   50.2030    3.6190 C.3       8 GLP5        0.0000 
     63 CA         -6.7720   52.0035    0.4605 C.3       4 GLC5        0.0000 
     64 CA         -6.5060   53.7880    0.7770 C.3       8 GLP5        0.0000 
     65 CA        -10.9860   51.1880    3.2560 C.3       4 GLC5        0.0000 
     66 CA        -11.8930   50.6030    1.7650 C.3      12 GLL5        0.0000 
     67 CA        -10.0790   51.7730    4.7470 C.3       8 GLP5        0.0000 
     68 CA        -13.4290   50.8800   -1.5825 C.3       4 GLC5        0.0000 
     69 CA        -12.6420   50.7880    0.4480 C.3      12 GLL5        0.0000 
     70 CA        -14.2160   50.9720   -3.6130 C.3       8 GLP5        0.0000 
     71 O         -11.8115   49.2760   -0.9400 O.2       1 ALC1        0.0000 
     72 O         -11.7350   50.6270   -0.6290 O.2       9 ALL1        0.0000 
     73 O         -11.8880   47.9250   -1.2510 O.2       5 ALP1        0.0000 
     74 CA        -13.6155   52.7675   -1.5140 C.3       4 GLC5        0.0000 
     75 CA        -13.4740   52.0770    0.3390 C.3      12 GLL5        0.0000 
     76 CA        -13.7570   53.4580   -3.3670 C.3       8 GLP5        0.0000 
     77 CA        -15.3940   50.0135   -0.1080 C.3       4 GLC5        0.0000 
     78 CA        -14.8330   51.8360    0.9950 C.3      12 GLL5        0.0000 
     79 CA        -15.9550   48.1910   -1.2110 C.3       8 GLP5        0.0000 
     80 O         -16.5390   49.8980    0.3490 O.2       1 ALC1        0.0000 
     81 O         -15.6120   51.0100    0.1420 O.2       9 ALL1        0.0000 
     82 O         -17.4660   48.7860    0.5560 O.2       5 ALP1        0.0000 
     83 CA        -16.6135   54.0840    2.9795 C.3       4 GLC5        0.0000 
     84 CA        -15.5730   53.1410    1.2490 C.3      12 GLL5        0.0000 
     85 N         -19.1320   54.1445   -0.3915 N.am      2 SEC2        0.0000 
     86 N         -18.0890   54.9760    0.1870 N.am     10 SEL2        0.0000 
     87 N         -20.1750   53.3130   -0.9700 N.am      6 SEP2        0.0000 
     88 N         -18.9880   54.4415    1.0455 N.am      2 SEC2        0.0000 
     89 N         -19.8870   53.9070    1.9040 N.am      6 SEP2        0.0000 
     90 NZ        -15.5690   55.5155   -3.0090 N.4       3 LYC4        0.0000 
     91 NZ        -16.4670   55.4970   -1.6480 N.4      11 LYL4        0.0000 
     92 NZ        -14.6710   55.5340   -4.3700 N.4       7 LYP4        0.0000 
     93 N         -17.8625   55.4250   -2.3460 N.am      2 SEC2        0.0000 
     94 N         -16.4670   55.4970   -1.6480 N.am     10 SEL2        0.0000 
     95 N         -19.2580   55.3530   -3.0440 N.am      6 SEP2        0.0000 
     96 CA        -16.1938   57.6778    4.2260 C.3       4 GLC5        0.0000 
     97 CA        -14.4220   57.9810    2.9030 C.3      12 GLL5        0.0000 
     98 CA        -18.2610   57.4430    4.8590 C.3       8 GLP5        0.0000 
     99 CA        -12.1352   56.2520    7.3935 C.3       4 GLC5        0.0000 
    100 CA        -11.8041   52.2535    5.4025 C.3       4 GLC5        0.0000 
    101 CA         -9.3807   47.6990   -0.9582 C.3       4 GLC5        0.0000 
    102 CA         -9.3720   48.2770   -2.9720 C.3       8 GLP5        0.0000 
    103 CA         -8.2218   47.9055   -1.3445 C.3       4 GLC5        0.0000 
    104 CA         -7.7690   47.7990    0.4080 C.3      12 GLL5        0.0000 
    105 CA         -8.4573   48.9845   -1.3257 C.3       4 GLC5        0.0000 
    106 CA         -8.0470   49.1650    0.4970 C.3      12 GLL5        0.0000 
    107 CA         -8.1642   50.5215    2.1772 C.3       4 GLC5        0.0000 
    108 CA         -8.7860   51.3510    4.0340 C.3       8 GLP5        0.0000 
    109 CA         -9.5745   48.7142   -0.9002 C.3       4 GLC5        0.0000 
    110 CA         -9.2820   49.5960    0.9700 C.3      12 GLL5        0.0000 
    111 CA         -9.2815   50.2512    2.6027 C.3       4 GLC5        0.0000 
    112 CA        -15.9645   51.8178    2.7930 C.3       4 GLC5        0.0000 
    113 CA        -17.0335   52.1847    1.1260 C.3       4 GLC5        0.0000 
    114 CA        -18.8640   51.8810    1.1300 C.3       8 GLP5        0.0000 
@<TRIPOS>BOND
@<TRIPOS>SUBSTRUCTURE
     1 ALC1        4 GROUP        1 X    ALC  0     ROOT ALC X 1
     2 SEC2       12 GROUP        1 X    SEC  0     **** SEC X 2
     3 LYC4       90 GROUP        1 X    LYC  0     **** LYC X 4
     4 GLC5        1 GROUP        1 X    GLC  0     **** GLC X 6
     5 ALP1        6 GROUP        1 Y    ALP  0     ROOT ALP Y 8
     6 SEP2       14 GROUP        1 Y    SEP  0     **** SEP Y 9
     7 LYP4       92 GROUP        1 Y    LYP  0     **** LYP Y 11
     8 GLP5        3 GROUP        1 Y    GLP  0     **** GLP Y 13
     9 ALL1        5 GROUP        1 Z    ALL  0     ROOT ALL Z 15
    10 SEL2       13 GROUP        1 Z    SEL  0     **** SEL Z 16
    11 LYL4       91 GROUP        1 Z    LYL  0     **** LYL Z 18
    12 GLL5        2 GROUP        1 Z    GLL  0     **** GLL Z 20
@<TRIPOS>SET

