#    Name: 2vnh_FAD_1_ligand
#    Modification time : Tue Mar 25 02:10:47 2014

@<TRIPOS>MOLECULE
2vnh_FAD_1_ligand
   84    89     1     0     0
SMALL
NO_CHARGES


@<TRIPOS>ATOM
      1 PA        -14.3880   56.6610    0.7030 P.3       1 FAD273      0.0000 
      2 O1A       -14.5340   57.9410   -0.1250 O.co2     1 FAD273      0.0000 
      3 O2A       -13.5050   55.7010    0.0260 O.co2     1 FAD273      0.0000 
      4 O5B       -13.7500   57.0410    2.1150 O.3       1 FAD273      0.0000 
      5 C5B       -14.4220   57.9810    2.9030 C.3       1 FAD273      0.0000 
      6 C4B       -13.8310   57.8440    4.2830 C.3       1 FAD273      0.0000 
      7 O4B       -14.4730   56.8090    5.0100 O.3       1 FAD273      0.0000 
      8 C3B       -12.3790   57.4150    4.1750 C.3       1 FAD273      0.0000 
      9 O3B       -11.5050   58.4960    4.0100 O.3       1 FAD273      0.0000 
     10 C2B       -12.1420   56.7490    5.4990 C.3       1 FAD273      0.0000 
     11 O2B       -12.0350   57.7500    6.4880 O.3       1 FAD273      0.0000 
     12 C1B       -13.4850   56.0790    5.7310 C.3       1 FAD273      0.0000 
     13 N9A       -13.4930   54.6540    5.3410 N.pl3     1 FAD273      0.0000 
     14 C8A       -13.5510   54.1090    4.0810 C.2       1 FAD273      0.0000 
     15 N7A       -13.5770   52.7690    4.2110 N.2       1 FAD273      0.0000 
     16 C5A       -13.5460   52.4440    5.5230 C.ar      1 FAD273      0.0000 
     17 C6A       -13.5550   51.2340    6.2190 C.ar      1 FAD273      0.0000 
     18 N6A       -13.5530   50.0740    5.5790 N.pl3     1 FAD273      0.0000 
     19 N1A       -13.5130   51.2530    7.6050 N.ar      1 FAD273      0.0000 
     20 C2A       -13.4840   52.4510    8.3060 C.ar      1 FAD273      0.0000 
     21 N3A       -13.4730   53.6310    7.5980 N.ar      1 FAD273      0.0000 
     22 C4A       -13.5080   53.6290    6.2450 C.ar      1 FAD273      0.0000 
     23 N1        -13.6620   48.6920    2.7040 N.2       1 FAD273      0.0000 
     24 C2        -14.6420   47.8170    3.1050 C.2       1 FAD273      0.0000 
     25 O2        -15.7220   48.2540    3.5080 O.2       1 FAD273      0.0000 
     26 N3        -14.4100   46.4570    3.0090 N.am      1 FAD273      0.0000 
     27 C4        -13.2050   45.9770    2.5550 C.2       1 FAD273      0.0000 
     28 O4        -12.9100   44.8200    2.8590 O.2       1 FAD273      0.0000 
     29 C4X       -12.2070   46.8720    2.1640 C.2       1 FAD273      0.0000 
     30 N5        -10.9800   46.4300    1.6860 N.2       1 FAD273      0.0000 
     31 C5X       -10.0120   47.3400    1.2900 C.ar      1 FAD273      0.0000 
     32 C6         -8.7670   46.9020    0.8210 C.ar      1 FAD273      0.0000 
     33 C7         -7.7690   47.7990    0.4080 C.ar      1 FAD273      0.0000 
     34 C7M        -6.3740   47.2690    0.1580 C.3       1 FAD273      0.0000 
     35 C8         -8.0470   49.1650    0.4970 C.ar      1 FAD273      0.0000 
     36 C8M        -7.0380   50.2190    0.1440 C.3       1 FAD273      0.0000 
     37 C9         -9.2820   49.5960    0.9700 C.ar      1 FAD273      0.0000 
     38 C9A       -10.2720   48.7070    1.3730 C.ar      1 FAD273      0.0000 
     39 N10       -11.5000   49.1520    1.8510 N.pl3     1 FAD273      0.0000 
     40 C10       -12.4520   48.2340    2.2410 C.2       1 FAD273      0.0000 
     41 C1'       -11.8930   50.6030    1.7650 C.3       1 FAD273      0.0000 
     42 C2'       -12.6420   50.7880    0.4480 C.3       1 FAD273      0.0000 
     43 O2'       -11.7350   50.6270   -0.6290 O.3       1 FAD273      0.0000 
     44 C3'       -13.4740   52.0770    0.3390 C.3       1 FAD273      0.0000 
     45 O3'       -12.8080   53.2670    0.7930 O.3       1 FAD273      0.0000 
     46 C4'       -14.8330   51.8360    0.9950 C.3       1 FAD273      0.0000 
     47 O4'       -15.6120   51.0100    0.1420 O.3       1 FAD273      0.0000 
     48 C5'       -15.5730   53.1410    1.2490 C.3       1 FAD273      0.0000 
     49 O5'       -15.7230   53.8100    0.0140 O.3       1 FAD273      0.0000 
     50 P         -16.5960   55.1580   -0.1940 P.3       1 FAD273      0.0000 
     51 O1P       -18.0890   54.9760    0.1870 O.co2     1 FAD273      0.0000 
     52 O2P       -16.4670   55.4970   -1.6480 O.co2     1 FAD273      0.0000 
     53 O3P       -15.9270   56.2050    0.8450 O.3       1 FAD273      0.0000 
     54 H         -15.4869   57.7849    2.9700 H         1 FAD273      0.0000 
     55 H         -14.2616   58.9996    2.5659 H         1 FAD273      0.0000 
     56 H         -13.8691   58.7739    4.7940 H         1 FAD273      0.0000 
     57 H         -12.3100   56.6716    3.4160 H         1 FAD273      0.0000 
     58 H         -11.4050   56.0655    5.4532 H         1 FAD273      0.0000 
     59 H         -13.6960   56.1533    6.8084 H         1 FAD273      0.0000 
     60 H         -13.5691   54.6085    3.2636 H         1 FAD273      0.0000 
     61 H         -13.5523   50.1225    4.5802 H         1 FAD273      0.0000 
     62 H         -13.5523   49.2549    6.1527 H         1 FAD273      0.0000 
     63 H         -13.4712   52.4506    9.3280 H         1 FAD273      0.0000 
     64 H         -15.1590   45.7926    3.2847 H         1 FAD273      0.0000 
     65 H          -8.5747   45.8820    0.7768 H         1 FAD273      0.0000 
     66 H          -9.4715   50.6209    1.0241 H         1 FAD273      0.0000 
     67 H         -11.0149   51.2249    1.7647 H         1 FAD273      0.0000 
     68 H         -12.5436   50.8593    2.5828 H         1 FAD273      0.0000 
     69 H         -13.3849   49.9348    0.4037 H         1 FAD273      0.0000 
     70 H         -13.7013   52.1797   -0.7663 H         1 FAD273      0.0000 
     71 H         -14.6620   51.3506    1.9480 H         1 FAD273      0.0000 
     72 H         -14.9886   53.7224    1.9657 H         1 FAD273      0.0000 
     73 H         -16.5345   52.8963    1.7060 H         1 FAD273      0.0000 
     74 H          -5.7477   47.9933   -0.1304 H         1 FAD273      0.0000 
     75 H          -5.9824   46.8524    0.9784 H         1 FAD273      0.0000 
     76 H          -6.3647   46.5711   -0.5581 H         1 FAD273      0.0000 
     77 H          -6.2174   50.1526    0.7117 H         1 FAD273      0.0000 
     78 H          -6.7422   50.1458   -0.8084 H         1 FAD273      0.0000 
     79 H          -7.4055   51.1409    0.2668 H         1 FAD273      0.0000 
     80 H         -10.6087   58.0821    3.8512 H         1 FAD273      0.0000 
     81 H         -11.7577   58.5737    5.9934 H         1 FAD273      0.0000 
     82 H         -11.7591   49.6506   -0.8438 H         1 FAD273      0.0000 
     83 H         -13.2880   54.0199    0.3426 H         1 FAD273      0.0000 
     84 H         -16.1113   50.4004    0.7577 H         1 FAD273      0.0000 
@<TRIPOS>BOND
     1    2    1 ar   
     2    3    1 ar   
     3    4    1 1    
     4   53    1 1    
     5    5    4 1    
     6    6    5 1    
     7   54    5 1    
     8   55    5 1    
     9    7    6 1    
    10    8    6 1    
    11   56    6 1    
    12   12    7 1    
    13    9    8 1    
    14   10    8 1    
    15   57    8 1    
    16   80    9 1    
    17   11   10 1    
    18   12   10 1    
    19   58   10 1    
    20   81   11 1    
    21   13   12 1    
    22   59   12 1    
    23   14   13 1    
    24   22   13 1    
    25   15   14 2    
    26   60   14 1    
    27   16   15 1    
    28   17   16 ar   
    29   22   16 ar   
    30   18   17 1    
    31   19   17 ar   
    32   61   18 1    
    33   62   18 1    
    34   20   19 ar   
    35   21   20 ar   
    36   63   20 1    
    37   22   21 ar   
    38   24   23 1    
    39   40   23 2    
    40   25   24 2    
    41   26   24 am   
    42   27   26 am   
    43   64   26 1    
    44   28   27 2    
    45   29   27 1    
    46   30   29 2    
    47   40   29 1    
    48   31   30 1    
    49   32   31 ar   
    50   38   31 ar   
    51   33   32 ar   
    52   65   32 1    
    53   34   33 1    
    54   35   33 ar   
    55   74   34 1    
    56   75   34 1    
    57   76   34 1    
    58   36   35 1    
    59   37   35 ar   
    60   77   36 1    
    61   78   36 1    
    62   79   36 1    
    63   38   37 ar   
    64   66   37 1    
    65   39   38 1    
    66   40   39 1    
    67   41   39 1    
    68   42   41 1    
    69   67   41 1    
    70   68   41 1    
    71   43   42 1    
    72   44   42 1    
    73   69   42 1    
    74   82   43 1    
    75   45   44 1    
    76   46   44 1    
    77   70   44 1    
    78   83   45 1    
    79   47   46 1    
    80   48   46 1    
    81   71   46 1    
    82   84   47 1    
    83   49   48 1    
    84   72   48 1    
    85   73   48 1    
    86   50   49 1    
    87   51   50 ar   
    88   52   50 ar   
    89   53   50 1    
@<TRIPOS>SUBSTRUCTURE
     1 FAD273      1 GROUP   
@<TRIPOS>SET

