#    Name: 2v3y_PRO_LEU_1_INTS_M
#    Modification time : Tue Mar 25 00:57:41 2014

@<TRIPOS>MOLECULE
2v3y_PRO_LEU_1_INTS_M
   27     0     6     0     0
SMALL
NO_CHARGES


@<TRIPOS>ATOM
      1 N          58.8080   49.9935   54.6260 N.am      1 SEC2        0.0000 
      2 N          58.2210   49.8800   53.1510 N.am      5 SEL2        0.0000 
      3 N          59.3950   50.1070   56.1010 N.am      3 SEP2        0.0000 
      4 CA         58.7310   45.6670   52.2580 C.3       2 GLC5        0.0000 
      5 CA         59.6540   47.0660   52.8300 C.3       6 GLL5        0.0000 
      6 CA         57.8080   44.2680   51.6860 C.3       4 GLP5        0.0000 
      7 CA         59.7905   46.0900   55.6120 C.3       2 GLC5        0.0000 
      8 CA         60.7910   46.6680   53.7360 C.3       6 GLL5        0.0000 
      9 CA         58.7900   45.5120   57.4880 C.3       4 GLP5        0.0000 
     10 CA         59.5930   45.0510   53.1580 C.3       2 GLC5        0.0000 
     11 CA         58.3950   43.4340   52.5800 C.3       4 GLP5        0.0000 
     12 CA         62.1785   45.3965   53.1390 C.3       2 GLC5        0.0000 
     13 CA         63.5660   44.1250   52.5420 C.3       4 GLP5        0.0000 
     14 CA         60.8400   49.1425   55.7070 C.3       2 GLC5        0.0000 
     15 CA         61.4340   47.9200   54.2620 C.3       6 GLL5        0.0000 
     16 CA         60.2460   50.3650   57.1520 C.3       4 GLP5        0.0000 
     17 CA         58.3490   54.1990   49.8225 C.3       2 GLC5        0.0000 
     18 CA         57.0040   52.4430   49.4130 C.3       6 GLL5        0.0000 
     19 CA         59.6940   55.9550   50.2320 C.3       4 GLP5        0.0000 
     20 CA         56.7525   53.5240   46.0410 C.3       2 GLC5        0.0000 
     21 CA         56.5770   52.9920   48.0350 C.3       6 GLL5        0.0000 
     22 CA         56.9280   54.0560   44.0470 C.3       4 GLP5        0.0000 
     23 N          55.9365   46.7775   49.4985 N.am      1 SEC2        0.0000 
     24 N          55.9090   47.9660   50.1100 N.am      5 SEL2        0.0000 
     25 N          55.9640   45.5890   48.8870 N.am      3 SEP2        0.0000 
     26 CA         58.3779   52.3167   47.7072 C.3       2 GLC5        0.0000 
     27 CA         59.9540   52.3010   46.7020 C.3       4 GLP5        0.0000 
@<TRIPOS>BOND
@<TRIPOS>SUBSTRUCTURE
     1 SEC2        1 GROUP        1 X    SEC  0     ROOT SEC X 2
     2 GLC5        4 GROUP        1 X    GLC  0     **** GLC X 6
     3 SEP2        3 GROUP        1 Y    SEP  0     ROOT SEP Y 9
     4 GLP5        6 GROUP        1 Y    GLP  0     **** GLP Y 13
     5 SEL2        2 GROUP        1 Z    SEL  0     ROOT SEL Z 16
     6 GLL5        5 GROUP        1 Z    GLL  0     **** GLL Z 20
@<TRIPOS>SET

