#    Name: 2v3y_PRO_LEU_1_ligand
#    Modification time : Tue Mar 25 00:57:41 2014

@<TRIPOS>MOLECULE
2v3y_PRO_LEU_1_ligand
   36    36     2     0     0
SMALL
NO_CHARGES


@<TRIPOS>ATOM
      1 N          60.8550   48.9960   53.4290 N.am      1 PRO1        0.0000
      2 CA         59.9960   48.4770   52.3530 C.3       1 PRO1        0.0000
      3 C          58.7220   49.3000   52.1730 C.2       1 PRO1        0.0000
      4 O          58.2210   49.8800   53.1510 O.2       1 PRO1        0.0000
      5 CB         59.6540   47.0660   52.8300 C.3       1 PRO1        0.0000
      6 CG         60.7910   46.6680   53.7360 C.3       1 PRO1        0.0000
      7 CD         61.4340   47.9200   54.2620 C.3       1 PRO1        0.0000
      8 H          61.0210   49.9158   53.5750 H         1 PRO1        0.0000
      9 HA         60.5319   48.4025   51.4461 H         1 PRO1        0.0000
     10 HB2        59.6043   46.4095   51.9889 H         1 PRO1        0.0000
     11 HB3        58.7365   47.0889   53.3765 H         1 PRO1        0.0000
     12 HG2        61.5164   46.0904   53.1764 H         1 PRO1        0.0000
     13 HG3        60.4095   46.0776   54.5600 H         1 PRO1        0.0000
     14 HD2        61.1711   48.0556   55.2898 H         1 PRO1        0.0000
     15 HD3        62.4933   47.8657   54.1254 H         1 PRO1        0.0000
     16 N          58.2080   49.3480   50.9420 N.am      2 LEU2        0.0000
     17 CA         56.9550   50.0660   50.6610 C.3       2 LEU2        0.0000
     18 C          55.7780   49.0930   50.5560 C.2       2 LEU2        0.0000
     19 O          54.6470   49.4170   50.9300 O.2       2 LEU2        0.0000
     20 CB         57.0490   50.9030   49.3670 C.3       2 LEU2        0.0000
     21 CG         57.0040   52.4430   49.4130 C.3       2 LEU2        0.0000
     22 CD1        56.5770   52.9920   48.0350 C.3       2 LEU2        0.0000
     23 CD2        56.0880   52.9960   50.5040 C.3       2 LEU2        0.0000
     24 OXT        55.9090   47.9660   50.1100 O.3       2 LEU2        0.0000
     25 HNCA       58.6561   48.8892   50.1282 H         2 LEU2        0.0000
     26 HA         56.7333   50.7583   51.4778 H         2 LEU2        0.0000
     27 HB2        56.2313   50.5518   48.6676 H         2 LEU2        0.0000
     28 HB3        57.9955   50.5987   48.8261 H         2 LEU2        0.0000
     29 HG         58.0205   52.8044   49.5984 H         2 LEU2        0.0000
     30 HD11       56.5367   53.9912   48.0296 H         2 LEU2        0.0000
     31 HD12       57.2139   52.7204   47.3134 H         2 LEU2        0.0000
     32 HD13       55.6722   52.6607   47.7673 H         2 LEU2        0.0000
     33 HD21       56.3774   52.7035   51.4154 H         2 LEU2        0.0000
     34 HD22       56.0759   53.9959   50.5072 H         2 LEU2        0.0000
     35 HD23       55.1429   52.6918   50.3848 H         2 LEU2        0.0000
     36 H          54.9825   47.5911   50.0781 H         2 LEU2        0.0000
@<TRIPOS>BOND
     1    2    1 1
     2    7    1 1
     3    8    1 1
     4    3    2 1
     5    5    2 1
     6    9    2 1
     7    4    3 2
     8    6    5 1
     9   10    5 1
    10   11    5 1
    11    7    6 1
    12   12    6 1
    13   13    6 1
    14   14    7 1
    15   15    7 1
    16   17   16 1
    17   25   16 1
    18   18   17 1
    19   20   17 1
    20   26   17 1
    21   19   18 2
    22   24   18 1
    23   21   20 1
    24   27   20 1
    25   28   20 1
    26   22   21 1
    27   23   21 1
    28   29   21 1
    29   30   22 1
    30   31   22 1
    31   32   22 1
    32   33   23 1
    33   34   23 1
    34   35   23 1
    35   36   24 1
    36   16    3 am
@<TRIPOS>SUBSTRUCTURE
     1 PRO1        1 RESIDUE
     2 LEU2       16 RESIDUE
@<TRIPOS>SET

