#    Name: 3kpb_SAM_2_INTS_M
#    Modification time : Mon Mar 24 20:02:12 2014

@<TRIPOS>MOLECULE
3kpb_SAM_2_INTS_M
   57     0     9     0     0
SMALL
NO_CHARGES


@<TRIPOS>ATOM
      1 O          14.3490   12.3285   24.4145 O.2       1 ALC1        0.0000 
      2 O          13.6200   12.2430   22.9750 O.2       7 ALL1        0.0000 
      3 O          15.0780   12.4140   25.8540 O.2       4 ALP1        0.0000 
      4 N          10.2270   13.6915   21.4775 N.am      2 SEC2        0.0000 
      5 N          11.4780   13.2250   20.8570 N.am      8 SEL2        0.0000 
      6 N           8.9760   14.1580   22.0980 N.am      5 SEP2        0.0000 
      7 N          10.6355   14.5135   21.9930 N.am      2 SEC2        0.0000 
      8 N          12.2950   14.8690   21.8880 N.am      8 SEL2        0.0000 
      9 N           7.3535   12.2370   18.1255 N.am      2 SEC2        0.0000 
     10 N           8.4270   11.6030   17.9100 N.am      8 SEL2        0.0000 
     11 N           6.2800   12.8710   18.3410 N.am      5 SEP2        0.0000 
     12 O           7.5805   10.2930   18.0710 O.2       1 ALC1        0.0000 
     13 O           8.4270   11.6030   17.9100 O.2       7 ALL1        0.0000 
     14 O           6.7340    8.9830   18.2320 O.2       4 ALP1        0.0000 
     15 CA          9.1975   11.7140   21.9910 C.3       3 GLC5        0.0000 
     16 CA          9.1800   10.9410   20.1440 C.3       9 GLL5        0.0000 
     17 CA          9.2150   12.4870   23.8380 C.3       6 GLP5        0.0000 
     18 N           7.0505   11.6630   19.2580 N.am      2 SEC2        0.0000 
     19 N           7.8210   10.4550   20.1750 N.am      8 SEL2        0.0000 
     20 N           7.2775    9.7190   19.2035 N.am      2 SEC2        0.0000 
     21 N           6.7340    8.9830   18.2320 N.am      5 SEP2        0.0000 
     22 O           7.0215   11.4545   20.3490 O.2       1 ALC1        0.0000 
     23 O           7.8210   10.4550   20.1750 O.2       7 ALL1        0.0000 
     24 O           6.2220   12.4540   20.5230 O.2       4 ALP1        0.0000 
     25 CA          9.1770    4.8415   23.3890 C.3       3 GLC5        0.0000 
     26 CA         10.8240    6.0930   22.9030 C.3       9 GLL5        0.0000 
     27 CA          7.5300    3.5900   23.8750 C.3       6 GLP5        0.0000 
     28 CA         11.7305    4.2550   22.6940 C.3       3 GLC5        0.0000 
     29 CA         12.6370    2.4170   22.4850 C.3       6 GLP5        0.0000 
     30 CA         12.8010    5.6830   23.2880 C.3       3 GLC5        0.0000 
     31 CA         14.7780    5.2730   23.6730 C.3       6 GLP5        0.0000 
     32 O          11.0620    4.2135   24.5515 O.2       1 ALC1        0.0000 
     33 O          11.1620    5.7340   24.1400 O.2       7 ALL1        0.0000 
     34 O          10.9620    2.6930   24.9630 O.2       4 ALP1        0.0000 
     35 O          11.7260    6.3700   25.2815 O.2       1 ALC1        0.0000 
     36 O          12.2900    7.0060   26.4230 O.2       4 ALP1        0.0000 
     37 N          10.3395    3.7415   22.1100 N.am      2 SEC2        0.0000 
     38 N          10.4950    5.1680   21.9890 N.am      8 SEL2        0.0000 
     39 N          10.1840    2.3150   22.2310 N.am      5 SEP2        0.0000 
     40 CA          8.5280    6.4980   21.6950 C.3       3 GLC5        0.0000 
     41 CA         10.1600    5.5140   20.7520 C.3       9 GLL5        0.0000 
     42 CA          6.8960    7.4820   22.6380 C.3       6 GLP5        0.0000 
     43 CA          8.6830    6.0540   19.5665 C.3       3 GLC5        0.0000 
     44 CA          7.2060    6.5940   18.3810 C.3       6 GLP5        0.0000 
     45 CA          9.0345    4.0830   21.1425 C.3       3 GLC5        0.0000 
     46 CA          7.9090    2.6520   21.5330 C.3       6 GLP5        0.0000 
     47 CA         11.8520    4.6010   20.5975 C.3       3 GLC5        0.0000 
     48 CA         13.5440    3.6880   20.4430 C.3       6 GLP5        0.0000 
     49 CA          8.8280    7.1730   19.8065 C.3       3 GLC5        0.0000 
     50 CA         10.4500    7.7520   21.2320 C.3       9 GLL5        0.0000 
     51 CA         10.0245   13.5422   17.8174 C.3       3 GLC5        0.0000 
     52 CA         10.7520   11.3810   18.3600 C.3       9 GLL5        0.0000 
     53 CA          9.7250   15.1800   17.0720 C.3       6 GLP5        0.0000 
     54 CA         12.7170    7.5983   21.7685 C.3       3 GLC5        0.0000 
     55 CA         10.8060    7.4310   22.5300 C.3       9 GLL5        0.0000 
     56 CA         14.8060    7.6050   21.6560 C.3       6 GLP5        0.0000 
     57 CA          8.7643    7.3695   22.3061 C.3       3 GLC5        0.0000 
@<TRIPOS>BOND
@<TRIPOS>SUBSTRUCTURE
     1 ALC1        1 GROUP        1 X    ALC  0     ROOT ALC X 1
     2 SEC2        4 GROUP        1 X    SEC  0     **** SEC X 2
     3 GLC5       15 GROUP        1 X    GLC  0     **** GLC X 6
     4 ALP1        3 GROUP        1 Y    ALP  0     ROOT ALP Y 8
     5 SEP2        6 GROUP        1 Y    SEP  0     **** SEP Y 9
     6 GLP5       17 GROUP        1 Y    GLP  0     **** GLP Y 13
     7 ALL1        2 GROUP        1 Z    ALL  0     ROOT ALL Z 15
     8 SEL2        5 GROUP        1 Z    SEL  0     **** SEL Z 16
     9 GLL5       16 GROUP        1 Z    GLL  0     **** GLL Z 20
@<TRIPOS>SET

