#    Name: 3kpb_SAM_2_ligand
#    Modification time : Mon Mar 24 20:02:13 2014

@<TRIPOS>MOLECULE
3kpb_SAM_2_ligand
   50    52     1     0     0
SMALL
NO_CHARGES


@<TRIPOS>ATOM
      1 N          13.6200   12.2430   22.9750 N.4       1 SAM1000     0.0000 
      2 CA         13.7370   12.9530   21.6860 C.3       1 SAM1000     0.0000 
      3 C          12.4340   13.7270   21.4510 C.2       1 SAM1000     0.0000 
      4 O          11.4780   13.2250   20.8570 O.co2     1 SAM1000     0.0000 
      5 OXT        12.2950   14.8690   21.8880 O.co2     1 SAM1000     0.0000 
      6 CB         14.0280   11.9190   20.5570 C.3       1 SAM1000     0.0000 
      7 CG         14.4150   12.5770   19.2070 C.3       1 SAM1000     0.0000 
      8 SD         13.4390   11.8870   17.8180 S.3       1 SAM1000     0.0000 
      9 CE         14.0030   12.8520   16.4170 C.3       1 SAM1000     0.0000 
     10 C5'        11.7260   12.5210   18.0330 C.3       1 SAM1000     0.0000 
     11 C4'        10.7520   11.3810   18.3600 C.3       1 SAM1000     0.0000 
     12 O4'        11.3160   10.5220   19.3930 O.3       1 SAM1000     0.0000 
     13 C3'         9.4090   11.8580   18.9290 C.3       1 SAM1000     0.0000 
     14 O3'         8.4270   11.6030   17.9100 O.3       1 SAM1000     0.0000 
     15 C2'         9.1800   10.9410   20.1440 C.3       1 SAM1000     0.0000 
     16 O2'         7.8210   10.4550   20.1750 O.3       1 SAM1000     0.0000 
     17 C1'        10.1800    9.8100   19.8780 C.3       1 SAM1000     0.0000 
     18 N9         10.5040    9.0710   21.1170 N.pl3     1 SAM1000     0.0000 
     19 C8         10.8800    9.5770   22.2940 C.2       1 SAM1000     0.0000 
     20 N7         11.0660    8.5750   23.1600 N.2       1 SAM1000     0.0000 
     21 C5         10.8060    7.4310   22.5300 C.ar      1 SAM1000     0.0000 
     22 C6         10.8240    6.0930   22.9030 C.ar      1 SAM1000     0.0000 
     23 N6         11.1620    5.7340   24.1400 N.pl3     1 SAM1000     0.0000 
     24 N1         10.4950    5.1680   21.9890 N.ar      1 SAM1000     0.0000 
     25 C2         10.1600    5.5140   20.7520 C.ar      1 SAM1000     0.0000 
     26 N3         10.1320    6.7800   20.3640 N.ar      1 SAM1000     0.0000 
     27 C4         10.4500    7.7520   21.2320 C.ar      1 SAM1000     0.0000 
     28 H          14.5531   13.6497   21.7275 H         1 SAM1000     0.0000 
     29 H          13.1368   11.3026   20.4090 H         1 SAM1000     0.0000 
     30 H          14.8443   11.2674   20.8814 H         1 SAM1000     0.0000 
     31 H          15.4137   12.3685   18.9076 H         1 SAM1000     0.0000 
     32 H          14.1766   13.6121   19.1591 H         1 SAM1000     0.0000 
     33 H          11.5446   12.9855   17.0938 H         1 SAM1000     0.0000 
     34 H          11.8490   13.2215   18.8235 H         1 SAM1000     0.0000 
     35 H          10.5585   10.8051   17.4756 H         1 SAM1000     0.0000 
     36 H           9.4884   12.8381   19.2245 H         1 SAM1000     0.0000 
     37 H           9.4788   11.4578   21.0077 H         1 SAM1000     0.0000 
     38 H           9.7719    9.1824   19.1321 H         1 SAM1000     0.0000 
     39 H          11.0000   10.5239   22.4915 H         1 SAM1000     0.0000 
     40 H          11.3963    6.4781   24.7656 H         1 SAM1000     0.0000 
     41 H          11.1511    4.7526   24.3318 H         1 SAM1000     0.0000 
     42 H           9.9076    4.7534   20.0549 H         1 SAM1000     0.0000 
     43 H          14.3294   12.5259   23.6206 H         1 SAM1000     0.0000 
     44 H          12.7383   12.4144   23.4147 H         1 SAM1000     0.0000 
     45 H          13.7039   11.2529   22.8626 H         1 SAM1000     0.0000 
     46 H          14.9449   12.6280   16.1668 H         1 SAM1000     0.0000 
     47 H          13.4390   12.6945   15.6064 H         1 SAM1000     0.0000 
     48 H          13.9756   13.8334   16.6069 H         1 SAM1000     0.0000 
     49 H           7.9198   10.8042   18.2336 H         1 SAM1000     0.0000 
     50 H           7.3359   11.0818   20.7848 H         1 SAM1000     0.0000 
@<TRIPOS>BOND
     1    2    1 1    
     2   43    1 1    
     3   44    1 1    
     4   45    1 1    
     5    3    2 1    
     6    6    2 1    
     7   28    2 1    
     8    4    3 ar   
     9    5    3 ar   
    10    7    6 1    
    11   29    6 1    
    12   30    6 1    
    13    8    7 1    
    14   31    7 1    
    15   32    7 1    
    16    9    8 1    
    17   10    8 1    
    18   46    9 1    
    19   47    9 1    
    20   48    9 1    
    21   11   10 1    
    22   33   10 1    
    23   34   10 1    
    24   12   11 1    
    25   13   11 1    
    26   35   11 1    
    27   17   12 1    
    28   14   13 1    
    29   15   13 1    
    30   36   13 1    
    31   49   14 1    
    32   16   15 1    
    33   17   15 1    
    34   37   15 1    
    35   50   16 1    
    36   18   17 1    
    37   38   17 1    
    38   19   18 1    
    39   27   18 1    
    40   20   19 2    
    41   39   19 1    
    42   21   20 1    
    43   22   21 ar   
    44   27   21 ar   
    45   23   22 1    
    46   24   22 ar   
    47   40   23 1    
    48   41   23 1    
    49   25   24 ar   
    50   26   25 ar   
    51   42   25 1    
    52   27   26 ar   
@<TRIPOS>SUBSTRUCTURE
     1 SAM1000     1 GROUP   
@<TRIPOS>SET

