#    Name: 2wm4_VGJ_1_INTS_M
#    Modification time : Tue Mar 25 04:27:29 2014

@<TRIPOS>MOLECULE
2wm4_VGJ_1_INTS_M
   67     0     3     0     0
SMALL
NO_CHARGES


@<TRIPOS>ATOM
      1 CA         -4.0285    6.0925  -13.9275 C.3       1 GLC5        0.0000 
      2 CA         -3.2170    8.1370  -14.2780 C.3       3 GLL5        0.0000 
      3 CA         -4.8400    4.0480  -13.5770 C.3       2 GLP5        0.0000 
      4 CA         -1.9105    7.6005  -13.0125 C.3       1 GLC5        0.0000 
      5 CA         -0.6040    7.0640  -11.7470 C.3       2 GLP5        0.0000 
      6 CA         -3.5770   11.7435  -13.4915 C.3       1 GLC5        0.0000 
      7 CA         -4.3020   10.1250  -13.0170 C.3       3 GLL5        0.0000 
      8 CA         -2.8520   13.3620  -13.9660 C.3       2 GLP5        0.0000 
      9 CA         -3.3865   10.7575  -11.6360 C.3       1 GLC5        0.0000 
     10 CA         -2.4710   11.3900  -10.2550 C.3       2 GLP5        0.0000 
     11 CA         -5.2925    6.0595  -13.5430 C.3       1 GLC5        0.0000 
     12 CA         -5.7450    8.0710  -13.5090 C.3       3 GLL5        0.0000 
     13 CA         -5.4180    9.3745  -10.7180 C.3       1 GLC5        0.0000 
     14 CA         -6.3750    8.3960  -12.1150 C.3       3 GLL5        0.0000 
     15 CA         -4.4610   10.3530   -9.3210 C.3       2 GLP5        0.0000 
     16 CA         -9.8005    7.7335  -12.8320 C.3       1 GLC5        0.0000 
     17 CA         -7.8640    8.0520  -11.8540 C.3       3 GLL5        0.0000 
     18 CA        -11.7370    7.4150  -13.8100 C.3       2 GLP5        0.0000 
     19 CA         -7.2470    5.4065  -12.3265 C.3       1 GLC5        0.0000 
     20 CA         -8.1210    6.8450  -10.9210 C.3       3 GLL5        0.0000 
     21 CA         -6.3730    3.9680  -13.7320 C.3       2 GLP5        0.0000 
     22 CA         -8.6120    7.1970   -7.5515 C.3       1 GLC5        0.0000 
     23 CA         -7.9950    7.1820   -9.4310 C.3       3 GLL5        0.0000 
     24 CA         -9.2290    7.2120   -5.6720 C.3       2 GLP5        0.0000 
     25 CA         -8.3995    9.0860   -8.9990 C.3       1 GLC5        0.0000 
     26 CA         -8.8040   10.9900   -8.5670 C.3       2 GLP5        0.0000 
     27 CA        -11.0215    7.7080  -10.7810 C.3       1 GLC5        0.0000 
     28 CA         -9.4760    6.1870  -11.2390 C.3       3 GLL5        0.0000 
     29 CA        -12.5670    9.2290  -10.3230 C.3       2 GLP5        0.0000 
     30 CA        -10.6065    6.8010  -12.5245 C.3       1 GLC5        0.0000 
     31 CA        -10.4155    5.4500   -8.6625 C.3       1 GLC5        0.0000 
     32 CA         -9.8180    4.8440  -10.5540 C.3       3 GLL5        0.0000 
     33 CA        -11.0130    6.0560   -6.7710 C.3       2 GLP5        0.0000 
     34 CA        -11.2270    5.6725  -12.6205 C.3       1 GLC5        0.0000 
     35 CA        -10.7170    3.9300  -11.4310 C.3       3 GLL5        0.0000 
     36 CA        -10.2860    4.1020  -13.6035 C.3       1 GLC5        0.0000 
     37 CA         -9.8550    4.2740  -15.7760 C.3       2 GLP5        0.0000 
     38 CA        -11.8505    5.1270   -8.3100 C.3       1 GLC5        0.0000 
     39 CA        -12.6880    4.1980   -9.8490 C.3       3 GLL5        0.0000 
     40 CA        -13.8960    5.1210   -8.2185 C.3       1 GLC5        0.0000 
     41 CA        -15.1040    6.0440   -6.5880 C.3       2 GLP5        0.0000 
     42 CA        -14.0830    5.1225  -11.1520 C.3       1 GLC5        0.0000 
     43 CA        -15.4780    6.0470  -12.4550 C.3       2 GLP5        0.0000 
     44 CA        -13.8810    1.2950  -10.9135 C.3       1 GLC5        0.0000 
     45 CA        -13.0710    2.9420  -11.8250 C.3       3 GLL5        0.0000 
     46 CA        -14.6910   -0.3520  -10.0020 C.3       2 GLP5        0.0000 
     47 CA        -14.2745    4.4945  -12.1400 C.3       1 GLC5        0.0000 
     48 CA        -11.2915    3.3420  -14.4960 C.3       1 GLC5        0.0000 
     49 CA        -12.7280    2.4100  -13.2160 C.3       3 GLL5        0.0000 
     50 CA        -14.3140    0.6575  -11.8935 C.3       1 GLC5        0.0000 
     51 CA        -13.9370    1.6670  -13.7850 C.3       3 GLL5        0.0000 
     52 CA        -13.9190    4.5150  -15.5610 C.3       1 GLC5        0.0000 
     53 CA        -14.0590    2.4960  -16.1460 C.3       3 GLL5        0.0000 
     54 CA        -13.7790    6.5340  -14.9760 C.3       2 GLP5        0.0000 
     55 CA        -15.9555    2.5070  -15.0005 C.3       1 GLC5        0.0000 
     56 CA        -17.8520    2.5180  -13.8550 C.3       2 GLP5        0.0000 
     57 CA        -13.8025    1.7860  -17.9980 C.3       1 GLC5        0.0000 
     58 CA        -13.5460    1.0760  -19.8500 C.3       2 GLP5        0.0000 
     59 CA        -13.3785    3.9465  -17.5300 C.3       1 GLC5        0.0000 
     60 CA        -12.6980    5.3970  -18.9140 C.3       2 GLP5        0.0000 
     61 CA        -14.0715    0.5720  -17.7370 C.3       1 GLC5        0.0000 
     62 CA        -14.5970    0.0680  -15.6240 C.3       3 GLL5        0.0000 
     63 CA        -12.3763   -0.0518  -15.7175 C.3       1 GLC5        0.0000 
     64 CA        -13.7800    1.3030  -15.2420 C.3       3 GLL5        0.0000 
     65 CA        -10.5640   -0.7890  -16.0020 C.3       2 GLP5        0.0000 
     66 CA        -15.9289    0.9203  -14.2399 C.3       1 GLC5        0.0000 
     67 CA        -17.6300    1.0640  -13.4110 C.3       2 GLP5        0.0000 
@<TRIPOS>BOND
@<TRIPOS>SUBSTRUCTURE
     1 GLC5        1 GROUP        1 X    GLC  0     ROOT GLC X 6
     2 GLP5        3 GROUP        1 Y    GLP  0     ROOT GLP Y 13
     3 GLL5        2 GROUP        1 Z    GLL  0     ROOT GLL Z 20
@<TRIPOS>SET

