#    Name: 2wm4_VGJ_1_ligand
#    Modification time : Tue Mar 25 04:27:29 2014

@<TRIPOS>MOLECULE
2wm4_VGJ_1_ligand
   61    60     1     0     0
SMALL
NO_CHARGES


@<TRIPOS>ATOM
      1 O1         -1.3730    8.7620  -15.8010 O.co2     1 VGJ1429     0.0000 
      2 C15        -1.9290    8.9120  -14.6650 C.2       1 VGJ1429     0.0000 
      3 O2         -1.4060    9.6840  -13.8180 O.co2     1 VGJ1429     0.0000 
      4 C14        -3.2170    8.1370  -14.2780 C.3       1 VGJ1429     0.0000 
      5 C13        -4.5280    8.9400  -13.9680 C.3       1 VGJ1429     0.0000 
      6 C16        -4.3020   10.1250  -13.0170 C.3       1 VGJ1429     0.0000 
      7 C12        -5.7450    8.0710  -13.5090 C.3       1 VGJ1429     0.0000 
      8 C11        -6.3750    8.3960  -12.1150 C.3       1 VGJ1429     0.0000 
      9 C10        -7.8640    8.0520  -11.8540 C.3       1 VGJ1429     0.0000 
     10 C9         -8.1210    6.8450  -10.9210 C.3       1 VGJ1429     0.0000 
     11 C17        -7.9950    7.1820   -9.4310 C.3       1 VGJ1429     0.0000 
     12 C8         -9.4760    6.1870  -11.2390 C.3       1 VGJ1429     0.0000 
     13 C7         -9.8180    4.8440  -10.5540 C.3       1 VGJ1429     0.0000 
     14 C6        -10.7170    3.9300  -11.4310 C.3       1 VGJ1429     0.0000 
     15 C5        -11.9700    3.2780  -10.8110 C.3       1 VGJ1429     0.0000 
     16 C18       -12.6880    4.1980   -9.8490 C.3       1 VGJ1429     0.0000 
     17 C4        -13.0710    2.9420  -11.8250 C.3       1 VGJ1429     0.0000 
     18 C3        -12.7280    2.4100  -13.2160 C.3       1 VGJ1429     0.0000 
     19 C2        -13.9370    1.6670  -13.7850 C.3       1 VGJ1429     0.0000 
     20 C1        -13.7800    1.3030  -15.2420 C.3       1 VGJ1429     0.0000 
     21 C19       -14.0590    2.4960  -16.1460 C.3       1 VGJ1429     0.0000 
     22 C20       -14.5970    0.0680  -15.6240 C.3       1 VGJ1429     0.0000 
     23 H          -2.9896    7.4987  -13.3868 H         1 VGJ1429     0.0000 
     24 H          -3.4490    7.4087  -15.0959 H         1 VGJ1429     0.0000 
     25 H          -4.8460    9.4003  -14.9559 H         1 VGJ1429     0.0000 
     26 H          -5.4315    7.0061  -13.5092 H         1 VGJ1429     0.0000 
     27 H          -6.5411    8.1538  -14.2783 H         1 VGJ1429     0.0000 
     28 H          -6.2276    9.4903  -11.9200 H         1 VGJ1429     0.0000 
     29 H          -5.7542    7.8870  -11.3322 H         1 VGJ1429     0.0000 
     30 H          -8.3548    7.8579  -12.8258 H         1 VGJ1429     0.0000 
     31 H          -8.3596    8.9423  -11.4243 H         1 VGJ1429     0.0000 
     32 H          -7.3415    6.0870  -11.1564 H         1 VGJ1429     0.0000 
     33 H          -9.5459    6.0408  -12.3463 H         1 VGJ1429     0.0000 
     34 H         -10.2884    6.9178  -10.9975 H         1 VGJ1429     0.0000 
     35 H         -10.3351    5.0457   -9.6125 H         1 VGJ1429     0.0000 
     36 H          -8.8900    4.3121  -10.3292 H         1 VGJ1429     0.0000 
     37 H         -10.0699    3.1156  -11.8555 H         1 VGJ1429     0.0000 
     38 H         -11.0370    4.5224  -12.3304 H         1 VGJ1429     0.0000 
     39 H         -11.7127    2.3798  -10.2893 H         1 VGJ1429     0.0000 
     40 H         -13.7182    3.8655  -11.9525 H         1 VGJ1429     0.0000 
     41 H         -13.7818    2.2063  -11.3337 H         1 VGJ1429     0.0000 
     42 H         -11.8894    1.7298  -13.1443 H         1 VGJ1429     0.0000 
     43 H         -12.4767    3.2379  -13.8659 H         1 VGJ1429     0.0000 
     44 H         -14.8302    2.2981  -13.6592 H         1 VGJ1429     0.0000 
     45 H         -14.0991    0.7523  -13.1942 H         1 VGJ1429     0.0000 
     46 H         -12.7034    1.0334  -15.3937 H         1 VGJ1429     0.0000 
     47 H          -3.9411    9.8281  -12.1329 H         1 VGJ1429     0.0000 
     48 H          -3.6507   10.7840  -13.3931 H         1 VGJ1429     0.0000 
     49 H          -5.1503   10.6223  -12.8352 H         1 VGJ1429     0.0000 
     50 H          -7.0802    7.5145   -9.2015 H         1 VGJ1429     0.0000 
     51 H          -8.6428    7.8920   -9.1547 H         1 VGJ1429     0.0000 
     52 H          -8.1704    6.3845   -8.8537 H         1 VGJ1429     0.0000 
     53 H         -12.0998    4.4721   -9.0882 H         1 VGJ1429     0.0000 
     54 H         -12.9968    5.0367  -10.2976 H         1 VGJ1429     0.0000 
     55 H         -13.4964    3.7630   -9.4525 H         1 VGJ1429     0.0000 
     56 H         -13.4353    3.2556  -15.9616 H         1 VGJ1429     0.0000 
     57 H         -13.9572    2.2613  -17.1127 H         1 VGJ1429     0.0000 
     58 H         -14.9886    2.8441  -16.0252 H         1 VGJ1429     0.0000 
     59 H         -14.4898   -0.1638  -16.5908 H         1 VGJ1429     0.0000 
     60 H         -14.3222   -0.7365  -15.0975 H         1 VGJ1429     0.0000 
     61 H         -15.5743    0.2045  -15.4620 H         1 VGJ1429     0.0000 
@<TRIPOS>BOND
     1    2    1 ar   
     2    3    2 ar   
     3    4    2 1    
     4    5    4 1    
     5   23    4 1    
     6   24    4 1    
     7    6    5 1    
     8    7    5 1    
     9   25    5 1    
    10   47    6 1    
    11   48    6 1    
    12   49    6 1    
    13    8    7 1    
    14   26    7 1    
    15   27    7 1    
    16    9    8 1    
    17   28    8 1    
    18   29    8 1    
    19   10    9 1    
    20   30    9 1    
    21   31    9 1    
    22   11   10 1    
    23   12   10 1    
    24   32   10 1    
    25   50   11 1    
    26   51   11 1    
    27   52   11 1    
    28   13   12 1    
    29   33   12 1    
    30   34   12 1    
    31   14   13 1    
    32   35   13 1    
    33   36   13 1    
    34   15   14 1    
    35   37   14 1    
    36   38   14 1    
    37   16   15 1    
    38   17   15 1    
    39   39   15 1    
    40   53   16 1    
    41   54   16 1    
    42   55   16 1    
    43   18   17 1    
    44   40   17 1    
    45   41   17 1    
    46   19   18 1    
    47   42   18 1    
    48   43   18 1    
    49   20   19 1    
    50   44   19 1    
    51   45   19 1    
    52   21   20 1    
    53   22   20 1    
    54   46   20 1    
    55   56   21 1    
    56   57   21 1    
    57   58   21 1    
    58   59   22 1    
    59   60   22 1    
    60   61   22 1    
@<TRIPOS>SUBSTRUCTURE
     1 VGJ1429     1 GROUP   
@<TRIPOS>SET

