#    Name: 4E5G_5_CAVITY_N1_6.mol2
#    Modification time : Mon Mar 10 16:07:09 2014

@<TRIPOS>MOLECULE
4E5G_5_CAVITY_N1_6.mol2
  107     0     7     0     0
SMALL
NO_CHARGES


@<TRIPOS>ATOM
      1 CA         -2.8156  -11.7215   16.2523 C.3       6 GLY6        0.0000 
      2 CA         -1.5084  -12.4537   16.1802 C.3       6 GLY6        0.0000 
      3 OD1        -0.2012  -13.1859   16.1081 O.3       3 ASP3        0.0000 
      4 CA         -4.7488  -12.1735   16.9996 C.3       6 GLY6        0.0000 
      5 CA         -3.4416  -12.9056   16.9275 C.3       6 GLY6        0.0000 
      6 OD1        -2.1345  -13.6378   16.8554 O.3       3 ASP3        0.0000 
      7 OD1        -0.8273  -14.3700   16.7834 O.3       3 ASP3        0.0000 
      8 DU          0.4799  -15.1022   16.7113 H         7 CUB7        0.0000 
      9 DU         -5.3748  -13.3576   17.6748 H         7 CUB7        0.0000 
     10 DU         -4.0677  -14.0898   17.6027 H         7 CUB7        0.0000 
     11 DU         -2.7605  -14.8220   17.5306 H         7 CUB7        0.0000 
     12 DU         -1.4533  -15.5541   17.4586 H         7 CUB7        0.0000 
     13 OG         -0.1461  -16.2863   17.3865 O.2       1 SER1        0.0000 
     14 CZ          1.1610  -17.0185   17.3144 C.ar      5 PHE5        0.0000 
     15 DU         -6.0009  -14.5417   18.3500 H         7 CUB7        0.0000 
     16 DU         -3.3865  -16.0061   18.2059 H         7 CUB7        0.0000 
     17 OG         -2.0793  -16.7383   18.1338 O.2       1 SER1        0.0000 
     18 OG         -0.7722  -17.4704   18.0617 O.2       1 SER1        0.0000 
     19 CZ          0.5350  -18.2026   17.9897 C.ar      5 PHE5        0.0000 
     20 OD1        -6.6269  -15.7258   19.0252 O.3       3 ASP3        0.0000 
     21 DU         -5.3197  -16.4580   18.9532 H         7 CUB7        0.0000 
     22 OD1        -4.0126  -17.1902   18.8811 O.3       3 ASP3        0.0000 
     23 OD1        -2.7054  -17.9224   18.8090 O.3       3 ASP3        0.0000 
     24 NZ         -5.9458  -17.6422   19.6284 N.2       4 LYS4        0.0000 
     25 OG         -0.7171  -20.5709   19.3401 O.2       1 SER1        0.0000 
     26 NZ         -6.5718  -18.8263   20.3036 N.2       4 LYS4        0.0000 
     27 CA         -1.3431  -21.7550   20.0153 C.3       6 GLY6        0.0000 
     28 NZ         -5.8907  -20.7426   20.9067 N.2       4 LYS4        0.0000 
     29 NZ         -6.5167  -21.9267   21.5820 N.2       4 LYS4        0.0000 
     30 CA         -3.2021  -12.2799   14.9148 C.3       6 GLY6        0.0000 
     31 CA         -1.8949  -13.0120   14.8427 C.3       6 GLY6        0.0000 
     32 CA         -0.5877  -13.7442   14.7706 C.3       6 GLY6        0.0000 
     33 OD1        -0.6252  -17.5379   21.4119 O.3       3 ASP3        0.0000 
     34 DU         -5.1728  -16.5255   22.3034 H         7 CUB7        0.0000 
     35 OD1        -3.8656  -17.2576   22.2313 O.3       3 ASP3        0.0000 
     36 N          -7.1060  -16.9774   23.0506 N.2       2 ALA2        0.0000 
     37 DU         -5.7988  -17.7096   22.9786 H         7 CUB7        0.0000 
     38 OD1        -4.4917  -18.4418   22.9065 O.3       3 ASP3        0.0000 
     39 OD1        -3.1845  -19.1740   22.8344 O.3       3 ASP3        0.0000 
     40 N          -7.7320  -18.1615   23.7259 N.2       2 ALA2        0.0000 
     41 CA         -6.4249  -18.8937   23.6538 C.3       6 GLY6        0.0000 
     42 CZ         -5.1177  -19.6259   23.5817 C.ar      5 PHE5        0.0000 
     43 CA         -2.4291  -11.1632   17.5898 C.3       6 GLY6        0.0000 
     44 CA         -4.3623  -11.6151   18.3371 C.3       6 GLY6        0.0000 
     45 CA         -3.0552  -12.3473   18.2650 C.3       6 GLY6        0.0000 
     46 OD1        -1.7480  -13.0795   18.1929 O.3       3 ASP3        0.0000 
     47 OD1        -0.4408  -13.8117   18.1208 O.3       3 ASP3        0.0000 
     48 OD1         0.8664  -14.5438   18.0488 O.3       3 ASP3        0.0000 
     49 DU         -3.6812  -13.5314   18.9402 H         7 CUB7        0.0000 
     50 DU         -2.3740  -14.2636   18.8681 H         7 CUB7        0.0000 
     51 DU         -1.0668  -14.9958   18.7961 H         7 CUB7        0.0000 
     52 DU          0.2403  -15.7280   18.7240 H         7 CUB7        0.0000 
     53 DU         -1.6929  -16.1799   19.4713 H         7 CUB7        0.0000 
     54 DU         -0.3857  -16.9121   19.3992 H         7 CUB7        0.0000 
     55 DU          0.9215  -17.6443   19.3271 H         7 CUB7        0.0000 
     56 DU         -4.9333  -15.8997   20.2906 H         7 CUB7        0.0000 
     57 DU         -3.6261  -16.6319   20.2186 H         7 CUB7        0.0000 
     58 OD1        -2.3189  -17.3640   20.1465 O.3       3 ASP3        0.0000 
     59 DU         -1.0117  -18.0962   20.0744 H         7 CUB7        0.0000 
     60 DU          0.2955  -18.8284   20.0024 H         7 CUB7        0.0000 
     61 DU         -5.5593  -17.0838   20.9659 H         7 CUB7        0.0000 
     62 OD1        -4.2521  -17.8160   20.8938 O.3       3 ASP3        0.0000 
     63 OD1        -2.9449  -18.5482   20.8217 O.3       3 ASP3        0.0000 
     64 OD1        -1.6377  -19.2804   20.7497 O.3       3 ASP3        0.0000 
     65 OD1        -0.3306  -20.0125   20.6776 O.3       3 ASP3        0.0000 
     66 N          -7.4925  -17.5358   21.7132 N.2       2 ALA2        0.0000 
     67 NZ         -6.1853  -18.2679   21.6411 N.2       4 LYS4        0.0000 
     68 OD1        -4.8781  -19.0001   21.5690 O.3       3 ASP3        0.0000 
     69 CA         -3.5710  -19.7323   21.4969 C.3       6 GLY6        0.0000 
     70 CA         -2.2638  -20.4645   21.4249 C.3       6 GLY6        0.0000 
     71 NZ         -6.8113  -19.4521   22.3163 N.2       4 LYS4        0.0000 
     72 CA         -5.5042  -20.1843   22.2442 C.3       6 GLY6        0.0000 
     73 CA         -4.1970  -20.9164   22.1722 C.3       6 GLY6        0.0000 
     74 NZ         -7.4374  -20.6362   22.9915 N.2       4 LYS4        0.0000 
     75 N          -3.2939  -15.3129   12.8429 N.2       2 ALA2        0.0000 
     76 N          -1.9867  -16.0450   12.7709 N.2       2 ALA2        0.0000 
     77 CA         -3.9199  -16.4970   13.5182 C.3       6 GLY6        0.0000 
     78 CZ         -6.7195  -16.4191   24.3881 C.ar      5 PHE5        0.0000 
     79 OD1        -4.1052  -17.8834   24.2440 O.3       3 ASP3        0.0000 
     80 OD1        -2.6687  -11.7890   19.6025 O.3       3 ASP3        0.0000 
     81 CA         -5.1353  -12.7318   15.6621 C.3       6 GLY6        0.0000 
     82 CA         -3.8281  -13.4640   15.5900 C.3       6 GLY6        0.0000 
     83 DU         -2.5209  -14.1962   15.5179 H         7 CUB7        0.0000 
     84 DU         -1.2138  -14.9284   15.4459 H         7 CUB7        0.0000 
     85 O           0.0934  -15.6605   15.3738 O.2       2 ALA2        0.0000 
     86 O          -5.7613  -13.9159   16.3373 O.2       2 ALA2        0.0000 
     87 DU         -4.4542  -14.6481   16.2652 H         7 CUB7        0.0000 
     88 DU         -3.1470  -15.3803   16.1932 H         7 CUB7        0.0000 
     89 OG         -1.8398  -16.1125   16.1211 O.2       1 SER1        0.0000 
     90 OG         -0.5326  -16.8447   16.0490 O.2       1 SER1        0.0000 
     91 CZ          0.7746  -17.5768   15.9769 C.ar      5 PHE5        0.0000 
     92 O          -6.3874  -15.1001   17.0125 O.2       2 ALA2        0.0000 
     93 N          -5.0802  -15.8322   16.9404 N.2       2 ALA2        0.0000 
     94 OG         -3.7730  -16.5644   16.8684 O.2       1 SER1        0.0000 
     95 OD1        -7.0134  -16.2842   17.6877 O.3       3 ASP3        0.0000 
     96 OD1        -5.7062  -17.0164   17.6157 O.3       3 ASP3        0.0000 
     97 OD1        -4.3990  -17.7486   17.5436 O.3       3 ASP3        0.0000 
     98 CA         -4.2146  -14.0223   14.2525 C.3       6 GLY6        0.0000 
     99 CA         -2.9074  -14.7545   14.1804 C.3       6 GLY6        0.0000 
    100 O          -1.6002  -15.4867   14.1084 O.2       2 ALA2        0.0000 
    101 O          -0.2931  -16.2189   14.0363 O.2       2 ALA2        0.0000 
    102 CA         -4.8406  -15.2065   14.9277 C.3       6 GLY6        0.0000 
    103 CA         -3.5335  -15.9386   14.8557 C.3       6 GLY6        0.0000 
    104 OG         -2.2263  -16.6708   14.7836 O.2       1 SER1        0.0000 
    105 OG         -0.9191  -17.4030   14.7115 O.2       1 SER1        0.0000 
    106 CA         -5.4667  -16.3906   15.6030 C.3       6 GLY6        0.0000 
    107 OG         -4.1595  -17.1228   15.5309 O.2       1 SER1        0.0000 
@<TRIPOS>BOND
@<TRIPOS>SUBSTRUCTURE
     1 SER1       13 GROUP   
     2 ALA2       36 GROUP   
     3 ASP3        3 GROUP   
     4 LYS4       24 GROUP   
     5 PHE5       14 GROUP   
     6 GLY6        1 GROUP   
     7 CUB7        8 GROUP   
@<TRIPOS>SET

