#    Name: 4e5g_XI7_5_INTS_M
#    Modification time : Mon Apr  7 23:18:33 2014

@<TRIPOS>MOLECULE
4e5g_XI7_5_INTS_M
   17     0     9     0     0
SMALL
NO_CHARGES


@<TRIPOS>ATOM
      1 Zn         -7.7430  -17.9760   17.6165 Zn        3 ZIC7        0.0000 
      2 Zn         -7.7280  -16.9880   18.4580 Zn        9 ZIL7        0.0000 
      3 Zn         -7.7580  -18.9640   16.7750 Zn        6 ZIP7        0.0000 
      4 Zn         -8.6890  -16.8245   18.9100 Zn        3 ZIC7        0.0000 
      5 Zn         -9.6500  -16.6610   19.3620 Zn        6 ZIP7        0.0000 
      6 NZ         -4.9565  -19.2540   17.7235 N.4       2 LYC4        0.0000 
      7 NZ         -5.8590  -18.1980   16.9930 N.4       8 LYL4        0.0000 
      8 NZ         -4.0540  -20.3100   18.4540 N.4       5 LYP4        0.0000 
      9 Zn         -6.8085  -18.5810   16.8840 Zn        3 ZIC7        0.0000 
     10 Zn         -5.8590  -18.1980   16.9930 Zn        9 ZIL7        0.0000 
     11 N          -4.9565  -19.2540   17.7235 N.am      1 SEC2        0.0000 
     12 N          -5.8590  -18.1980   16.9930 N.am      7 SEL2        0.0000 
     13 N          -4.0540  -20.3100   18.4540 N.am      4 SEP2        0.0000 
     14 NZ         -4.1435  -18.7355   18.2480 N.4       2 LYC4        0.0000 
     15 NZ         -4.2330  -17.1610   18.0420 N.4       8 LYL4        0.0000 
     16 Zn         -8.9260  -16.0040   19.8375 Zn        3 ZIC7        0.0000 
     17 Zn         -8.2020  -15.3470   20.3130 Zn        9 ZIL7        0.0000 
@<TRIPOS>BOND
@<TRIPOS>SUBSTRUCTURE
     1 SEC2       11 GROUP        1 X    SEC  0     ROOT SEC X 2
     2 LYC4        6 GROUP        1 X    LYC  0     **** LYC X 4
     3 ZIC7        1 GROUP        1 X    ZIC  0     **** ZIC X 5
     4 SEP2       13 GROUP        1 Y    SEP  0     ROOT SEP Y 9
     5 LYP4        8 GROUP        1 Y    LYP  0     **** LYP Y 11
     6 ZIP7        3 GROUP        1 Y    ZIP  0     **** ZIP Y 12
     7 SEL2       12 GROUP        1 Z    SEL  0     ROOT SEL Z 16
     8 LYL4        7 GROUP        1 Z    LYL  0     **** LYL Z 18
     9 ZIL7        2 GROUP        1 Z    ZIL  0     **** ZIL Z 19
@<TRIPOS>SET

