#    Name: 4e5g_XI7_5_ligand
#    Modification time : Mon Apr  7 23:18:33 2014

@<TRIPOS>MOLECULE
4e5g_XI7_5_ligand
   21    21     1     0     0
SMALL
NO_CHARGES


@<TRIPOS>ATOM
      1 O8         -7.7280  -16.9880   18.4580 O.2       1 XI7305      0.0000 
      2 C9         -6.4440  -16.7230   18.6640 C.2       1 XI7305      0.0000 
      3 C10        -5.4490  -17.3990   17.8540 C.2       1 XI7305      0.0000 
      4 O11        -5.8590  -18.1980   16.9930 O.co2     1 XI7305      0.0000 
      5 O10        -4.2330  -17.1610   18.0420 O.co2     1 XI7305      0.0000 
      6 C8         -6.0400  -15.8510   19.6000 C.3       1 XI7305      0.0000 
      7 C7         -7.0100  -15.1380   20.4480 C.2       1 XI7305      0.0000 
      8 C1         -6.5230  -14.1650   21.4840 C.ar      1 XI7305      0.0000 
      9 C6         -7.4420  -13.4840   22.2910 C.ar      1 XI7305      0.0000 
     10 C5         -6.9820  -12.5770   23.2520 C.ar      1 XI7305      0.0000 
     11 C4         -5.6130  -12.3480   23.4160 C.ar      1 XI7305      0.0000 
     12 C3         -4.6930  -13.0300   22.6150 C.ar      1 XI7305      0.0000 
     13 C2         -5.1480  -13.9360   21.6480 C.ar      1 XI7305      0.0000 
     14 O14        -8.2020  -15.3470   20.3130 O.2       1 XI7305      0.0000 
     15 H          -5.3554  -15.0326   19.1389 H         1 XI7305      0.0000 
     16 H          -5.2798  -16.3441   20.3281 H         1 XI7305      0.0000 
     17 H          -8.4455  -13.6489   22.1784 H         1 XI7305      0.0000 
     18 H          -7.6586  -12.0741   23.8434 H         1 XI7305      0.0000 
     19 H          -5.2847  -11.6816   24.1219 H         1 XI7305      0.0000 
     20 H          -3.6885  -12.8690   22.7333 H         1 XI7305      0.0000 
     21 H          -4.4738  -14.4349   21.0564 H         1 XI7305      0.0000 
@<TRIPOS>BOND
     1    2    1 2    
     2    3    2 1    
     3    6    2 1    
     4    4    3 ar   
     5    5    3 ar   
     6    7    6 1    
     7   15    6 1    
     8   16    6 1    
     9    8    7 1    
    10   14    7 2    
    11    9    8 ar   
    12   13    8 ar   
    13   10    9 ar   
    14   17    9 1    
    15   11   10 ar   
    16   18   10 1    
    17   12   11 ar   
    18   19   11 1    
    19   13   12 ar   
    20   20   12 1    
    21   21   13 1    
@<TRIPOS>SUBSTRUCTURE
     1 XI7305      1 GROUP   
@<TRIPOS>SET

