#    Name: 3r7i_X9I_1_INTS_M
#    Modification time : Tue Mar 25 11:08:06 2014

@<TRIPOS>MOLECULE
3r7i_X9I_1_INTS_M
   41     0     9     0     0
SMALL
NO_CHARGES


@<TRIPOS>ATOM
      1 O          93.6500   82.4040  -52.9645 O.2       1 ALC1        0.0000 
      2 O          93.7320   81.7890  -51.6320 O.2       7 ALL1        0.0000 
      3 O          93.5680   83.0190  -54.2970 O.2       4 ALP1        0.0000 
      4 O          89.9770   82.7320  -49.3290 O.2       1 ALC1        0.0000 
      5 O          90.9340   81.8800  -48.5380 O.2       7 ALL1        0.0000 
      6 O          89.0200   83.5840  -50.1200 O.2       4 ALP1        0.0000 
      7 N          91.0820   83.4960  -51.6475 N.am      2 SEC2        0.0000 
      8 N          92.0890   83.1530  -50.7040 N.am      8 SEL2        0.0000 
      9 N          90.0750   83.8390  -52.5910 N.am      5 SEP2        0.0000 
     10 CA         91.2615   79.4465  -48.0740 C.3       3 GLC5        0.0000 
     11 CA         92.5170   80.8360  -46.9590 C.3       9 GLL5        0.0000 
     12 CA         90.0060   78.0570  -49.1890 C.3       6 GLP5        0.0000 
     13 CA         95.2665   81.6000  -45.4445 C.3       3 GLC5        0.0000 
     14 CA         93.8400   80.3990  -46.6890 C.3       9 GLL5        0.0000 
     15 CA         96.6930   82.8010  -44.2000 C.3       6 GLP5        0.0000 
     16 CA         89.8630   79.9045  -48.4580 C.3       3 GLC5        0.0000 
     17 CA         89.7200   81.7520  -47.7270 C.3       9 GLL5        0.0000 
     18 CA         88.1635   82.2295  -42.8485 C.3       3 GLC5        0.0000 
     19 CA         89.3030   83.2150  -44.2170 C.3       9 GLL5        0.0000 
     20 CA         87.0240   81.2440  -41.4800 C.3       6 GLP5        0.0000 
     21 CA         91.2500   85.1565  -44.1425 C.3       3 GLC5        0.0000 
     22 CA         89.3030   84.6290  -44.4620 C.3       9 GLL5        0.0000 
     23 CA         93.1970   85.6840  -43.8230 C.3       6 GLP5        0.0000 
     24 CA         91.0355   86.0540  -45.0505 C.3       3 GLC5        0.0000 
     25 CA         89.4520   85.0920  -45.8250 C.3       9 GLL5        0.0000 
     26 CA         92.6190   87.0160  -44.2760 C.3       6 GLP5        0.0000 
     27 CA         91.7250   84.6900  -46.5640 C.3       3 GLC5        0.0000 
     28 CA         89.5920   84.1580  -46.8880 C.3       9 GLL5        0.0000 
     29 CA         93.8580   85.2220  -46.2400 C.3       6 GLP5        0.0000 
     30 CA         88.0560   84.4195  -48.2650 C.3       3 GLC5        0.0000 
     31 CA         86.5200   84.6810  -49.6420 C.3       6 GLP5        0.0000 
     32 CA         95.9490   82.1840  -47.4030 C.3       3 GLC5        0.0000 
     33 CA         94.5640   81.1620  -48.9120 C.3       9 GLL5        0.0000 
     34 CA         97.1770   83.5110  -46.5220 C.3       6 GLP5        0.0000 
     35 CA         94.7695   82.8948  -49.7930 C.3       3 GLC5        0.0000 
     36 CA         95.6360   84.4020  -50.5230 C.3       6 GLP5        0.0000 
     37 CA         92.1690   80.3039  -49.8680 C.3       3 GLC5        0.0000 
     38 CA         92.1670   81.4600  -48.2370 C.3       9 GLL5        0.0000 
     39 CA         91.3030   79.1840  -51.0860 C.3       6 GLP5        0.0000 
     40 CA         87.6423   81.8872  -47.4587 C.3       3 GLC5        0.0000 
     41 CA         85.6310   81.5220  -47.7450 C.3       6 GLP5        0.0000 
@<TRIPOS>BOND
@<TRIPOS>SUBSTRUCTURE
     1 ALC1        1 GROUP        1 X    ALC  0     ROOT ALC X 1
     2 SEC2        7 GROUP        1 X    SEC  0     **** SEC X 2
     3 GLC5       10 GROUP        1 X    GLC  0     **** GLC X 6
     4 ALP1        3 GROUP        1 Y    ALP  0     ROOT ALP Y 8
     5 SEP2        9 GROUP        1 Y    SEP  0     **** SEP Y 9
     6 GLP5       12 GROUP        1 Y    GLP  0     **** GLP Y 13
     7 ALL1        2 GROUP        1 Z    ALL  0     ROOT ALL Z 15
     8 SEL2        8 GROUP        1 Z    SEL  0     **** SEL Z 16
     9 GLL5       11 GROUP        1 Z    GLL  0     **** GLL Z 20
@<TRIPOS>SET

