#    Name: 3r7i_X9I_1_ligand
#    Modification time : Tue Mar 25 11:08:06 2014

@<TRIPOS>MOLECULE
3r7i_X9I_1_ligand
   35    36     1     0     0
SMALL
NO_CHARGES


@<TRIPOS>ATOM
      1 C1         94.8780   80.5520  -47.6560 C.ar      1 X9I505      0.0000 
      2 N1         96.1730   80.1160  -47.3920 N.pl3     1 X9I505      0.0000 
      3 O1         96.4830   79.5410  -46.2230 O.2       1 X9I505      0.0000 
      4 C2         94.5640   81.1620  -48.9120 C.ar      1 X9I505      0.0000 
      5 N2         93.7320   81.7890  -51.6320 N.am      1 X9I505      0.0000 
      6 O2         97.1470   80.2600  -48.3020 O.2       1 X9I505      0.0000 
      7 C3         93.2420   81.6130  -49.2140 C.ar      1 X9I505      0.0000 
      8 N3         90.9340   81.8800  -48.5380 N.pl3     1 X9I505      0.0000 
      9 O3         92.0890   83.1530  -50.7040 O.2       1 X9I505      0.0000 
     10 C4         92.1670   81.4600  -48.2370 C.ar      1 X9I505      0.0000 
     11 C5         92.5170   80.8360  -46.9590 C.ar      1 X9I505      0.0000 
     12 C6         93.8400   80.3990  -46.6890 C.ar      1 X9I505      0.0000 
     13 C7         93.0270   82.2130  -50.5560 C.2       1 X9I505      0.0000 
     14 C8         89.7200   81.7520  -47.7270 C.3       1 X9I505      0.0000 
     15 C9         89.5870   82.7530  -46.6180 C.ar      1 X9I505      0.0000 
     16 C10        89.4420   82.2920  -45.2820 C.ar      1 X9I505      0.0000 
     17 C11        89.3030   83.2150  -44.2170 C.ar      1 X9I505      0.0000 
     18 C12        89.3030   84.6290  -44.4620 C.ar      1 X9I505      0.0000 
     19 C13        89.4520   85.0920  -45.8250 C.ar      1 X9I505      0.0000 
     20 C14        89.5920   84.1580  -46.8880 C.ar      1 X9I505      0.0000 
     21 C15        89.1480   85.5290  -43.3080 C.2       1 X9I505      0.0000 
     22 O16        89.0240   85.0410  -42.1530 O.co2     1 X9I505      0.0000 
     23 O17        89.1450   86.7580  -43.5240 O.co2     1 X9I505      0.0000 
     24 H          95.3059   81.2778  -49.6114 H         1 X9I505      0.0000 
     25 H          94.4199   81.0845  -51.4576 H         1 X9I505      0.0000 
     26 H          93.5021   82.2180  -52.5056 H         1 X9I505      0.0000 
     27 H          90.7631   82.3795  -49.4821 H         1 X9I505      0.0000 
     28 H          91.7807   80.7218  -46.2609 H         1 X9I505      0.0000 
     29 H          94.0567   79.9659  -45.7854 H         1 X9I505      0.0000 
     30 H          89.6674   80.7271  -47.2852 H         1 X9I505      0.0000 
     31 H          88.8183   81.8296  -48.3822 H         1 X9I505      0.0000 
     32 H          89.4382   81.2884  -45.0905 H         1 X9I505      0.0000 
     33 H          89.2007   82.8772  -43.2566 H         1 X9I505      0.0000 
     34 H          89.4552   86.0903  -46.0116 H         1 X9I505      0.0000 
     35 H          89.6964   84.4864  -47.8460 H         1 X9I505      0.0000 
@<TRIPOS>BOND
     1    2    1 1    
     2    4    1 ar   
     3   12    1 ar   
     4    3    2 2    
     5    6    2 2    
     6    7    4 ar   
     7   24    4 1    
     8   13    5 am   
     9   25    5 1    
    10   26    5 1    
    11   10    7 ar   
    12   13    7 1    
    13   10    8 1    
    14   14    8 1    
    15   27    8 1    
    16   13    9 2    
    17   11   10 ar   
    18   12   11 ar   
    19   28   11 1    
    20   29   12 1    
    21   15   14 1    
    22   30   14 1    
    23   31   14 1    
    24   16   15 ar   
    25   20   15 ar   
    26   17   16 ar   
    27   32   16 1    
    28   18   17 ar   
    29   33   17 1    
    30   19   18 ar   
    31   21   18 1    
    32   20   19 ar   
    33   34   19 1    
    34   35   20 1    
    35   22   21 ar   
    36   23   21 ar   
@<TRIPOS>SUBSTRUCTURE
     1 X9I505      1 GROUP   
@<TRIPOS>SET

