#    Name: 2aqu_DR7_1_INTS_M
#    Modification time : Mon Mar 24 19:35:44 2014

@<TRIPOS>MOLECULE
2aqu_DR7_1_INTS_M
  124     0     9     0     0
SMALL
NO_CHARGES


@<TRIPOS>ATOM
      1 CA        -45.2075   68.6670   35.9575 C.3       3 GLC5        0.0000 
      2 CA        -45.0210   66.8550   34.7460 C.3       9 GLL5        0.0000 
      3 CA        -45.3940   70.4790   37.1690 C.3       6 GLP5        0.0000 
      4 N         -43.9565   70.3735   34.6945 N.am      2 SEC2        0.0000 
      5 N         -43.6320   68.9740   34.0370 N.am      8 SEL2        0.0000 
      6 N         -44.2810   71.7730   35.3520 N.am      5 SEP2        0.0000 
      7 O         -41.4510   66.4970   33.0100 O.2       1 ALC1        0.0000 
      8 O         -41.8900   67.7960   32.8730 O.2       7 ALL1        0.0000 
      9 O         -41.0120   65.1980   33.1470 O.2       4 ALP1        0.0000 
     10 CA        -42.3495   70.9135   33.0615 C.3       3 GLC5        0.0000 
     11 CA        -41.4390   69.1780   32.8030 C.3       9 GLL5        0.0000 
     12 CA        -43.2600   72.6490   33.3200 C.3       6 GLP5        0.0000 
     13 CA        -38.2010   67.7470   35.3510 C.3       3 GLC5        0.0000 
     14 CA        -39.3070   68.0220   33.5070 C.3       9 GLL5        0.0000 
     15 CA        -37.0950   67.4720   37.1950 C.3       6 GLP5        0.0000 
     16 CA        -39.5820   66.4235   32.0915 C.3       3 GLC5        0.0000 
     17 CA        -39.8570   64.8250   30.6760 C.3       6 GLP5        0.0000 
     18 CA        -38.0740   66.8505   32.6475 C.3       3 GLC5        0.0000 
     19 CA        -36.8410   65.6790   31.7880 C.3       6 GLP5        0.0000 
     20 CA        -40.6865   70.4460   36.8305 C.3       3 GLC5        0.0000 
     21 CA        -40.4890   69.7990   34.7420 C.3       9 GLL5        0.0000 
     22 CA        -40.8840   71.0930   38.9190 C.3       6 GLP5        0.0000 
     23 CA        -38.7350   70.4980   35.5920 C.3       3 GLC5        0.0000 
     24 CA        -36.9810   71.1970   36.4420 C.3       6 GLP5        0.0000 
     25 CA        -38.1260   70.8015   34.6345 C.3       3 GLC5        0.0000 
     26 CA        -39.2710   70.4060   32.8270 C.3       9 GLL5        0.0000 
     27 CA        -37.9785   71.5255   32.2860 C.3       3 GLC5        0.0000 
     28 CA        -36.6860   72.6450   31.7450 C.3       6 GLP5        0.0000 
     29 O         -43.0270   70.4890   30.7650 O.2       1 ALC1        0.0000 
     30 O         -41.7600   69.6930   30.3810 O.2       7 ALL1        0.0000 
     31 O         -44.2940   71.2850   31.1490 O.2       4 ALP1        0.0000 
     32 CA        -41.4760   64.6495   28.2135 C.3       3 GLC5        0.0000 
     33 CA        -43.2470   65.4620   29.3210 C.3       9 GLL5        0.0000 
     34 CA        -39.7050   63.8370   27.1060 C.3       6 GLP5        0.0000 
     35 CA        -45.9845   69.1060   29.6510 C.3       3 GLC5        0.0000 
     36 CA        -44.2820   67.7960   30.2760 C.3       9 GLL5        0.0000 
     37 CA        -47.6870   70.4160   29.0260 C.3       6 GLP5        0.0000 
     38 N         -42.4045   73.4450   29.2960 N.am      2 SEC2        0.0000 
     39 N         -42.5190   72.0820   28.8920 N.am      8 SEL2        0.0000 
     40 N         -42.2900   74.8080   29.7000 N.am      5 SEP2        0.0000 
     41 O         -43.0540   73.0180   28.0445 O.2       1 ALC1        0.0000 
     42 O         -42.5190   72.0820   28.8920 O.2       7 ALL1        0.0000 
     43 O         -43.5890   73.9540   27.1970 O.2       4 ALP1        0.0000 
     44 O         -43.1865   72.0190   27.6380 O.2       1 ALC1        0.0000 
     45 O         -43.8540   71.9560   26.3840 O.2       4 ALP1        0.0000 
     46 CA        -40.6305   73.8360   27.6270 C.3       3 GLC5        0.0000 
     47 CA        -40.5340   71.9140   28.4970 C.3       9 GLL5        0.0000 
     48 CA        -40.7270   75.7580   26.7570 C.3       6 GLP5        0.0000 
     49 O         -39.4595   72.4555   26.0785 O.2       1 ALC1        0.0000 
     50 O         -39.3260   70.9700   26.4690 O.2       7 ALL1        0.0000 
     51 O         -39.5930   73.9410   25.6880 O.2       4 ALP1        0.0000 
     52 CA        -40.2475   72.0275   23.9370 C.3       3 GLC5        0.0000 
     53 CA        -39.1960   70.2620   24.3010 C.3       9 GLL5        0.0000 
     54 CA        -41.2990   73.7930   23.5730 C.3       6 GLP5        0.0000 
     55 CA        -40.6205   70.4525   20.0695 C.3       3 GLC5        0.0000 
     56 CA        -40.1780   70.0150   22.0300 C.3       9 GLL5        0.0000 
     57 CA        -41.0630   70.8900   18.1090 C.3       6 GLP5        0.0000 
     58 CA        -41.7025   67.0955   24.2305 C.3       3 GLC5        0.0000 
     59 CA        -41.3840   69.1140   23.9010 C.3       9 GLL5        0.0000 
     60 CA        -42.0210   65.0770   24.5600 C.3       6 GLP5        0.0000 
     61 CA        -42.7915   68.0205   22.8190 C.3       3 GLC5        0.0000 
     62 CA        -44.1990   66.9270   21.7370 C.3       6 GLP5        0.0000 
     63 CA        -43.0300   68.5705   24.5160 C.3       3 GLC5        0.0000 
     64 CA        -44.6760   68.0270   25.1310 C.3       6 GLP5        0.0000 
     65 CA        -38.9715   66.4230   24.1265 C.3       3 GLC5        0.0000 
     66 CA        -39.3070   68.0320   23.1910 C.3       9 GLL5        0.0000 
     67 CA        -38.6360   64.8140   25.0620 C.3       6 GLP5        0.0000 
     68 CA        -39.6445   66.9150   21.4775 C.3       3 GLC5        0.0000 
     69 CA        -39.9820   65.7980   19.7640 C.3       6 GLP5        0.0000 
     70 O         -36.9340   69.2665   23.7570 O.2       1 ALC1        0.0000 
     71 O         -37.8290   70.4700   23.8110 O.2       7 ALL1        0.0000 
     72 O         -36.0390   68.0630   23.7030 O.2       4 ALP1        0.0000 
     73 N         -38.9705   73.3660   22.2200 N.am      2 SEC2        0.0000 
     74 N         -37.9470   72.4590   22.8800 N.am      8 SEL2        0.0000 
     75 N         -39.9940   74.2730   21.5600 N.am      5 SEP2        0.0000 
     76 CA        -36.8455   73.5395   21.0060 C.3       3 GLC5        0.0000 
     77 CA        -35.3470   72.5670   22.3190 C.3       9 GLL5        0.0000 
     78 CA        -38.3440   74.5120   19.6930 C.3       6 GLP5        0.0000 
     79 CA        -36.7000   74.4735   27.2750 C.3       3 GLC5        0.0000 
     80 CA        -36.2500   72.3820   26.7990 C.3       9 GLL5        0.0000 
     81 CA        -37.1500   76.5650   27.7510 C.3       6 GLP5        0.0000 
     82 CA        -35.7325   69.6390   29.6735 C.3       3 GLC5        0.0000 
     83 CA        -36.3230   70.1990   27.7600 C.3       9 GLL5        0.0000 
     84 CA        -35.1420   69.0790   31.5870 C.3       6 GLP5        0.0000 
     85 CA        -33.3000   69.4205   27.8650 C.3       3 GLC5        0.0000 
     86 CA        -35.2010   69.8820   27.0650 C.3       9 GLL5        0.0000 
     87 CA        -31.3990   68.9590   28.6650 C.3       6 GLP5        0.0000 
     88 CA        -35.3130   68.1685   28.4620 C.3       3 GLC5        0.0000 
     89 CA        -35.4250   66.4550   29.8590 C.3       6 GLP5        0.0000 
     90 CA        -40.8338   71.6274   33.3759 C.3       3 GLC5        0.0000 
     91 CA        -41.8800   73.2730   33.2980 C.3       6 GLP5        0.0000 
     92 CA        -45.0373   66.5625   28.3667 C.3       3 GLC5        0.0000 
     93 CA        -43.4340   67.8420   29.1750 C.3       9 GLL5        0.0000 
     94 CA        -46.8970   65.8730   27.7920 C.3       6 GLP5        0.0000 
     95 CA        -43.8864   67.8069   26.9616 C.3       3 GLC5        0.0000 
     96 CA        -42.9210   66.6620   28.7080 C.3       9 GLL5        0.0000 
     97 CA        -43.9225   63.5535   29.0968 C.3       3 GLC5        0.0000 
     98 CA        -44.1690   61.6600   28.3180 C.3       6 GLP5        0.0000 
     99 CA        -45.2865   65.6600   28.8338 C.3       3 GLC5        0.0000 
    100 CA        -41.7257   65.2860   30.1991 C.3       3 GLC5        0.0000 
    101 CA        -44.1050   65.4320   30.4300 C.3       9 GLL5        0.0000 
    102 CA        -45.6745   66.5353   29.1893 C.3       3 GLC5        0.0000 
    103 CA        -44.6220   66.5990   30.8970 C.3       9 GLL5        0.0000 
    104 CA        -41.6495   71.1276   23.4260 C.3       3 GLC5        0.0000 
    105 CA        -42.5610   72.8580   23.5520 C.3       6 GLP5        0.0000 
    106 CA        -37.0810   72.1087   29.9000 C.3       3 GLC5        0.0000 
    107 CA        -38.0910   71.6970   28.4680 C.3       9 GLL5        0.0000 
    108 CA        -35.1112   72.8050   28.1827 C.3       3 GLC5        0.0000 
    109 CA        -36.8610   71.4480   27.6420 C.3       9 GLL5        0.0000 
    110 CA        -33.6670   73.6950   29.1450 C.3       6 GLP5        0.0000 
    111 CA        -34.2468   72.5540   27.6532 C.3       3 GLC5        0.0000 
    112 CA        -35.0870   72.0460   26.0900 C.3       9 GLL5        0.0000 
    113 CA        -35.9655   68.4673   26.8218 C.3       3 GLC5        0.0000 
    114 CA        -36.1690   66.8940   26.2310 C.3       6 GLP5        0.0000 
    115 CA        -32.3695   70.3715   27.0622 C.3       3 GLC5        0.0000 
    116 CA        -34.5660   70.7800   26.2330 C.3       9 GLL5        0.0000 
    117 CA        -30.7370   70.2090   28.2060 C.3       6 GLP5        0.0000 
    118 CA        -31.9395   68.7965   27.1058 C.3       3 GLC5        0.0000 
    119 CA        -33.0370   68.9280   25.8390 C.3       9 GLL5        0.0000 
    120 CA        -33.6135   67.4370   24.1597 C.3       3 GLC5        0.0000 
    121 CA        -34.7470   66.2400   22.7730 C.3       6 GLP5        0.0000 
    122 CA        -34.8442   68.3125   26.0549 C.3       3 GLC5        0.0000 
    123 CA        -31.0577   69.9818   26.2508 C.3       3 GLC5        0.0000 
    124 CA        -31.1850   69.0980   24.4140 C.3       9 GLL5        0.0000 
@<TRIPOS>BOND
@<TRIPOS>SUBSTRUCTURE
     1 ALC1        7 GROUP        1 X    ALC  0     ROOT ALC X 1
     2 SEC2        4 GROUP        1 X    SEC  0     **** SEC X 2
     3 GLC5        1 GROUP        1 X    GLC  0     **** GLC X 6
     4 ALP1        9 GROUP        1 Y    ALP  0     ROOT ALP Y 8
     5 SEP2        6 GROUP        1 Y    SEP  0     **** SEP Y 9
     6 GLP5        3 GROUP        1 Y    GLP  0     **** GLP Y 13
     7 ALL1        8 GROUP        1 Z    ALL  0     ROOT ALL Z 15
     8 SEL2        5 GROUP        1 Z    SEL  0     **** SEL Z 16
     9 GLL5        2 GROUP        1 Z    GLL  0     **** GLL Z 20
@<TRIPOS>SET

