#    Name: 2aqu_DR7_1_ligand
#    Modification time : Mon Mar 24 19:35:44 2014

@<TRIPOS>MOLECULE
2aqu_DR7_1_ligand
  104   106     1     0     0
SMALL
NO_CHARGES


@<TRIPOS>ATOM
      1 CAA       -45.0210   66.8550   34.7460 C.3       1 DR7300      0.0000 
      2 OBI       -43.8670   66.7520   33.9760 O.3       1 DR7300      0.0000 
      3 CBK       -43.1830   67.9500   33.6470 C.2       1 DR7300      0.0000 
      4 OAI       -43.6320   68.9740   34.0370 O.2       1 DR7300      0.0000 
      5 N         -41.8900   67.7960   32.8730 N.am      1 DR7300      0.0000 
      6 CA        -41.4390   69.1780   32.8030 C.3       1 DR7300      0.0000 
      7 CB        -40.1190   69.3160   33.4190 C.3       1 DR7300      0.0000 
      8 CAE       -39.3070   68.0220   33.5070 C.3       1 DR7300      0.0000 
      9 CG2       -40.4890   69.7990   34.7420 C.3       1 DR7300      0.0000 
     10 CG1       -39.2710   70.4060   32.8270 C.3       1 DR7300      0.0000 
     11 C         -41.0630   68.9260   31.1660 C.2       1 DR7300      0.0000 
     12 O         -40.2980   68.1220   30.8040 O.2       1 DR7300      0.0000 
     13 NBG       -41.7600   69.6930   30.3810 N.am      1 DR7300      0.0000 
     14 CBT       -41.7920   69.7640   28.9370 C.3       1 DR7300      0.0000 
     15 CBA       -43.1110   69.1810   28.5780 C.3       1 DR7300      0.0000 
     16 CBO       -43.4340   67.8420   29.1750 C.ar      1 DR7300      0.0000 
     17 CAT       -42.9210   66.6620   28.7080 C.ar      1 DR7300      0.0000 
     18 CAP       -43.2470   65.4620   29.3210 C.ar      1 DR7300      0.0000 
     19 CAN       -44.1050   65.4320   30.4300 C.ar      1 DR7300      0.0000 
     20 CAQ       -44.6220   66.5990   30.8970 C.ar      1 DR7300      0.0000 
     21 CAU       -44.2820   67.7960   30.2760 C.ar      1 DR7300      0.0000 
     22 CBS       -41.7090   71.1310   28.3130 C.3       1 DR7300      0.0000 
     23 OAM       -42.5190   72.0820   28.8920 O.3       1 DR7300      0.0000 
     24 CBC       -40.5340   71.9140   28.4970 C.3       1 DR7300      0.0000 
     25 NBW       -39.3690   71.4510   27.7980 N.4       1 DR7300      0.0000 
     26 NBH       -39.3260   70.9700   26.4690 N.am      1 DR7300      0.0000 
     27 CBN       -39.1420   69.8930   25.7680 C.2       1 DR7300      0.0000 
     28 OAL       -38.9260   68.8230   26.1450 O.2       1 DR7300      0.0000 
     29 CBV       -39.1960   70.2620   24.3010 C.3       1 DR7300      0.0000 
     30 CBY       -40.0060   69.3460   23.3680 C.3       1 DR7300      0.0000 
     31 CAH       -40.1780   70.0150   22.0300 C.3       1 DR7300      0.0000 
     32 CAF       -41.3840   69.1140   23.9010 C.3       1 DR7300      0.0000 
     33 CAG       -39.3070   68.0320   23.1910 C.3       1 DR7300      0.0000 
     34 NBF       -37.8290   70.4700   23.8110 N.am      1 DR7300      0.0000 
     35 CBL       -37.3500   71.4990   23.1780 C.2       1 DR7300      0.0000 
     36 OAJ       -37.9470   72.4590   22.8800 O.2       1 DR7300      0.0000 
     37 OBJ       -35.9760   71.4210   22.8170 O.3       1 DR7300      0.0000 
     38 CAB       -35.3470   72.5670   22.3190 C.3       1 DR7300      0.0000 
     39 CBB       -38.0910   71.6970   28.4680 C.3       1 DR7300      0.0000 
     40 CBP       -36.8610   71.4480   27.6420 C.ar      1 DR7300      0.0000 
     41 CAW       -36.2500   72.3820   26.7990 C.ar      1 DR7300      0.0000 
     42 CAY       -35.0870   72.0460   26.0900 C.ar      1 DR7300      0.0000 
     43 CAX       -36.3230   70.1990   27.7600 C.ar      1 DR7300      0.0000 
     44 CAZ       -35.2010   69.8820   27.0650 C.ar      1 DR7300      0.0000 
     45 CBQ       -34.5660   70.7800   26.2330 C.ar      1 DR7300      0.0000 
     46 CBR       -33.4380   70.2880   25.6040 C.ar      1 DR7300      0.0000 
     47 CAV       -33.0370   68.9280   25.8390 C.ar      1 DR7300      0.0000 
     48 CAR       -31.9230   68.3400   25.2540 C.ar      1 DR7300      0.0000 
     49 CAO       -31.1850   69.0980   24.4140 C.ar      1 DR7300      0.0000 
     50 CAS       -31.5720   70.4110   24.1770 C.ar      1 DR7300      0.0000 
     51 NBD       -32.6590   70.9930   24.7430 N.ar      1 DR7300      0.0000 
     52 H         -41.5447   67.0651   32.5702 H         1 DR7300      0.0000 
     53 H         -42.0915   69.8515   32.8222 H         1 DR7300      0.0000 
     54 H         -42.4527   70.4238   30.8414 H         1 DR7300      0.0000 
     55 H         -41.0358   69.1195   28.5068 H         1 DR7300      0.0000 
     56 H         -43.1856   69.1009   27.4626 H         1 DR7300      0.0000 
     57 H         -43.9206   69.9021   28.8619 H         1 DR7300      0.0000 
     58 H         -42.2839   66.6573   27.8911 H         1 DR7300      0.0000 
     59 H         -42.8570   64.5758   28.9620 H         1 DR7300      0.0000 
     60 H         -44.3270   64.5321   30.8685 H         1 DR7300      0.0000 
     61 H         -45.2622   66.6119   31.7041 H         1 DR7300      0.0000 
     62 H         -44.6756   68.6873   30.6480 H         1 DR7300      0.0000 
     63 H         -41.9284   71.0919   27.2487 H         1 DR7300      0.0000 
     64 H         -40.2985   71.9908   29.5998 H         1 DR7300      0.0000 
     65 H         -40.7421   72.9851   28.2018 H         1 DR7300      0.0000 
     66 H         -39.4493   70.1744   28.3550 H         1 DR7300      0.0000 
     67 H         -39.5386   71.9145   25.7557 H         1 DR7300      0.0000 
     68 H         -39.6995   71.2804   24.2539 H         1 DR7300      0.0000 
     69 H         -37.1807   69.6213   24.0357 H         1 DR7300      0.0000 
     70 H         -38.0231   71.0712   29.3948 H         1 DR7300      0.0000 
     71 H         -38.0557   72.7535   28.8392 H         1 DR7300      0.0000 
     72 H         -36.6545   73.3216   26.6970 H         1 DR7300      0.0000 
     73 H         -34.6446   72.7360   25.4826 H         1 DR7300      0.0000 
     74 H         -36.7715   69.4989   28.3779 H         1 DR7300      0.0000 
     75 H         -34.7926   68.9157   27.1585 H         1 DR7300      0.0000 
     76 H         -33.6318   68.3641   26.4920 H         1 DR7300      0.0000 
     77 H         -31.6863   67.3715   25.4623 H         1 DR7300      0.0000 
     78 H         -30.3472   68.7255   23.9488 H         1 DR7300      0.0000 
     79 H         -30.9733   70.9816   23.5119 H         1 DR7300      0.0000 
     80 H         -44.8384   67.2767   35.6342 H         1 DR7300      0.0000 
     81 H         -45.7196   67.4110   34.2956 H         1 DR7300      0.0000 
     82 H         -45.4292   65.9598   34.9249 H         1 DR7300      0.0000 
     83 H         -38.4153   68.1714   33.9342 H         1 DR7300      0.0000 
     84 H         -39.7775   67.3243   34.0472 H         1 DR7300      0.0000 
     85 H         -39.1370   67.6281   32.6037 H         1 DR7300      0.0000 
     86 H         -39.7135   69.7841   35.3731 H         1 DR7300      0.0000 
     87 H         -40.8253   70.7403   34.7131 H         1 DR7300      0.0000 
     88 H         -41.2113   69.2421   35.1521 H         1 DR7300      0.0000 
     89 H         -38.3783   70.4660   33.2736 H         1 DR7300      0.0000 
     90 H         -39.1019   70.2572   31.8527 H         1 DR7300      0.0000 
     91 H         -39.7040   71.3030   32.9157 H         1 DR7300      0.0000 
     92 H         -39.2984   70.2032   21.5930 H         1 DR7300      0.0000 
     93 H         -40.7048   69.4483   21.3964 H         1 DR7300      0.0000 
     94 H         -40.6581   70.8885   22.1105 H         1 DR7300      0.0000 
     95 H         -41.3656   68.6805   24.8020 H         1 DR7300      0.0000 
     96 H         -41.8937   69.9689   23.9974 H         1 DR7300      0.0000 
     97 H         -41.9192   68.5197   23.3007 H         1 DR7300      0.0000 
     98 H         -38.3981   68.1459   22.7898 H         1 DR7300      0.0000 
     99 H         -39.1853   67.5558   24.0619 H         1 DR7300      0.0000 
    100 H         -39.8179   67.4176   22.5898 H         1 DR7300      0.0000 
    101 H         -34.3875   72.3963   22.0948 H         1 DR7300      0.0000 
    102 H         -35.7880   72.9002   21.4856 H         1 DR7300      0.0000 
    103 H         -35.3645   73.3172   22.9800 H         1 DR7300      0.0000 
    104 H         -43.1636   72.3446   28.1740 H         1 DR7300      0.0000 
@<TRIPOS>BOND
     1    2    1 1    
     2   80    1 1    
     3   81    1 1    
     4   82    1 1    
     5    3    2 1    
     6    4    3 2    
     7    5    3 am   
     8    6    5 1    
     9   52    5 1    
    10    7    6 1    
    11   11    6 1    
    12   53    6 1    
    13    8    7 1    
    14    9    7 1    
    15   10    7 1    
    16   83    8 1    
    17   84    8 1    
    18   85    8 1    
    19   86    9 1    
    20   87    9 1    
    21   88    9 1    
    22   89   10 1    
    23   90   10 1    
    24   91   10 1    
    25   12   11 2    
    26   13   11 am   
    27   14   13 1    
    28   54   13 1    
    29   15   14 1    
    30   22   14 1    
    31   55   14 1    
    32   16   15 1    
    33   56   15 1    
    34   57   15 1    
    35   17   16 ar   
    36   21   16 ar   
    37   18   17 ar   
    38   58   17 1    
    39   19   18 ar   
    40   59   18 1    
    41   20   19 ar   
    42   60   19 1    
    43   21   20 ar   
    44   61   20 1    
    45   62   21 1    
    46   23   22 1    
    47   24   22 1    
    48   63   22 1    
    49  104   23 1    
    50   25   24 1    
    51   64   24 1    
    52   65   24 1    
    53   26   25 1    
    54   39   25 1    
    55   66   25 1    
    56   27   26 am   
    57   67   26 1    
    58   28   27 2    
    59   29   27 1    
    60   30   29 1    
    61   34   29 1    
    62   68   29 1    
    63   31   30 1    
    64   32   30 1    
    65   33   30 1    
    66   92   31 1    
    67   93   31 1    
    68   94   31 1    
    69   95   32 1    
    70   96   32 1    
    71   97   32 1    
    72   98   33 1    
    73   99   33 1    
    74  100   33 1    
    75   35   34 am   
    76   69   34 1    
    77   36   35 2    
    78   37   35 1    
    79   38   37 1    
    80  101   38 1    
    81  102   38 1    
    82  103   38 1    
    83   40   39 1    
    84   70   39 1    
    85   71   39 1    
    86   41   40 ar   
    87   43   40 ar   
    88   42   41 ar   
    89   72   41 1    
    90   45   42 ar   
    91   73   42 1    
    92   44   43 ar   
    93   74   43 1    
    94   45   44 ar   
    95   75   44 1    
    96   46   45 1    
    97   47   46 ar   
    98   51   46 ar   
    99   48   47 ar   
   100   76   47 1    
   101   49   48 ar   
   102   77   48 1    
   103   50   49 ar   
   104   78   49 1    
   105   51   50 ar   
   106   79   50 1    
@<TRIPOS>SUBSTRUCTURE
     1 DR7300      1 GROUP   
@<TRIPOS>SET

