#    Name: 2pey_DAT_1_INTS_M
#    Modification time : Mon Mar 24 18:55:18 2014

@<TRIPOS>MOLECULE
2pey_DAT_1_INTS_M
   62     0    12     0     0
SMALL
NO_CHARGES


@<TRIPOS>ATOM
      1 NZ         13.3795   -3.4505   21.9395 N.4       3 LYC4        0.0000 
      2 NZ         12.1720   -4.8480   22.4920 N.4      11 LYL4        0.0000 
      3 NZ         14.5870   -2.0530   21.3870 N.4       7 LYP4        0.0000 
      4 N          12.7615   -4.7780   23.7145 N.am      2 SEC2        0.0000 
      5 N          12.1720   -4.8480   22.4920 N.am     10 SEL2        0.0000 
      6 N          13.3510   -4.7080   24.9370 N.am      6 SEP2        0.0000 
      7 NZ         13.2935   -2.2025   21.9835 N.4       3 LYC4        0.0000 
      8 NZ         12.0000   -2.3520   22.5800 N.4      11 LYL4        0.0000 
      9 N          11.2880   -1.5380   23.6615 N.am      2 SEC2        0.0000 
     10 N          12.0000   -2.3520   22.5800 N.am     10 SEL2        0.0000 
     11 N          10.5760   -0.7240   24.7430 N.am      6 SEP2        0.0000 
     12 N          11.0605   -1.3135   22.2965 N.am      2 SEC2        0.0000 
     13 N          10.1210   -0.2750   22.0130 N.am      6 SEP2        0.0000 
     14 N          13.2935   -2.2025   21.9835 N.am      2 SEC2        0.0000 
     15 N          14.5870   -2.0530   21.3870 N.am      6 SEP2        0.0000 
     16 N           9.6290   -2.7010   20.4440 N.am      2 SEC2        0.0000 
     17 N          10.4720   -3.6370   21.0190 N.am     10 SEL2        0.0000 
     18 N           8.7860   -1.7650   19.8690 N.am      6 SEP2        0.0000 
     19 N           9.6925   -4.0595   19.9290 N.am      2 SEC2        0.0000 
     20 N           8.9130   -4.4820   18.8390 N.am      6 SEP2        0.0000 
     21 N           6.9915   -2.3890   21.9520 N.am      2 SEC2        0.0000 
     22 N           7.8110   -2.9640   22.9460 N.am     10 SEL2        0.0000 
     23 N           6.1720   -1.8140   20.9580 N.am      6 SEP2        0.0000 
     24 N           6.6515   -2.8375   23.1965 N.am      2 SEC2        0.0000 
     25 N           5.4920   -2.7110   23.4470 N.am      6 SEP2        0.0000 
     26 N          10.3760   -2.2655   24.1220 N.am      2 SEC2        0.0000 
     27 N          10.1760   -3.8070   23.5010 N.am     10 SEL2        0.0000 
     28 CA         10.1580   -3.9605   25.9030 C.3       4 GLC5        0.0000 
     29 CA          8.0350   -3.4010   25.8910 C.3      12 GLL5        0.0000 
     30 CA         12.2810   -4.5200   25.9150 C.3       8 GLP5        0.0000 
     31 CA          8.6345   -1.8875   25.0860 C.3       4 GLC5        0.0000 
     32 CA          9.2340   -0.3740   24.2810 C.3       8 GLP5        0.0000 
     33 CA          8.3610   -3.6570   28.6770 C.3       4 GLC5        0.0000 
     34 CA          7.2790   -3.9590   27.0960 C.3      12 GLL5        0.0000 
     35 CA          9.4430   -3.3550   30.2580 C.3       8 GLP5        0.0000 
     36 CA          4.3170   -2.2130   25.4960 C.3       4 GLC5        0.0000 
     37 CA          4.9600   -3.3020   27.2860 C.3      12 GLL5        0.0000 
     38 CA          3.6740   -1.1240   23.7060 C.3       8 GLP5        0.0000 
     39 CA          7.6180   -2.9880   29.3130 C.3       4 GLC5        0.0000 
     40 CA          5.7930   -2.6210   28.3680 C.3      12 GLL5        0.0000 
     41 O           6.5010    3.2215   29.1355 O.2       1 ALC1        0.0000 
     42 O           5.3560    3.4010   27.8500 O.2       9 ALL1        0.0000 
     43 O           7.6460    3.0420   30.4210 O.2       5 ALP1        0.0000 
     44 CA          7.7510    0.2600   24.8775 C.3       4 GLC5        0.0000 
     45 CA          6.2680    0.8940   25.4740 C.3      12 GLL5        0.0000 
     46 CA          5.6435   -0.2575   24.2725 C.3       4 GLC5        0.0000 
     47 CA          5.0190   -1.4090   23.0710 C.3       8 GLP5        0.0000 
     48 CA          6.3745    2.2705   24.0455 C.3       4 GLC5        0.0000 
     49 CA          6.4810    3.6470   22.6170 C.3       8 GLP5        0.0000 
     50 CA          7.7100    2.4030   25.9505 C.3       4 GLC5        0.0000 
     51 CA          9.1520    3.9120   26.4270 C.3       8 GLP5        0.0000 
     52 CA          4.3150    1.2035   25.6550 C.3       4 GLC5        0.0000 
     53 CA          2.3620    1.5130   25.8360 C.3       8 GLP5        0.0000 
     54 CA          4.7385   -0.6595   25.6065 C.3       4 GLC5        0.0000 
     55 CA          5.8030   -0.1950   27.5070 C.3      12 GLL5        0.0000 
     56 CA          8.6135   -5.5245   26.7632 C.3       4 GLC5        0.0000 
     57 CA          9.5700   -7.3690   27.0330 C.3       8 GLP5        0.0000 
     58 CA          7.3380    2.4668   27.7762 C.3       4 GLC5        0.0000 
     59 CA          5.5270    1.0290   28.0920 C.3      12 GLL5        0.0000 
     60 CA          9.1000    3.3250   27.8470 C.3       8 GLP5        0.0000 
     61 CA          4.0258    1.1099   26.7211 C.3       4 GLC5        0.0000 
     62 CA          5.6250    2.1880   27.3190 C.3      12 GLL5        0.0000 
@<TRIPOS>BOND
@<TRIPOS>SUBSTRUCTURE
     1 ALC1       41 GROUP        1 X    ALC  0     ROOT ALC X 1
     2 SEC2        4 GROUP        1 X    SEC  0     **** SEC X 2
     3 LYC4        1 GROUP        1 X    LYC  0     **** LYC X 4
     4 GLC5       28 GROUP        1 X    GLC  0     **** GLC X 6
     5 ALP1       43 GROUP        1 Y    ALP  0     ROOT ALP Y 8
     6 SEP2        6 GROUP        1 Y    SEP  0     **** SEP Y 9
     7 LYP4        3 GROUP        1 Y    LYP  0     **** LYP Y 11
     8 GLP5       30 GROUP        1 Y    GLP  0     **** GLP Y 13
     9 ALL1       42 GROUP        1 Z    ALL  0     ROOT ALL Z 15
    10 SEL2        5 GROUP        1 Z    SEL  0     **** SEL Z 16
    11 LYL4        2 GROUP        1 Z    LYL  0     **** LYL Z 18
    12 GLL5       29 GROUP        1 Z    GLL  0     **** GLL Z 20
@<TRIPOS>SET

