#    Name: 2pey_DAT_1_ligand
#    Modification time : Mon Mar 24 18:55:18 2014

@<TRIPOS>MOLECULE
2pey_DAT_1_ligand
   38    40     1     0     0
SMALL
NO_CHARGES


@<TRIPOS>ATOM
      1 PB         11.2560   -3.6490   22.3130 P.3       1 DAT300      0.0000 
      2 O1B        12.1720   -4.8480   22.4920 O.co2     1 DAT300      0.0000 
      3 O2B        12.0000   -2.3520   22.5800 O.co2     1 DAT300      0.0000 
      4 O3B        10.4720   -3.6370   21.0190 O.co2     1 DAT300      0.0000 
      5 PA          8.6000   -4.1550   23.4090 P.3       1 DAT300      0.0000 
      6 O1A         7.8110   -2.9640   22.9460 O.co2     1 DAT300      0.0000 
      7 O2A         8.3530   -5.4890   22.7510 O.co2     1 DAT300      0.0000 
      8 O3A        10.1760   -3.8070   23.5010 O.3       1 DAT300      0.0000 
      9 O5'         8.3010   -4.4430   24.9570 O.3       1 DAT300      0.0000 
     10 C5'         8.0350   -3.4010   25.8910 C.3       1 DAT300      0.0000 
     11 C4'         7.2790   -3.9590   27.0960 C.3       1 DAT300      0.0000 
     12 O4'         7.1470   -2.9570   28.1000 O.3       1 DAT300      0.0000 
     13 C3'         5.8810   -4.3850   26.7460 C.3       1 DAT300      0.0000 
     14 O3'         5.6610   -5.5810   27.4820 O.3       1 DAT300      0.0000 
     15 C2'         4.9600   -3.3020   27.2860 C.3       1 DAT300      0.0000 
     16 C1'         5.7930   -2.6210   28.3680 C.3       1 DAT300      0.0000 
     17 N9          5.6230   -1.1360   28.4590 N.pl3     1 DAT300      0.0000 
     18 C8          5.2550   -0.5220   29.5930 C.2       1 DAT300      0.0000 
     19 N7          5.1800    0.7990   29.3860 N.2       1 DAT300      0.0000 
     20 C5          5.5270    1.0290   28.0920 C.ar      1 DAT300      0.0000 
     21 C6          5.6250    2.1880   27.3190 C.ar      1 DAT300      0.0000 
     22 N6          5.3560    3.4010   27.8500 N.pl3     1 DAT300      0.0000 
     23 N1          5.9960    2.0960   26.0180 N.ar      1 DAT300      0.0000 
     24 C2          6.2680    0.8940   25.4740 C.ar      1 DAT300      0.0000 
     25 N3          6.1680   -0.2330   26.1920 N.ar      1 DAT300      0.0000 
     26 C4          5.8030   -0.1950   27.5070 C.ar      1 DAT300      0.0000 
     27 H           7.4197   -2.6055   25.4510 H         1 DAT300      0.0000 
     28 H           8.9593   -2.9396   26.2622 H         1 DAT300      0.0000 
     29 H           7.8133   -4.8114   27.4798 H         1 DAT300      0.0000 
     30 H           5.7757   -4.4865   25.7274 H         1 DAT300      0.0000 
     31 H           4.0982   -3.7430   27.7212 H         1 DAT300      0.0000 
     32 H           4.7305   -2.6056   26.5185 H         1 DAT300      0.0000 
     33 H           5.4982   -3.0717   29.3274 H         1 DAT300      0.0000 
     34 H           5.0700   -0.9711   30.4409 H         1 DAT300      0.0000 
     35 H           4.9403    4.0691   27.2328 H         1 DAT300      0.0000 
     36 H           5.5964    3.5229   28.8130 H         1 DAT300      0.0000 
     37 H           6.5645    0.8423   24.4654 H         1 DAT300      0.0000 
     38 H           6.5405   -6.0568   27.4714 H         1 DAT300      0.0000 
@<TRIPOS>BOND
     1    2    1 ar   
     2    3    1 ar   
     3    4    1 ar   
     4    8    1 1    
     5    6    5 ar   
     6    7    5 ar   
     7    8    5 1    
     8    9    5 1    
     9   10    9 1    
    10   11   10 1    
    11   27   10 1    
    12   28   10 1    
    13   12   11 1    
    14   13   11 1    
    15   29   11 1    
    16   16   12 1    
    17   14   13 1    
    18   15   13 1    
    19   30   13 1    
    20   38   14 1    
    21   16   15 1    
    22   31   15 1    
    23   32   15 1    
    24   17   16 1    
    25   33   16 1    
    26   18   17 1    
    27   26   17 1    
    28   19   18 2    
    29   34   18 1    
    30   20   19 1    
    31   21   20 ar   
    32   26   20 ar   
    33   22   21 1    
    34   23   21 ar   
    35   35   22 1    
    36   36   22 1    
    37   24   23 ar   
    38   25   24 ar   
    39   37   24 1    
    40   26   25 ar   
@<TRIPOS>SUBSTRUCTURE
     1 DAT300      1 GROUP   
@<TRIPOS>SET

