#    Name: 3EIA_1_CAVITY_N1_6.mol2
#    Modification time : Mon Mar 10 13:25:05 2014

@<TRIPOS>MOLECULE
3EIA_1_CAVITY_N1_6.mol2
   55     0     6     0     0
SMALL
NO_CHARGES


@<TRIPOS>ATOM
      1 O         -16.3803   39.5391   16.4087 O.2       2 ALA2        0.0000 
      2 O         -18.0597   38.2987   16.7842 O.2       2 ALA2        0.0000 
      3 OG        -17.0975   38.4651   15.6457 O.2       1 SER1        0.0000 
      4 N         -16.1352   38.6316   14.5071 N.2       2 ALA2        0.0000 
      5 OG        -17.8146   37.3912   14.8826 O.2       1 SER1        0.0000 
      6 CZ        -16.5630   41.6469   16.5624 C.ar      5 PHE5        0.0000 
      7 CZ        -18.2424   40.4066   16.9379 C.ar      5 PHE5        0.0000 
      8 CA        -17.2802   40.5730   15.7993 C.3       6 GLY6        0.0000 
      9 CA        -16.3179   40.7394   14.6608 C.3       6 GLY6        0.0000 
     10 OG        -17.9973   39.4990   15.0363 O.2       1 SER1        0.0000 
     11 CZ        -17.0351   39.6654   13.8977 C.ar      5 PHE5        0.0000 
     12 OG        -19.6768   38.2586   15.4118 O.2       1 SER1        0.0000 
     13 OG        -18.7145   38.4251   14.2732 O.2       1 SER1        0.0000 
     14 OG        -21.3562   37.0183   15.7872 O.2       1 SER1        0.0000 
     15 OG        -20.3939   37.1847   14.6487 O.2       1 SER1        0.0000 
     16 CZ        -22.0733   35.9443   15.0242 C.ar      5 PHE5        0.0000 
     17 OG        -21.1111   36.1107   13.8856 O.2       1 SER1        0.0000 
     18 CZ        -16.7457   43.7548   16.7161 C.ar      5 PHE5        0.0000 
     19 CZ        -18.4251   42.5144   17.0916 C.ar      5 PHE5        0.0000 
     20 CA        -17.4629   42.6808   15.9530 C.3       6 GLY6        0.0000 
     21 CZ        -19.1423   41.4404   16.3285 C.ar      5 PHE5        0.0000 
     22 OG        -18.1800   41.6069   15.1900 O.2       1 SER1        0.0000 
     23 CZ        -17.2177   41.7733   14.0514 C.ar      5 PHE5        0.0000 
     24 CZ        -19.8594   40.3665   15.5654 C.ar      5 PHE5        0.0000 
     25 OG        -18.8972   40.5329   14.4269 O.2       1 SER1        0.0000 
     26 OG        -20.5766   39.2925   14.8024 O.2       1 SER1        0.0000 
     27 CZ        -23.2183   37.8857   16.3164 C.ar      5 PHE5        0.0000 
     28 CZ        -22.2560   38.0521   15.1778 C.ar      5 PHE5        0.0000 
     29 OG        -21.2938   38.2186   14.0393 O.2       1 SER1        0.0000 
     30 OG        -20.3315   38.3850   12.9007 O.2       1 SER1        0.0000 
     31 NZ        -23.9355   36.8118   15.5533 N.2       4 LYS4        0.0000 
     32 CA        -22.9732   36.9782   14.4148 C.3       6 GLY6        0.0000 
     33 CA        -22.0109   37.1446   13.2762 C.3       6 GLY6        0.0000 
     34 CA        -15.2490   47.1030   16.4943 C.3       6 GLY6        0.0000 
     35 CA        -15.9661   46.0290   15.7312 C.3       6 GLY6        0.0000 
     36 CA        -15.0039   46.1955   14.5927 C.3       6 GLY6        0.0000 
     37 CZ        -17.6456   44.7887   16.1067 C.ar      5 PHE5        0.0000 
     38 CA        -16.6833   44.9551   14.9682 C.3       6 GLY6        0.0000 
     39 CA        -15.7210   45.1215   13.8296 C.3       6 GLY6        0.0000 
     40 CA        -14.7587   45.2879   12.6910 C.3       6 GLY6        0.0000 
     41 OD1       -18.3627   43.7147   15.3436 O.3       3 ASP3        0.0000 
     42 CA        -17.4004   43.8811   14.2051 C.3       6 GLY6        0.0000 
     43 CZ        -16.4382   44.0475   13.0665 C.ar      5 PHE5        0.0000 
     44 O         -19.0799   42.6407   14.5806 O.2       2 ALA2        0.0000 
     45 CZ        -18.1176   42.8072   13.4420 C.ar      5 PHE5        0.0000 
     46 OG        -19.7970   41.5668   13.8175 O.2       1 SER1        0.0000 
     47 CZ        -24.1181   38.9196   15.7070 C.ar      5 PHE5        0.0000 
     48 OG        -23.1559   39.0860   14.5685 O.2       1 SER1        0.0000 
     49 OG        -22.1936   39.2524   13.4299 O.2       1 SER1        0.0000 
     50 NZ        -24.8353   37.8456   14.9439 N.2       4 LYS4        0.0000 
     51 CA        -23.8730   38.0121   13.8054 C.3       6 GLY6        0.0000 
     52 NZ        -16.1488   48.1369   15.8849 N.2       4 LYS4        0.0000 
     53 NZ        -15.9037   47.2293   13.9833 N.2       4 LYS4        0.0000 
     54 NZ        -17.5831   45.9890   14.3588 N.2       4 LYS4        0.0000 
     55 NZ        -16.6209   46.1554   13.2202 N.2       4 LYS4        0.0000 
@<TRIPOS>BOND
@<TRIPOS>SUBSTRUCTURE
     1 SER1        3 GROUP   
     2 ALA2        1 GROUP   
     3 ASP3       41 GROUP   
     4 LYS4       31 GROUP   
     5 PHE5        6 GROUP   
     6 GLY6        8 GROUP   
@<TRIPOS>SET

