#    Name: 3eia_PL6_1_INTS_M
#    Modification time : Tue Mar 25 01:57:25 2014

@<TRIPOS>MOLECULE
3eia_PL6_1_INTS_M
   95     0     9     0     0
SMALL
NO_CHARGES


@<TRIPOS>ATOM
      1 NZ        -21.4045   41.5385    9.2855 N.4       2 LYC4        0.0000 
      2 NZ        -21.5010   40.4210   10.3150 N.4       8 LYL4        0.0000 
      3 NZ        -22.3700   43.4580    8.1130 N.4       5 LYP4        0.0000 
      4 N         -21.2990   39.7385    9.2580 N.am      1 SEC2        0.0000 
      5 N         -21.5010   40.4210   10.3150 N.am      7 SEL2        0.0000 
      6 N         -21.0970   39.0560    8.2010 N.am      4 SEP2        0.0000 
      7 N         -21.4045   41.5385    9.2855 N.am      1 SEC2        0.0000 
      8 N         -21.3080   42.6560    8.2560 N.am      4 SEP2        0.0000 
      9 N         -20.2530   40.2800   10.9655 N.am      1 SEC2        0.0000 
     10 N         -19.0050   40.1390   11.6160 N.am      4 SEP2        0.0000 
     11 N         -25.0980   40.1270   10.2570 N.am      1 SEC2        0.0000 
     12 N         -23.7970   39.6780    9.8940 N.am      7 SEL2        0.0000 
     13 N         -26.3990   40.5760   10.6200 N.am      4 SEP2        0.0000 
     14 N         -23.8415   38.6635    9.2760 N.am      1 SEC2        0.0000 
     15 N         -23.8860   37.6490    8.6580 N.am      4 SEP2        0.0000 
     16 N         -22.4470   39.3670    9.0475 N.am      1 SEC2        0.0000 
     17 NZ        -23.4475   42.5745   10.1640 N.4       2 LYC4        0.0000 
     18 NZ        -23.5110   41.7550   11.3480 N.4       8 LYL4        0.0000 
     19 N         -24.6480   41.9005   12.1530 N.am      1 SEC2        0.0000 
     20 N         -23.5110   41.7550   11.3480 N.am      7 SEL2        0.0000 
     21 N         -25.7850   42.0460   12.9580 N.am      4 SEP2        0.0000 
     22 N         -23.4475   42.5745   10.1640 N.am      1 SEC2        0.0000 
     23 N         -23.3840   43.3940    8.9800 N.am      4 SEP2        0.0000 
     24 N         -22.3470   42.6065   11.7100 N.am      1 SEC2        0.0000 
     25 N         -21.1830   43.4580   12.0720 N.am      4 SEP2        0.0000 
     26 CA        -24.4530   39.3470   12.9020 C.3       3 GLC5        0.0000 
     27 CA        -22.4150   39.8650   13.4010 C.3       9 GLL5        0.0000 
     28 CA        -26.4910   38.8290   12.4030 C.3       6 GLP5        0.0000 
     29 CA        -23.3420   41.8065   13.6600 C.3       3 GLC5        0.0000 
     30 CA        -24.2690   43.7480   13.9190 C.3       6 GLP5        0.0000 
     31 CA        -22.2595   40.2550   15.4110 C.3       3 GLC5        0.0000 
     32 CA        -22.1040   40.6450   17.4210 C.3       6 GLP5        0.0000 
     33 CA        -25.1000   38.5925   13.6915 C.3       3 GLC5        0.0000 
     34 CA        -23.7090   38.3560   14.9800 C.3       9 GLL5        0.0000 
     35 N         -25.0335   36.8980   16.3555 N.am      1 SEC2        0.0000 
     36 N         -23.8440   37.4270   15.9110 N.am      7 SEL2        0.0000 
     37 N         -26.2230   36.3690   16.8000 N.am      4 SEP2        0.0000 
     38 CA        -23.3635   35.5050   14.8230 C.3       3 GLC5        0.0000 
     39 CA        -22.7500   36.8410   16.4140 C.3       9 GLL5        0.0000 
     40 CA        -23.9770   34.1690   13.2320 C.3       6 GLP5        0.0000 
     41 CA        -22.5680   37.4045   18.6075 C.3       3 GLC5        0.0000 
     42 CA        -22.8810   35.7820   17.4970 C.3       9 GLL5        0.0000 
     43 CA        -22.2550   39.0270   19.7180 C.3       6 GLP5        0.0000 
     44 CA        -23.6030   34.4195   18.3590 C.3       3 GLC5        0.0000 
     45 CA        -24.3250   33.0570   19.2210 C.3       6 GLP5        0.0000 
     46 CA        -21.4510   35.0890   18.5235 C.3       3 GLC5        0.0000 
     47 CA        -20.0210   34.3960   19.5500 C.3       6 GLP5        0.0000 
     48 CA        -21.7115   34.6380   16.6615 C.3       3 GLC5        0.0000 
     49 CA        -20.5420   33.4940   15.8260 C.3       6 GLP5        0.0000 
     50 N         -19.7285   36.5020   17.5710 N.am      1 SEC2        0.0000 
     51 N         -20.3890   36.5490   16.4270 N.am      7 SEL2        0.0000 
     52 N         -19.0680   36.4550   18.7150 N.am      4 SEP2        0.0000 
     53 N         -19.6365   35.8410   15.7940 N.am      1 SEC2        0.0000 
     54 N         -18.8840   35.1330   15.1610 N.am      4 SEP2        0.0000 
     55 CA        -15.7295   38.0610   15.0065 C.3       3 GLC5        0.0000 
     56 CA        -17.4940   38.9020   15.5530 C.3       9 GLL5        0.0000 
     57 CA        -13.9650   37.2200   14.4600 C.3       6 GLP5        0.0000 
     58 CA        -19.2030   39.4980   16.7595 C.3       3 GLC5        0.0000 
     59 CA        -20.9120   40.0940   17.9660 C.3       6 GLP5        0.0000 
     60 NZ        -15.6375   37.8520   18.2925 N.4       2 LYC4        0.0000 
     61 NZ        -17.3730   38.8230   18.0500 N.4       8 LYL4        0.0000 
     62 NZ        -14.4270   36.5900   19.3670 N.4       5 LYP4        0.0000 
     63 N         -18.2205   37.6390   18.3825 N.am      1 SEC2        0.0000 
     64 N         -17.3730   38.8230   18.0500 N.am      7 SEL2        0.0000 
     65 N         -16.5575   37.7900   18.8060 N.am      1 SEC2        0.0000 
     66 N         -15.7420   36.7570   19.5620 N.am      4 SEP2        0.0000 
     67 NZ        -14.6550   38.1755   17.7795 N.4       2 LYC4        0.0000 
     68 NZ        -15.5330   38.9470   17.0230 N.4       8 LYL4        0.0000 
     69 N         -14.5765   38.6620   16.1610 N.am      1 SEC2        0.0000 
     70 N         -15.5330   38.9470   17.0230 N.am      7 SEL2        0.0000 
     71 N         -13.6200   38.3770   15.2990 N.am      4 SEP2        0.0000 
     72 N         -15.6375   37.8520   18.2925 N.am      1 SEC2        0.0000 
     73 N         -14.6550   38.1755   17.7795 N.am      1 SEC2        0.0000 
     74 N         -13.7770   37.4040   18.5360 N.am      4 SEP2        0.0000 
     75 CA        -15.5750   40.9940   15.0395 C.3       3 GLC5        0.0000 
     76 CA        -17.2660   40.3030   14.8910 C.3       9 GLL5        0.0000 
     77 CA        -13.8840   41.6850   15.1880 C.3       6 GLP5        0.0000 
     78 CA        -16.9935   41.7505   17.6755 C.3       3 GLC5        0.0000 
     79 CA        -17.5460   41.5320   15.8530 C.3       9 GLL5        0.0000 
     80 CA        -16.4410   41.9690   19.4980 C.3       6 GLP5        0.0000 
     81 CA        -15.9575   42.3620   15.5615 C.3       3 GLC5        0.0000 
     82 CA        -14.3690   43.1920   15.2700 C.3       6 GLP5        0.0000 
     83 CA        -19.2290   40.8130   16.9095 C.3       3 GLC5        0.0000 
     84 NZ        -19.9190   44.7980   15.9195 N.4       2 LYC4        0.0000 
     85 NZ        -19.1200   43.1860   16.5480 N.4       8 LYL4        0.0000 
     86 NZ        -20.7180   46.4100   15.2910 N.4       5 LYP4        0.0000 
     87 N         -19.9130   43.5640   17.7005 N.am      1 SEC2        0.0000 
     88 N         -19.1200   43.1860   16.5480 N.am      7 SEL2        0.0000 
     89 N         -20.7060   43.9420   18.8530 N.am      4 SEP2        0.0000 
     90 N         -20.9445   41.7035   15.4845 N.am      1 SEC2        0.0000 
     91 N         -19.7220   41.9340   14.6930 N.am      7 SEL2        0.0000 
     92 N         -22.1670   41.4730   16.2760 N.am      4 SEP2        0.0000 
     93 N         -20.4525   42.6960   13.3825 N.am      1 SEC2        0.0000 
     94 CA        -17.0850   40.8962   13.4455 C.3       3 GLC5        0.0000 
     95 CA        -16.7640   40.8750   11.5190 C.3       6 GLP5        0.0000 
@<TRIPOS>BOND
@<TRIPOS>SUBSTRUCTURE
     1 SEC2        4 GROUP        1 X    SEC  0     ROOT SEC X 2
     2 LYC4        1 GROUP        1 X    LYC  0     **** LYC X 4
     3 GLC5       26 GROUP        1 X    GLC  0     **** GLC X 6
     4 SEP2        6 GROUP        1 Y    SEP  0     ROOT SEP Y 9
     5 LYP4        3 GROUP        1 Y    LYP  0     **** LYP Y 11
     6 GLP5       28 GROUP        1 Y    GLP  0     **** GLP Y 13
     7 SEL2        5 GROUP        1 Z    SEL  0     ROOT SEL Z 16
     8 LYL4        2 GROUP        1 Z    LYL  0     **** LYL Z 18
     9 GLL5       27 GROUP        1 Z    GLL  0     **** GLL Z 20
@<TRIPOS>SET

