#    Name: 3eia_PL6_1_ligand
#    Modification time : Tue Mar 25 01:57:26 2014

@<TRIPOS>MOLECULE
3eia_PL6_1_ligand
   38    38     1     0     0
SMALL
NO_CHARGES


@<TRIPOS>ATOM
      1 OAE       -21.5010   40.4210   10.3150 O.co2     1 PL6434      0.0000 
      2 PAY       -22.9130   40.4420   10.9850 P.3       1 PL6434      0.0000 
      3 OAI       -23.7970   39.6780    9.8940 O.co2     1 PL6434      0.0000 
      4 OAD       -23.5110   41.7550   11.3480 O.co2     1 PL6434      0.0000 
      5 OAQ       -22.9120   39.4070   12.2530 O.3       1 PL6434      0.0000 
      6 CAN       -22.4150   39.8650   13.4010 C.3       1 PL6434      0.0000 
      7 CAU       -22.4350   38.7380   14.4680 C.ar      1 PL6434      0.0000 
      8 CAK       -23.7090   38.3560   14.9800 C.ar      1 PL6434      0.0000 
      9 NAO       -23.8440   37.4270   15.9110 N.ar      1 PL6434      0.0000 
     10 CAT       -22.7500   36.8410   16.4140 C.ar      1 PL6434      0.0000 
     11 CAA       -22.8810   35.7820   17.4970 C.3       1 PL6434      0.0000 
     12 CAV       -21.4790   37.1560   15.9290 C.ar      1 PL6434      0.0000 
     13 OAH       -20.3890   36.5490   16.4270 O.3       1 PL6434      0.0000 
     14 CAW       -21.2620   38.1030   14.9220 C.ar      1 PL6434      0.0000 
     15 CAJ       -19.9040   38.4290   14.5130 C.2       1 PL6434      0.0000 
     16 N         -18.9850   38.5820   15.5300 N.2       1 PL6434      0.0000 
     17 CA        -17.4940   38.9020   15.5530 C.3       1 PL6434      0.0000 
     18 C         -16.7560   38.8770   16.9930 C.2       1 PL6434      0.0000 
     19 OXT       -17.3730   38.8230   18.0500 O.co2     1 PL6434      0.0000 
     20 O         -15.5330   38.9470   17.0230 O.co2     1 PL6434      0.0000 
     21 CB        -17.2660   40.3030   14.8910 C.3       1 PL6434      0.0000 
     22 CG        -17.5460   41.5320   15.8530 C.3       1 PL6434      0.0000 
     23 CD        -18.9180   42.2780   15.6680 C.2       1 PL6434      0.0000 
     24 OE2       -19.1200   43.1860   16.5480 O.co2     1 PL6434      0.0000 
     25 OE1       -19.7220   41.9340   14.6930 O.co2     1 PL6434      0.0000 
     26 H         -22.9844   40.7049   13.8447 H         1 PL6434      0.0000 
     27 H         -21.3613   40.2011   13.3430 H         1 PL6434      0.0000 
     28 H         -24.5406   38.8543   14.5765 H         1 PL6434      0.0000 
     29 H         -19.6889   38.5276   13.5494 H         1 PL6434      0.0000 
     30 H         -16.9591   38.1819   14.9172 H         1 PL6434      0.0000 
     31 H         -17.9218   40.3950   14.0208 H         1 PL6434      0.0000 
     32 H         -16.2300   40.3684   14.5472 H         1 PL6434      0.0000 
     33 H         -16.7292   42.2629   15.7188 H         1 PL6434      0.0000 
     34 H         -17.4814   41.1712   16.8946 H         1 PL6434      0.0000 
     35 H         -21.9897   35.4271   17.7792 H         1 PL6434      0.0000 
     36 H         -23.3260   36.1423   18.3169 H         1 PL6434      0.0000 
     37 H         -23.4233   35.0005   17.1886 H         1 PL6434      0.0000 
     38 H         -19.6286   36.8872   15.8725 H         1 PL6434      0.0000 
@<TRIPOS>BOND
     1    2    1 ar   
     2    3    2 ar   
     3    4    2 ar   
     4    5    2 1    
     5    6    5 1    
     6    7    6 1    
     7   26    6 1    
     8   27    6 1    
     9    8    7 ar   
    10   14    7 ar   
    11    9    8 ar   
    12   28    8 1    
    13   10    9 ar   
    14   11   10 1    
    15   12   10 ar   
    16   35   11 1    
    17   36   11 1    
    18   37   11 1    
    19   13   12 1    
    20   14   12 ar   
    21   38   13 1    
    22   15   14 1    
    23   16   15 2    
    24   29   15 1    
    25   17   16 1    
    26   18   17 1    
    27   21   17 1    
    28   30   17 1    
    29   19   18 ar   
    30   20   18 ar   
    31   22   21 1    
    32   31   21 1    
    33   32   21 1    
    34   23   22 1    
    35   33   22 1    
    36   34   22 1    
    37   24   23 ar   
    38   25   23 ar   
@<TRIPOS>SUBSTRUCTURE
     1 PL6434      1 GROUP   
@<TRIPOS>SET

