#    Name: 1w2x_RCP_3_INTS_M
#    Modification time : Tue Mar 25 08:34:06 2014

@<TRIPOS>MOLECULE
1w2x_RCP_3_INTS_M
   90     0     6     0     0
SMALL
NO_CHARGES


@<TRIPOS>ATOM
      1 CA         36.0310  -37.3715   57.1050 C.3       2 GLC5        0.0000 
      2 CA         35.3490  -39.2150   58.1980 C.3       6 GLL5        0.0000 
      3 CA         36.7130  -35.5280   56.0120 C.3       4 GLP5        0.0000 
      4 CA         36.6865  -39.0495   56.5220 C.3       2 GLC5        0.0000 
      5 CA         38.0240  -38.8840   54.8460 C.3       4 GLP5        0.0000 
      6 CA         35.2615  -43.3295   59.7305 C.3       2 GLC5        0.0000 
      7 CA         34.6520  -42.0350   58.3080 C.3       6 GLL5        0.0000 
      8 CA         35.8710  -44.6240   61.1530 C.3       4 GLP5        0.0000 
      9 CA         33.4875  -43.3180   59.3580 C.3       2 GLC5        0.0000 
     10 CA         32.3230  -44.6010   60.4080 C.3       4 GLP5        0.0000 
     11 CA         37.1005  -42.9550   57.2330 C.3       2 GLC5        0.0000 
     12 CA         36.1180  -41.6540   58.5270 C.3       6 GLL5        0.0000 
     13 CA         38.0830  -44.2560   55.9390 C.3       4 GLP5        0.0000 
     14 CA         37.3540  -42.8670   59.4205 C.3       2 GLC5        0.0000 
     15 CA         38.5900  -44.0800   60.3140 C.3       4 GLP5        0.0000 
     16 N          39.1615  -40.5775   58.2970 N.am      1 SEC2        0.0000 
     17 N          38.3660  -40.4360   59.4790 N.am      5 SEL2        0.0000 
     18 N          39.9570  -40.7190   57.1150 N.am      3 SEP2        0.0000 
     19 CA         39.8585  -39.3125   62.0235 C.3       2 GLC5        0.0000 
     20 CA         38.0110  -38.7910   61.6910 C.3       6 GLL5        0.0000 
     21 CA         41.7060  -39.8340   62.3560 C.3       4 GLP5        0.0000 
     22 CA         37.2530  -36.4400   57.8315 C.3       2 GLC5        0.0000 
     23 CA         37.7930  -37.3520   59.6510 C.3       6 GLL5        0.0000 
     24 CA         38.4140  -38.0625   57.8155 C.3       2 GLC5        0.0000 
     25 CA         39.0350  -38.7730   55.9800 C.3       4 GLP5        0.0000 
     26 CA         36.6480  -35.1910   59.1025 C.3       2 GLC5        0.0000 
     27 CA         37.9820  -36.1290   60.5530 C.3       6 GLL5        0.0000 
     28 CA         35.3140  -34.2530   57.6520 C.3       4 GLP5        0.0000 
     29 CA         37.4760  -34.1990   61.0005 C.3       2 GLC5        0.0000 
     30 CA         36.9700  -32.2690   61.4480 C.3       4 GLP5        0.0000 
     31 CA         40.1470  -38.8495   63.1025 C.3       2 GLC5        0.0000 
     32 CA         38.5880  -37.8650   63.8490 C.3       6 GLL5        0.0000 
     33 CA         35.8285  -39.2990   64.4190 C.3       2 GLC5        0.0000 
     34 CA         37.8290  -38.9740   64.5850 C.3       6 GLL5        0.0000 
     35 CA         33.8280  -39.6240   64.2530 C.3       4 GLP5        0.0000 
     36 CA         38.8970  -41.2480   66.4000 C.3       2 GLC5        0.0000 
     37 CA         38.4980  -39.3040   65.9220 C.3       6 GLL5        0.0000 
     38 CA         39.2960  -43.1920   66.8780 C.3       4 GLP5        0.0000 
     39 CA         40.5430  -35.6860   67.4915 C.3       2 GLC5        0.0000 
     40 CA         39.3100  -36.8810   66.0570 C.3       6 GLL5        0.0000 
     41 CA         41.7760  -34.4910   68.9260 C.3       4 GLP5        0.0000 
     42 N          39.0525  -35.5340   68.9225 N.am      1 SEC2        0.0000 
     43 N          38.6980  -37.0240   68.6570 N.am      5 SEL2        0.0000 
     44 N          39.4070  -34.0440   69.1880 N.am      3 SEP2        0.0000 
     45 CA         37.8830  -43.0930   68.8100 C.3       2 GLC5        0.0000 
     46 CA         37.6870  -42.1020   70.6650 C.3       6 GLL5        0.0000 
     47 CA         38.0790  -44.0840   66.9550 C.3       4 GLP5        0.0000 
     48 CA         37.2345  -38.4815   70.1815 C.3       2 GLC5        0.0000 
     49 CA         36.0330  -38.9580   68.4700 C.3       6 GLL5        0.0000 
     50 CA         38.4360  -38.0050   71.8930 C.3       4 GLP5        0.0000 
     51 CA         34.5340  -39.9230   59.8863 C.3       2 GLC5        0.0000 
     52 CA         33.9450  -39.7990   58.0230 C.3       6 GLL5        0.0000 
     53 CA         34.4210  -40.3390   61.6620 C.3       4 GLP5        0.0000 
     54 CA         34.9030  -41.0917   60.0397 C.3       2 GLC5        0.0000 
     55 CA         36.0170  -39.5055   61.3550 C.3       2 GLC5        0.0000 
     56 CA         37.2150  -38.5530   60.4050 C.3       6 GLL5        0.0000 
     57 CA         39.6343  -34.9870   60.2915 C.3       2 GLC5        0.0000 
     58 CA         40.9200  -33.6560   59.3850 C.3       4 GLP5        0.0000 
     59 CA         38.0970  -35.0065   66.3233 C.3       2 GLC5        0.0000 
     60 CA         38.6080  -36.6070   64.7240 C.3       6 GLL5        0.0000 
     61 CA         37.2350  -33.2690   67.2560 C.3       4 GLP5        0.0000 
     62 CA         40.9600  -39.2578   70.4020 C.3       2 GLC5        0.0000 
     63 CA         39.3480  -40.1910   69.5240 C.3       6 GLL5        0.0000 
     64 CA         42.2980  -37.8070   70.9030 C.3       4 GLP5        0.0000 
     65 CA         39.0290  -39.3567   70.8970 C.3       2 GLC5        0.0000 
     66 CA         41.0030  -41.4002   71.6178 C.3       2 GLC5        0.0000 
     67 CA         39.8960  -41.2260   70.2780 C.3       6 GLL5        0.0000 
     68 CA         42.5260  -41.0960   72.6720 C.3       4 GLP5        0.0000 
     69 CA         39.3880  -42.4483   68.7208 C.3       2 GLC5        0.0000 
     70 CA         38.4057  -40.0738   71.3250 C.3       2 GLC5        0.0000 
     71 CA         39.0640  -42.1830   70.8490 C.3       6 GLL5        0.0000 
     72 CA         36.3608  -43.1487   70.7593 C.3       2 GLC5        0.0000 
     73 CA         37.1420  -41.0650   69.9140 C.3       6 GLL5        0.0000 
     74 CA         35.3070  -44.7140   71.2290 C.3       4 GLP5        0.0000 
     75 CA         37.9267  -39.1623   70.6690 C.3       2 GLC5        0.0000 
     76 CA         38.5984  -41.8988   68.2752 C.3       2 GLC5        0.0000 
     77 CA         37.9710  -40.1010   69.3380 C.3       6 GLL5        0.0000 
     78 CA         34.8923  -38.1282   70.1530 C.3       2 GLC5        0.0000 
     79 CA         35.2060  -39.9250   69.0460 C.3       6 GLL5        0.0000 
     80 CA         34.1650  -36.8150   71.5480 C.3       4 GLP5        0.0000 
     81 CA         34.4652  -37.3310   69.6315 C.3       2 GLC5        0.0000 
     82 CA         34.0740  -37.7970   67.6550 C.3       6 GLL5        0.0000 
     83 CA         34.2968  -38.7355   65.9840 C.3       2 GLC5        0.0000 
     84 CA         33.8525  -38.0560   70.0632 C.3       2 GLC5        0.0000 
     85 CA         33.2560  -38.7650   68.2310 C.3       6 GLL5        0.0000 
     86 CA         33.3702  -40.3930   67.2007 C.3       2 GLC5        0.0000 
     87 CA         32.8550  -41.4650   65.7930 C.3       4 GLP5        0.0000 
     88 CA         34.3760  -42.1302   69.1334 C.3       2 GLC5        0.0000 
     89 CA         33.8240  -39.8290   68.9260 C.3       6 GLL5        0.0000 
     90 CA         34.0980  -44.1200   69.1010 C.3       4 GLP5        0.0000 
@<TRIPOS>BOND
@<TRIPOS>SUBSTRUCTURE
     1 SEC2       16 GROUP        1 X    SEC  0     ROOT SEC X 2
     2 GLC5        1 GROUP        1 X    GLC  0     **** GLC X 6
     3 SEP2       18 GROUP        1 Y    SEP  0     ROOT SEP Y 9
     4 GLP5        3 GROUP        1 Y    GLP  0     **** GLP Y 13
     5 SEL2       17 GROUP        1 Z    SEL  0     ROOT SEL Z 16
     6 GLL5        2 GROUP        1 Z    GLL  0     **** GLL Z 20
@<TRIPOS>SET

