#    Name: 1w2x_RCP_3_ligand
#    Modification time : Tue Mar 25 08:34:06 2014

@<TRIPOS>MOLECULE
1w2x_RCP_3_ligand
   72    77     1     0     0
SMALL
NO_CHARGES


@<TRIPOS>ATOM
      1 C29        35.3490  -39.2150   58.1980 C.3       1 RCP3000     0.0000 
      2 C30        33.9450  -39.7990   58.0230 C.3       1 RCP3000     0.0000 
      3 O28        34.0440  -41.0940   57.4090 O.3       1 RCP3000     0.0000 
      4 C28        34.6520  -42.0350   58.3080 C.3       1 RCP3000     0.0000 
      5 C27        36.1180  -41.6540   58.5270 C.3       1 RCP3000     0.0000 
      6 N26        36.2840  -40.2040   58.7840 N.am      1 RCP3000     0.0000 
      7 C26        37.3170  -39.7970   59.5200 C.2       1 RCP3000     0.0000 
      8 O26        38.3660  -40.4360   59.4790 O.2       1 RCP3000     0.0000 
      9 C25        37.2150  -38.5530   60.4050 C.3       1 RCP3000     0.0000 
     10 C24        38.0110  -38.7910   61.6910 C.3       1 RCP3000     0.0000 
     11 C23        37.7930  -37.3520   59.6510 C.3       1 RCP3000     0.0000 
     12 C22        37.9820  -36.1290   60.5530 C.3       1 RCP3000     0.0000 
     13 C21        38.7150  -36.5070   61.8430 C.3       1 RCP3000     0.0000 
     14 N20        37.9890  -37.5840   62.5330 N.4       1 RCP3000     0.0000 
     15 C20        38.5880  -37.8650   63.8490 C.3       1 RCP3000     0.0000 
     16 C19        37.8290  -38.9740   64.5850 C.3       1 RCP3000     0.0000 
     17 C18        38.4980  -39.3040   65.9220 C.3       1 RCP3000     0.0000 
     18 C17        38.6080  -36.6070   64.7240 C.3       1 RCP3000     0.0000 
     19 C16        39.3100  -36.8810   66.0570 C.3       1 RCP3000     0.0000 
     20 N15        38.6900  -38.0610   66.7050 N.am      1 RCP3000     0.0000 
     21 C15        38.3190  -37.9810   67.9820 C.2       1 RCP3000     0.0000 
     22 O15        38.6980  -37.0240   68.6570 O.2       1 RCP3000     0.0000 
     23 C14        37.4150  -39.0470   68.6140 C.ar      1 RCP3000     0.0000 
     24 C1         37.9710  -40.1010   69.3380 C.ar      1 RCP3000     0.0000 
     25 C2         39.3480  -40.1910   69.5240 C.ar      1 RCP3000     0.0000 
     26 C3         39.8960  -41.2260   70.2780 C.ar      1 RCP3000     0.0000 
     27 C4         39.0640  -42.1830   70.8490 C.ar      1 RCP3000     0.0000 
     28 C5         37.6870  -42.1020   70.6650 C.ar      1 RCP3000     0.0000 
     29 C6         37.1420  -41.0650   69.9140 C.ar      1 RCP3000     0.0000 
     30 C7         35.7620  -40.9790   69.7650 C.ar      1 RCP3000     0.0000 
     31 C8         35.2060  -39.9250   69.0460 C.ar      1 RCP3000     0.0000 
     32 C13        36.0330  -38.9580   68.4700 C.ar      1 RCP3000     0.0000 
     33 C12        35.4570  -37.8970   67.7750 C.ar      1 RCP3000     0.0000 
     34 C11        34.0740  -37.7970   67.6550 C.ar      1 RCP3000     0.0000 
     35 C10        33.2560  -38.7650   68.2310 C.ar      1 RCP3000     0.0000 
     36 C9         33.8240  -39.8290   68.9260 C.ar      1 RCP3000     0.0000 
     37 H          35.2774  -38.3299   58.8427 H         1 RCP3000     0.0000 
     38 H          35.7106  -38.8841   57.2163 H         1 RCP3000     0.0000 
     39 H          33.3669  -39.1043   57.4088 H         1 RCP3000     0.0000 
     40 H          33.4796  -39.8549   59.0100 H         1 RCP3000     0.0000 
     41 H          34.6261  -43.0515   57.9063 H         1 RCP3000     0.0000 
     42 H          34.1573  -42.0391   59.2830 H         1 RCP3000     0.0000 
     43 H          36.6889  -41.9504   57.6360 H         1 RCP3000     0.0000 
     44 H          36.5038  -42.2374   59.3747 H         1 RCP3000     0.0000 
     45 H          36.1978  -38.3703   60.6432 H         1 RCP3000     0.0000 
     46 H          39.0355  -39.0529   61.4177 H         1 RCP3000     0.0000 
     47 H          37.5670  -39.6382   62.2183 H         1 RCP3000     0.0000 
     48 H          37.1200  -37.0888   58.8280 H         1 RCP3000     0.0000 
     49 H          38.7604  -37.6318   59.2206 H         1 RCP3000     0.0000 
     50 H          37.0070  -35.7141   60.8031 H         1 RCP3000     0.0000 
     51 H          38.5601  -35.3763   60.0196 H         1 RCP3000     0.0000 
     52 H          38.7813  -35.6191   62.4734 H         1 RCP3000     0.0000 
     53 H          39.7255  -36.8258   61.5833 H         1 RCP3000     0.0000 
     54 H          36.9524  -37.2757   62.6715 H         1 RCP3000     0.0000 
     55 H          39.6180  -38.1954   63.7270 H         1 RCP3000     0.0000 
     56 H          37.8096  -39.8677   63.9634 H         1 RCP3000     0.0000 
     57 H          36.8062  -38.6479   64.7666 H         1 RCP3000     0.0000 
     58 H          39.4562  -39.7811   65.7215 H         1 RCP3000     0.0000 
     59 H          37.8627  -40.0028   66.4642 H         1 RCP3000     0.0000 
     60 H          37.5856  -36.2883   64.9159 H         1 RCP3000     0.0000 
     61 H          39.1344  -35.8134   64.1978 H         1 RCP3000     0.0000 
     62 H          39.2098  -36.0016   66.6887 H         1 RCP3000     0.0000 
     63 H          40.3645  -37.0619   65.8627 H         1 RCP3000     0.0000 
     64 H          39.9686  -39.4843   69.0993 H         1 RCP3000     0.0000 
     65 H          40.9128  -41.2815   70.4115 H         1 RCP3000     0.0000 
     66 H          39.4645  -42.9478   71.4052 H         1 RCP3000     0.0000 
     67 H          37.0704  -42.8105   71.0852 H         1 RCP3000     0.0000 
     68 H          35.1533  -41.6923   70.1849 H         1 RCP3000     0.0000 
     69 H          36.0613  -37.1794   67.3457 H         1 RCP3000     0.0000 
     70 H          33.6575  -37.0105   67.1424 H         1 RCP3000     0.0000 
     71 H          32.2352  -38.6943   68.1433 H         1 RCP3000     0.0000 
     72 H          33.2199  -40.5449   69.3512 H         1 RCP3000     0.0000 
@<TRIPOS>BOND
     1    2    1 1    
     2    6    1 1    
     3   37    1 1    
     4   38    1 1    
     5    3    2 1    
     6   39    2 1    
     7   40    2 1    
     8    4    3 1    
     9    5    4 1    
    10   41    4 1    
    11   42    4 1    
    12    6    5 1    
    13   43    5 1    
    14   44    5 1    
    15    7    6 am   
    16    8    7 2    
    17    9    7 1    
    18   10    9 1    
    19   11    9 1    
    20   45    9 1    
    21   14   10 1    
    22   46   10 1    
    23   47   10 1    
    24   12   11 1    
    25   48   11 1    
    26   49   11 1    
    27   13   12 1    
    28   50   12 1    
    29   51   12 1    
    30   14   13 1    
    31   52   13 1    
    32   53   13 1    
    33   15   14 1    
    34   54   14 1    
    35   16   15 1    
    36   18   15 1    
    37   55   15 1    
    38   17   16 1    
    39   56   16 1    
    40   57   16 1    
    41   20   17 1    
    42   58   17 1    
    43   59   17 1    
    44   19   18 1    
    45   60   18 1    
    46   61   18 1    
    47   20   19 1    
    48   62   19 1    
    49   63   19 1    
    50   21   20 am   
    51   22   21 2    
    52   23   21 1    
    53   24   23 ar   
    54   32   23 ar   
    55   25   24 ar   
    56   29   24 ar   
    57   26   25 ar   
    58   64   25 1    
    59   27   26 ar   
    60   65   26 1    
    61   28   27 ar   
    62   66   27 1    
    63   29   28 ar   
    64   67   28 1    
    65   30   29 ar   
    66   31   30 ar   
    67   68   30 1    
    68   32   31 ar   
    69   36   31 ar   
    70   33   32 ar   
    71   34   33 ar   
    72   69   33 1    
    73   35   34 ar   
    74   70   34 1    
    75   36   35 ar   
    76   71   35 1    
    77   72   36 1    
@<TRIPOS>SUBSTRUCTURE
     1 RCP3000     1 GROUP   
@<TRIPOS>SET

