#    Name: 3sgx_0FW_2_INTS_M
#    Modification time : Tue Mar 25 12:36:02 2014

@<TRIPOS>MOLECULE
3sgx_0FW_2_INTS_M
   73     0     9     0     0
SMALL
NO_CHARGES


@<TRIPOS>ATOM
      1 NZ         -4.7415  -13.0850    2.3190 N.4       2 LYC4        0.0000 
      2 NZ         -5.9540  -12.9040    1.5690 N.4       8 LYL4        0.0000 
      3 NZ         -3.4890  -13.6750    4.3390 N.4       5 LYP4        0.0000 
      4 N          -4.7415  -13.0850    2.3190 N.am      1 SEC2        0.0000 
      5 N          -5.9540  -12.9040    1.5690 N.am      7 SEL2        0.0000 
      6 N          -3.5290  -13.2660    3.0690 N.am      4 SEP2        0.0000 
      7 CA        -17.0260    4.9205   -3.9500 C.3       3 GLC5        0.0000 
      8 CA        -16.1070    3.5830   -2.9000 C.3       9 GLL5        0.0000 
      9 CA        -17.9450    6.2580   -5.0000 C.3       6 GLP5        0.0000 
     10 CA        -15.3165    4.9475   -4.1585 C.3       3 GLC5        0.0000 
     11 CA        -14.9300    3.9550   -2.2470 C.3       9 GLL5        0.0000 
     12 CA        -15.7030    5.9400   -6.0700 C.3       6 GLP5        0.0000 
     13 CA        -18.1450    1.8495   -2.4560 C.3       3 GLC5        0.0000 
     14 CA        -16.3030    2.2600   -3.2710 C.3       9 GLL5        0.0000 
     15 CA        -19.9870    1.4390   -1.6410 C.3       6 GLP5        0.0000 
     16 CA         -8.8065   -5.6000    4.1700 C.3       3 GLC5        0.0000 
     17 CA         -8.7010   -5.1100    2.4540 C.3       9 GLL5        0.0000 
     18 CA         -8.9120   -6.0900    5.8860 C.3       6 GLP5        0.0000 
     19 CA         -8.4185   -7.4690    3.0695 C.3       3 GLC5        0.0000 
     20 CA         -8.7000   -6.3330    1.7780 C.3       9 GLL5        0.0000 
     21 CA         -8.1370   -8.6050    4.3610 C.3       6 GLP5        0.0000 
     22 CA        -14.1395    1.0560   -4.3845 C.3       3 GLC5        0.0000 
     23 CA        -15.3220    1.3280   -2.9720 C.3       9 GLL5        0.0000 
     24 CA        -12.9570    0.7840   -5.7970 C.3       6 GLP5        0.0000 
     25 CA         -9.2540   -0.4510   -1.9380 C.3       3 GLC5        0.0000 
     26 CA        -11.1220   -0.3440   -1.4510 C.3       9 GLL5        0.0000 
     27 CA         -7.3860   -0.5580   -2.4250 C.3       6 GLP5        0.0000 
     28 CA         -9.6260    0.5075   -0.0510 C.3       3 GLC5        0.0000 
     29 CA         -8.1300    1.3590    1.3490 C.3       6 GLP5        0.0000 
     30 CA        -10.6730    2.0880   -0.5205 C.3       3 GLC5        0.0000 
     31 CA        -11.8400    0.8110   -1.8170 C.3       9 GLL5        0.0000 
     32 CA         -9.5060    3.3650    0.7760 C.3       6 GLP5        0.0000 
     33 CA        -11.8135    2.1035   -3.2780 C.3       3 GLC5        0.0000 
     34 CA        -11.7870    3.3960   -4.7390 C.3       6 GLP5        0.0000 
     35 CA         -6.7810  -11.7030    2.9005 C.3       3 GLC5        0.0000 
     36 CA         -6.7340  -10.7040    0.8910 C.3       9 GLL5        0.0000 
     37 CA         -6.8280  -12.7020    4.9100 C.3       6 GLP5        0.0000 
     38 CA        -15.8532    5.7500   -2.0267 C.3       3 GLC5        0.0000 
     39 CA        -16.1880    7.7310   -1.4800 C.3       6 GLP5        0.0000 
     40 CA        -13.4080    5.2040   -2.7800 C.3       3 GLC5        0.0000 
     41 CA        -12.3790    6.9240   -3.4660 C.3       6 GLP5        0.0000 
     42 CA        -16.0132    1.1100   -1.3487 C.3       3 GLC5        0.0000 
     43 CA        -16.2140    0.4260    0.4240 C.3       6 GLP5        0.0000 
     44 CA        -14.4364    3.1917   -4.3001 C.3       3 GLC5        0.0000 
     45 CA        -12.9620    3.3690   -5.6780 C.3       6 GLP5        0.0000 
     46 CA         -6.8267   -6.0943    2.9270 C.3       3 GLC5        0.0000 
     47 CA         -4.9530   -6.4670    3.7380 C.3       6 GLP5        0.0000 
     48 CA        -12.9128    2.8750   -3.4360 C.3       3 GLC5        0.0000 
     49 CA        -14.1330    1.6950   -2.3250 C.3       9 GLL5        0.0000 
     50 CA         -7.3963   -8.7607    2.3810 C.3       3 GLC5        0.0000 
     51 CA         -7.0760   -8.3980    0.2140 C.3       9 GLL5        0.0000 
     52 CA        -14.5247   -2.4290   -2.2477 C.3       3 GLC5        0.0000 
     53 CA        -13.1540   -1.6410   -1.4130 C.3       9 GLL5        0.0000 
     54 CA        -15.5450   -3.7750   -2.8970 C.3       6 GLP5        0.0000 
     55 CA        -14.8592   -0.3285   -0.5873 C.3       3 GLC5        0.0000 
     56 CA        -13.2483    0.4340   -3.8442 C.3       3 GLC5        0.0000 
     57 CA        -13.8550   -0.5250   -1.7840 C.3       9 GLL5        0.0000 
     58 CA         -9.8300   -6.7237   -1.1660 C.3       3 GLC5        0.0000 
     59 CA         -9.7390   -5.2540   -0.0990 C.3       9 GLL5        0.0000 
     60 CA        -10.1820   -7.6120   -2.5260 C.3       6 GLP5        0.0000 
     61 CA         -8.4210   -8.9328    2.3290 C.3       3 GLC5        0.0000 
     62 CA         -8.4430   -8.6250    0.1510 C.3       9 GLL5        0.0000 
     63 CA         -9.2726   -8.4079   -1.1066 C.3       3 GLC5        0.0000 
     64 CA         -8.9670   -9.8960    0.4430 C.3       9 GLL5        0.0000 
     65 CA         -8.8776   -4.9850   -1.4603 C.3       3 GLC5        0.0000 
     66 CA         -9.2170   -6.4170    0.4870 C.3       9 GLL5        0.0000 
     67 CA         -8.2770   -4.4430   -3.2820 C.3       6 GLP5        0.0000 
     68 CA        -14.9226    0.9748   -0.8210 C.3       3 GLC5        0.0000 
     69 CA        -13.2240    0.6930   -1.9990 C.3       9 GLL5        0.0000 
     70 CA         -7.7833   -9.7172    2.6095 C.3       3 GLC5        0.0000 
     71 CA         -8.1250  -10.9550    0.8250 C.3       9 GLL5        0.0000 
     72 CA         -6.4174  -10.2376   -1.3495 C.3       3 GLC5        0.0000 
     73 CA         -6.1400  -10.6650   -3.3450 C.3       6 GLP5        0.0000 
@<TRIPOS>BOND
@<TRIPOS>SUBSTRUCTURE
     1 SEC2        4 GROUP        1 X    SEC  0     ROOT SEC X 2
     2 LYC4        1 GROUP        1 X    LYC  0     **** LYC X 4
     3 GLC5        7 GROUP        1 X    GLC  0     **** GLC X 6
     4 SEP2        6 GROUP        1 Y    SEP  0     ROOT SEP Y 9
     5 LYP4        3 GROUP        1 Y    LYP  0     **** LYP Y 11
     6 GLP5        9 GROUP        1 Y    GLP  0     **** GLP Y 13
     7 SEL2        5 GROUP        1 Z    SEL  0     ROOT SEL Z 16
     8 LYL4        2 GROUP        1 Z    LYL  0     **** LYL Z 18
     9 GLL5        8 GROUP        1 Z    GLL  0     **** GLL Z 20
@<TRIPOS>SET

