#    Name: 3sgx_0FW_2_ligand
#    Modification time : Tue Mar 25 12:36:02 2014

@<TRIPOS>MOLECULE
3sgx_0FW_2_ligand
   51    54     1     0     0
SMALL
NO_CHARGES


@<TRIPOS>ATOM
      1 OAA        -4.4720  -11.2760    1.2580 O.co2     1 0FW2001     0.0000 
      2 OAB        -9.7930  -12.3460    1.8660 O.co2     1 0FW2001     0.0000 
      3 OAC       -11.7550   -3.9500   -1.3010 O.2       1 0FW2001     0.0000 
      4 OAD        -5.9540  -12.9040    1.5690 O.co2     1 0FW2001     0.0000 
      5 OAE        -8.2650  -13.3760    0.6550 O.co2     1 0FW2001     0.0000 
      6 CAF       -16.1070    3.5830   -2.9000 C.ar      1 0FW2001     0.0000 
      7 CAG       -14.9300    3.9550   -2.2470 C.ar      1 0FW2001     0.0000 
      8 CAH       -16.3030    2.2600   -3.2710 C.ar      1 0FW2001     0.0000 
      9 CAI        -8.7010   -5.1100    2.4540 C.ar      1 0FW2001     0.0000 
     10 CAJ        -9.2230   -3.9560    1.8640 C.ar      1 0FW2001     0.0000 
     11 CAK        -8.7000   -6.3330    1.7780 C.ar      1 0FW2001     0.0000 
     12 CAL       -13.9440    3.0130   -1.9410 C.ar      1 0FW2001     0.0000 
     13 CAM       -15.3220    1.3280   -2.9720 C.ar      1 0FW2001     0.0000 
     14 CAN        -7.0760   -8.3980    0.2140 C.ar      1 0FW2001     0.0000 
     15 CAO       -13.1540   -1.6410   -1.4130 C.ar      1 0FW2001     0.0000 
     16 CAP       -11.1220   -0.3440   -1.4510 C.ar      1 0FW2001     0.0000 
     17 CAQ       -13.8550   -0.5250   -1.7840 C.ar      1 0FW2001     0.0000 
     18 CAR       -11.8400    0.8110   -1.8170 C.ar      1 0FW2001     0.0000 
     19 CAS        -6.2350   -9.4350    0.5880 C.ar      1 0FW2001     0.0000 
     20 CAT        -9.7390   -5.2540   -0.0990 C.ar      1 0FW2001     0.0000 
     21 CAU        -8.9670   -9.8960    0.4430 C.ar      1 0FW2001     0.0000 
     22 NAV       -10.2370   -2.8940    0.0410 N.am      1 0FW2001     0.0000 
     23 OAW        -9.2540   -7.6000   -0.2170 O.3       1 0FW2001     0.0000 
     24 CAX        -5.6470  -11.7210    1.2760 C.2       1 0FW2001     0.0000 
     25 CAY        -8.7680  -12.3340    1.1460 C.2       1 0FW2001     0.0000 
     26 CAZ       -11.2140   -2.9170   -0.8590 C.2       1 0FW2001     0.0000 
     27 CBA        -9.7400   -4.0200    0.5710 C.ar      1 0FW2001     0.0000 
     28 CBB        -9.2170   -6.4170    0.4870 C.ar      1 0FW2001     0.0000 
     29 CBC        -8.4430   -8.6250    0.1510 C.ar      1 0FW2001     0.0000 
     30 CBD       -11.7920   -1.5670   -1.2590 C.ar      1 0FW2001     0.0000 
     31 CBE       -14.1330    1.6950   -2.3250 C.ar      1 0FW2001     0.0000 
     32 CBF       -13.2240    0.6930   -1.9990 C.ar      1 0FW2001     0.0000 
     33 CBG        -6.7340  -10.7040    0.8910 C.ar      1 0FW2001     0.0000 
     34 CBH        -8.1250  -10.9550    0.8250 C.ar      1 0FW2001     0.0000 
     35 H         -16.8236    4.2896   -3.1035 H         1 0FW2001     0.0000 
     36 H         -14.7849    4.9450   -1.9850 H         1 0FW2001     0.0000 
     37 H         -17.1570    1.9788   -3.7566 H         1 0FW2001     0.0000 
     38 H          -8.3076   -5.0581    3.4098 H         1 0FW2001     0.0000 
     39 H          -9.2251   -3.0716    2.3782 H         1 0FW2001     0.0000 
     40 H          -8.3174   -7.1695    2.2348 H         1 0FW2001     0.0000 
     41 H         -13.0999    3.2967   -1.4423 H         1 0FW2001     0.0000 
     42 H         -15.4638    0.3324   -3.2302 H         1 0FW2001     0.0000 
     43 H          -6.6931   -7.4760   -0.0129 H         1 0FW2001     0.0000 
     44 H         -13.6455   -2.5340   -1.2496 H         1 0FW2001     0.0000 
     45 H         -10.1062   -0.2935   -1.3238 H         1 0FW2001     0.0000 
     46 H         -14.8893   -0.5826   -1.9105 H         1 0FW2001     0.0000 
     47 H         -11.3690    1.6944   -1.9434 H         1 0FW2001     0.0000 
     48 H          -5.2120   -9.2693    0.6454 H         1 0FW2001     0.0000 
     49 H         -10.1364   -5.3069   -1.0564 H         1 0FW2001     0.0000 
     50 H          -9.9826  -10.0541    0.3762 H         1 0FW2001     0.0000 
     51 H          -9.8371   -1.9639    0.3510 H         1 0FW2001     0.0000 
@<TRIPOS>BOND
     1   24    1 ar   
     2   25    2 ar   
     3   26    3 2    
     4   24    4 ar   
     5   25    5 ar   
     6    7    6 ar   
     7    8    6 ar   
     8   35    6 1    
     9   12    7 ar   
    10   36    7 1    
    11   13    8 ar   
    12   37    8 1    
    13   10    9 ar   
    14   11    9 ar   
    15   38    9 1    
    16   27   10 ar   
    17   39   10 1    
    18   28   11 ar   
    19   40   11 1    
    20   31   12 ar   
    21   41   12 1    
    22   31   13 ar   
    23   42   13 1    
    24   19   14 ar   
    25   29   14 ar   
    26   43   14 1    
    27   17   15 ar   
    28   30   15 ar   
    29   44   15 1    
    30   18   16 ar   
    31   30   16 ar   
    32   45   16 1    
    33   32   17 ar   
    34   46   17 1    
    35   32   18 ar   
    36   47   18 1    
    37   33   19 ar   
    38   48   19 1    
    39   27   20 ar   
    40   28   20 ar   
    41   49   20 1    
    42   29   21 ar   
    43   34   21 ar   
    44   50   21 1    
    45   26   22 am   
    46   27   22 1    
    47   51   22 1    
    48   28   23 1    
    49   29   23 1    
    50   33   24 1    
    51   34   25 1    
    52   30   26 1    
    53   32   31 1    
    54   34   33 ar   
@<TRIPOS>SUBSTRUCTURE
     1 0FW2001     1 GROUP   
@<TRIPOS>SET

