#    Name: 3g70_A5T_2_INTS_M
#    Modification time : Tue Mar 25 07:16:49 2014

@<TRIPOS>MOLECULE
3g70_A5T_2_INTS_M
   92     0     6     0     0
SMALL
NO_CHARGES


@<TRIPOS>ATOM
      1 CA          3.0935   32.2955   64.5485 C.3       2 GLC5        0.0000 
      2 CA          3.3480   33.5560   66.2790 C.3       6 GLL5        0.0000 
      3 CA          2.8390   31.0350   62.8180 C.3       4 GLP5        0.0000 
      4 CA          4.8490   34.5685   66.1045 C.3       2 GLC5        0.0000 
      5 CA          6.3500   35.5810   65.9300 C.3       4 GLP5        0.0000 
      6 CA          4.9140   33.6940   67.7460 C.3       2 GLC5        0.0000 
      7 CA          6.4800   33.8320   69.2130 C.3       4 GLP5        0.0000 
      8 CA          7.0985   31.0595   65.0370 C.3       2 GLC5        0.0000 
      9 CA          5.7800   31.6870   66.1270 C.3       6 GLL5        0.0000 
     10 CA          8.4170   30.4320   63.9470 C.3       4 GLP5        0.0000 
     11 CA          6.0650   33.6340   66.0285 C.3       2 GLC5        0.0000 
     12 CA          6.1300   32.7595   67.6700 C.3       2 GLC5        0.0000 
     13 CA          2.0800   33.8765   69.0270 C.3       2 GLC5        0.0000 
     14 CA          2.2870   31.8130   68.1810 C.3       6 GLL5        0.0000 
     15 CA          1.8730   35.9400   69.8730 C.3       4 GLP5        0.0000 
     16 CA          7.0580   29.1865   66.1590 C.3       2 GLC5        0.0000 
     17 CA          5.7640   29.2500   67.8680 C.3       6 GLL5        0.0000 
     18 CA          8.3520   29.1230   64.4500 C.3       4 GLP5        0.0000 
     19 CA          6.6075   32.1105   69.7640 C.3       2 GLC5        0.0000 
     20 CA          6.7350   30.3890   70.3150 C.3       6 GLL5        0.0000 
     21 CA          5.6480   28.9680   72.9985 C.3       2 GLC5        0.0000 
     22 CA          6.7380   29.2000   71.2550 C.3       6 GLL5        0.0000 
     23 CA          4.5580   28.7360   74.7420 C.3       4 GLP5        0.0000 
     24 OD1         5.2480   25.2575   74.1070 O.co2     1 ASC3        0.0000 
     25 OD1         5.6750   25.1550   72.3740 O.co2     5 ASL3        0.0000 
     26 OD1         4.8210   25.3600   75.8400 O.co2     3 ASP3        0.0000 
     27 OD1         4.8010   24.6980   73.3135 O.co2     1 ASC3        0.0000 
     28 OD1         3.9270   24.2410   74.2530 O.co2     3 ASP3        0.0000 
     29 CA          6.9515   23.4630   74.0670 C.3       2 GLC5        0.0000 
     30 CA          6.6420   24.1160   72.0750 C.3       6 GLL5        0.0000 
     31 CA          7.2610   22.8100   76.0590 C.3       4 GLP5        0.0000 
     32 CA         10.2415   25.2070   71.6310 C.3       2 GLC5        0.0000 
     33 CA          9.6950   26.4890   69.8750 C.3       6 GLL5        0.0000 
     34 CA         10.7880   23.9250   73.3870 C.3       4 GLP5        0.0000 
     35 CA         10.3840   27.8520   71.2175 C.3       2 GLC5        0.0000 
     36 CA         11.0730   29.2150   72.5600 C.3       4 GLP5        0.0000 
     37 CA         13.3530   27.2775   68.1080 C.3       2 GLC5        0.0000 
     38 CA         11.7240   27.3960   66.8130 C.3       6 GLL5        0.0000 
     39 CA         14.9820   27.1590   69.4030 C.3       4 GLP5        0.0000 
     40 CA         11.6825   25.3985   66.7830 C.3       2 GLC5        0.0000 
     41 CA         11.6410   23.4010   66.7530 C.3       4 GLP5        0.0000 
     42 CA         10.0380   28.2595   65.6315 C.3       2 GLC5        0.0000 
     43 CA         13.9935   28.2875   67.7600 C.3       2 GLC5        0.0000 
     44 CA         12.2800   28.6050   66.9550 C.3       6 GLL5        0.0000 
     45 CA         15.7070   27.9700   68.5650 C.3       4 GLP5        0.0000 
     46 CA          9.9855   29.4635   65.3860 C.3       2 GLC5        0.0000 
     47 CA         11.6190   29.8040   66.3220 C.3       6 GLL5        0.0000 
     48 CA          8.9125   31.0390   65.7220 C.3       2 GLC5        0.0000 
     49 CA          9.4080   31.6460   67.4970 C.3       6 GLL5        0.0000 
     50 CA          8.6460   32.7310   68.3260 C.3       2 GLC5        0.0000 
     51 CA          7.8840   33.8160   69.1550 C.3       4 GLP5        0.0000 
     52 CA         15.5885   33.0575   66.5200 C.3       2 GLC5        0.0000 
     53 CA         13.8810   32.5020   65.1920 C.3       6 GLL5        0.0000 
     54 CA         17.2960   33.6130   67.8480 C.3       4 GLP5        0.0000 
     55 CA         15.0530   34.0810   65.5835 C.3       2 GLC5        0.0000 
     56 CA         16.2250   35.6600   65.9750 C.3       4 GLP5        0.0000 
     57 CA         15.1790   31.2995   64.9410 C.3       2 GLC5        0.0000 
     58 CA         16.4770   30.0970   64.6900 C.3       4 GLP5        0.0000 
     59 CA         13.6475   32.6720   63.3865 C.3       2 GLC5        0.0000 
     60 CA         13.4140   32.8420   61.5810 C.3       4 GLP5        0.0000 
     61 CA         13.8780   35.4590   64.3605 C.3       2 GLC5        0.0000 
     62 CA         12.1700   34.8170   64.0420 C.3       6 GLL5        0.0000 
     63 CA         15.5860   36.1010   64.6790 C.3       4 GLP5        0.0000 
     64 CA         11.7005   36.6535   63.8340 C.3       2 GLC5        0.0000 
     65 CA         11.2310   38.4900   63.6260 C.3       4 GLP5        0.0000 
     66 CA         12.7920   33.8295   62.8115 C.3       2 GLC5        0.0000 
     67 CA          4.3923   30.6648   65.0405 C.3       2 GLC5        0.0000 
     68 CA          3.6710   29.8560   63.3930 C.3       4 GLP5        0.0000 
     69 CA          6.9527   30.7148   72.4840 C.3       2 GLC5        0.0000 
     70 CA          7.1690   31.6350   74.1830 C.3       4 GLP5        0.0000 
     71 CA          8.8804   29.9231   70.5166 C.3       2 GLC5        0.0000 
     72 CA         10.9010   30.3910   70.3730 C.3       4 GLP5        0.0000 
     73 CA          8.9997   24.1740   72.5292 C.3       2 GLC5        0.0000 
     74 CA          7.7810   24.7300   71.2680 C.3       6 GLL5        0.0000 
     75 CA         10.9986   25.1262   67.4917 C.3       2 GLC5        0.0000 
     76 CA         10.5830   26.9740   67.6770 C.3       6 GLL5        0.0000 
     77 CA         10.7840   28.6602   69.3708 C.3       2 GLC5        0.0000 
     78 CA         12.9695   27.3578   65.0715 C.3       2 GLC5        0.0000 
     79 CA         13.9370   26.7150   63.2590 C.3       4 GLP5        0.0000 
     80 CA         11.4252   29.7977   68.5058 C.3       2 GLC5        0.0000 
     81 CA         10.4947   31.1713   68.6901 C.3       2 GLC5        0.0000 
     82 CA         11.9270   32.6020   63.5153 C.3       2 GLC5        0.0000 
     83 CA         12.1500   32.9060   65.5030 C.3       6 GLL5        0.0000 
     84 CA         12.0170   31.7460   61.8230 C.3       4 GLP5        0.0000 
     85 CA         12.2518   33.3513   67.7446 C.3       2 GLC5        0.0000 
     86 CA         13.0440   34.1210   69.4790 C.3       4 GLP5        0.0000 
     87 CA          9.0845   33.0057   63.8500 C.3       2 GLC5        0.0000 
     88 CA         10.1960   34.3050   65.1970 C.3       6 GLL5        0.0000 
     89 CA          8.3290   32.1070   62.0710 C.3       4 GLP5        0.0000 
     90 CA          8.0950   34.7428   65.7795 C.3       2 GLC5        0.0000 
     91 CA         11.6262   35.8521   66.2360 C.3       2 GLC5        0.0000 
     92 CA         12.2310   37.3450   67.6350 C.3       4 GLP5        0.0000 
@<TRIPOS>BOND
@<TRIPOS>SUBSTRUCTURE
     1 ASC3       24 GROUP        1 X    ASC  0     ROOT ASC X 3
     2 GLC5        1 GROUP        1 X    GLC  0     **** GLC X 6
     3 ASP3       26 GROUP        1 Y    ASP  0     ROOT ASP Y 10
     4 GLP5        3 GROUP        1 Y    GLP  0     **** GLP Y 13
     5 ASL3       25 GROUP        1 Z    ASL  0     ROOT ASL Z 17
     6 GLL5        2 GROUP        1 Z    GLL  0     **** GLL Z 20
@<TRIPOS>SET

