#    Name: 3g70_A5T_2_ligand
#    Modification time : Tue Mar 25 07:16:49 2014

@<TRIPOS>MOLECULE
3g70_A5T_2_ligand
   73    78     1     0     0
SMALL
NO_CHARGES


@<TRIPOS>ATOM
      1 CLA         3.3480   33.5560   66.2790 Cl        1 A5T342      0.0000 
      2 C36         3.3460   32.1030   67.3300 C.ar      1 A5T342      0.0000 
      3 C33         4.4470   31.2600   67.2490 C.ar      1 A5T342      0.0000 
      4 CLR3        5.7800   31.6870   66.1270 Cl        1 A5T342      0.0000 
      5 C38         2.2870   31.8130   68.1810 C.ar      1 A5T342      0.0000 
      6 C37         2.3590   30.6630   68.9570 C.ar      1 A5T342      0.0000 
      7 C34         3.4610   29.8040   68.8770 C.ar      1 A5T342      0.0000 
      8 C32         4.5230   30.1120   68.0240 C.ar      1 A5T342      0.0000 
      9 C29         5.7640   29.2500   67.8680 C.3       1 A5T342      0.0000 
     10 N26         6.1690   28.4130   69.0010 N.am      1 A5T342      0.0000 
     11 C28         7.2280   29.0320   69.8160 C.3       1 A5T342      0.0000 
     12 C31         6.7350   30.3890   70.3150 C.3       1 A5T342      0.0000 
     13 C30         6.7380   29.2000   71.2550 C.3       1 A5T342      0.0000 
     14 C22         5.6510   27.1810   69.1820 C.2       1 A5T342      0.0000 
     15 O25         4.7960   26.7800   68.4030 O.2       1 A5T342      0.0000 
     16 C20         6.0630   26.2330   70.2270 C.2       1 A5T342      0.0000 
     17 C23         5.0300   25.6610   71.1790 C.3       1 A5T342      0.0000 
     18 N27         5.6750   25.1550   72.3740 N.4       1 A5T342      0.0000 
     19 C24         6.6420   24.1160   72.0750 C.3       1 A5T342      0.0000 
     20 C21         7.7810   24.7300   71.2680 C.3       1 A5T342      0.0000 
     21 C           4.3100   24.4670   70.5170 C.3       1 A5T342      0.0000 
     22 NB          5.2340   23.3710   70.1910 N.3       1 A5T342      0.0000 
     23 CA          6.0200   22.9370   71.3320 C.3       1 A5T342      0.0000 
     24 C19         7.3320   25.7580   70.2540 C.2       1 A5T342      0.0000 
     25 C18         8.4420   26.1950   69.3260 C.ar      1 A5T342      0.0000 
     26 C16         8.2760   26.2630   67.9440 C.ar      1 A5T342      0.0000 
     27 C14         9.3400   26.6620   67.1250 C.ar      1 A5T342      0.0000 
     28 C17         9.6950   26.4890   69.8750 C.ar      1 A5T342      0.0000 
     29 C15        10.7510   26.8850   69.0600 C.ar      1 A5T342      0.0000 
     30 C13        10.5830   26.9740   67.6770 C.ar      1 A5T342      0.0000 
     31 C12        11.7240   27.3960   66.8130 C.3       1 A5T342      0.0000 
     32 C10        12.2800   28.6050   66.9550 C.3       1 A5T342      0.0000 
     33 C8         11.6190   29.8040   66.3220 C.3       1 A5T342      0.0000 
     34 O5         12.0310   31.0050   66.9750 O.3       1 A5T342      0.0000 
     35 C3         11.4290   32.0980   66.3760 C.ar      1 A5T342      0.0000 
     36 C6         10.1090   32.4160   66.6590 C.ar      1 A5T342      0.0000 
     37 F1          9.4080   31.6460   67.4970 F         1 A5T342      0.0000 
     38 C2         12.1500   32.9060   65.5030 C.ar      1 A5T342      0.0000 
     39 CL11       13.8810   32.5020   65.1920 Cl        1 A5T342      0.0000 
     40 C4         11.5240   34.0100   64.9120 C.ar      1 A5T342      0.0000 
     41 F2         12.1700   34.8170   64.0420 F         1 A5T342      0.0000 
     42 C7         10.1960   34.3050   65.1970 C.ar      1 A5T342      0.0000 
     43 C9          9.4840   33.5040   66.0610 C.ar      1 A5T342      0.0000 
     44 H           1.4781   32.4280   68.2347 H         1 A5T342      0.0000 
     45 H           1.5868   30.4336   69.6068 H         1 A5T342      0.0000 
     46 H           3.4873   28.9505   69.4441 H         1 A5T342      0.0000 
     47 H           6.6162   29.9299   67.5755 H         1 A5T342      0.0000 
     48 H           5.6175   28.6048   66.9535 H         1 A5T342      0.0000 
     49 H           8.1096   29.0158   69.7883 H         1 A5T342      0.0000 
     50 H           5.8516   30.5065   69.9953 H         1 A5T342      0.0000 
     51 H           7.4976   30.9160   70.5080 H         1 A5T342      0.0000 
     52 H           7.5024   29.2676   71.8090 H         1 A5T342      0.0000 
     53 H           5.8564   28.8582   71.2963 H         1 A5T342      0.0000 
     54 H           4.3027   26.3999   71.4136 H         1 A5T342      0.0000 
     55 H           7.0765   23.7378   73.0057 H         1 A5T342      0.0000 
     56 H           8.3245   23.9204   70.7491 H         1 A5T342      0.0000 
     57 H           8.4987   25.1968   71.9660 H         1 A5T342      0.0000 
     58 H           3.8094   24.8368   69.6102 H         1 A5T342      0.0000 
     59 H           3.5256   24.1227   71.2069 H         1 A5T342      0.0000 
     60 H           5.3982   22.3743   72.0472 H         1 A5T342      0.0000 
     61 H           6.8353   22.2660   71.0161 H         1 A5T342      0.0000 
     62 H           7.3713   26.0203   67.5213 H         1 A5T342      0.0000 
     63 H           9.2013   26.7249   66.1063 H         1 A5T342      0.0000 
     64 H           9.8337   26.4104   70.8938 H         1 A5T342      0.0000 
     65 H          11.6644   27.1146   69.4783 H         1 A5T342      0.0000 
     66 H          11.3727   27.2159   65.7232 H         1 A5T342      0.0000 
     67 H          12.5135   26.5524   66.9056 H         1 A5T342      0.0000 
     68 H          13.3704   28.6247   66.5849 H         1 A5T342      0.0000 
     69 H          12.4274   28.8849   68.0624 H         1 A5T342      0.0000 
     70 H          10.5281   29.6669   66.3845 H         1 A5T342      0.0000 
     71 H          11.8837   29.8170   65.2532 H         1 A5T342      0.0000 
     72 H           9.7501   35.1241   64.7588 H         1 A5T342      0.0000 
     73 H           8.4973   33.7039   66.2663 H         1 A5T342      0.0000 
@<TRIPOS>BOND
     1    2    1 1    
     2    3    2 ar   
     3    5    2 ar   
     4    4    3 1    
     5    8    3 ar   
     6    6    5 ar   
     7   44    5 1    
     8    7    6 ar   
     9   45    6 1    
    10    8    7 ar   
    11   46    7 1    
    12    9    8 1    
    13   10    9 1    
    14   47    9 1    
    15   48    9 1    
    16   11   10 1    
    17   14   10 am   
    18   12   11 1    
    19   13   11 1    
    20   49   11 1    
    21   13   12 1    
    22   50   12 1    
    23   51   12 1    
    24   52   13 1    
    25   53   13 1    
    26   15   14 2    
    27   16   14 1    
    28   17   16 1    
    29   24   16 2    
    30   18   17 1    
    31   21   17 1    
    32   54   17 1    
    33   19   18 1    
    34   20   19 1    
    35   23   19 1    
    36   55   19 1    
    37   24   20 1    
    38   56   20 1    
    39   57   20 1    
    40   22   21 1    
    41   58   21 1    
    42   59   21 1    
    43   23   22 1    
    44   60   23 1    
    45   61   23 1    
    46   25   24 1    
    47   26   25 ar   
    48   28   25 ar   
    49   27   26 ar   
    50   62   26 1    
    51   30   27 ar   
    52   63   27 1    
    53   29   28 ar   
    54   64   28 1    
    55   30   29 ar   
    56   65   29 1    
    57   31   30 1    
    58   32   31 1    
    59   66   31 1    
    60   67   31 1    
    61   33   32 1    
    62   68   32 1    
    63   69   32 1    
    64   34   33 1    
    65   70   33 1    
    66   71   33 1    
    67   35   34 1    
    68   36   35 ar   
    69   38   35 ar   
    70   37   36 1    
    71   43   36 ar   
    72   39   38 1    
    73   40   38 ar   
    74   41   40 1    
    75   42   40 ar   
    76   43   42 ar   
    77   72   42 1    
    78   73   43 1    
@<TRIPOS>SUBSTRUCTURE
     1 A5T342      1 GROUP   
@<TRIPOS>SET

