#    Name: 2oeg_UPG_1_INTS_M
#    Modification time : Tue Mar 25 22:19:35 2014

@<TRIPOS>MOLECULE
2oeg_UPG_1_INTS_M
   86     0    12     0     0
SMALL
NO_CHARGES


@<TRIPOS>ATOM
      1 O          28.4655   38.6730   47.4115 O.2       1 ALC1        0.0000 
      2 O          27.5490   38.4130   46.4330 O.2       9 ALL1        0.0000 
      3 O          29.3820   38.9330   48.3900 O.2       5 ALP1        0.0000 
      4 CA         26.0180   35.5130   46.5325 C.3       4 GLC5        0.0000 
      5 CA         26.6000   36.7310   44.9820 C.3      12 GLL5        0.0000 
      6 CA         25.4360   34.2950   48.0830 C.3       8 GLP5        0.0000 
      7 N          28.2725   41.3415   45.4350 N.am      2 SEC2        0.0000 
      8 N          27.2340   40.6440   46.0170 N.am     10 SEL2        0.0000 
      9 N          29.3110   42.0390   44.8530 N.am      6 SEP2        0.0000 
     10 CA         24.9565   41.6980   44.5385 C.3       4 GLC5        0.0000 
     11 CA         25.6860   40.2150   43.7480 C.3      12 GLL5        0.0000 
     12 CA         24.2270   43.1810   45.3290 C.3       8 GLP5        0.0000 
     13 N          28.3905   40.2365   42.6240 N.am      2 SEC2        0.0000 
     14 N          27.1850   40.8270   41.8480 N.am     10 SEL2        0.0000 
     15 N          29.5960   39.6460   43.4000 N.am      6 SEP2        0.0000 
     16 CA         24.4470   41.9880   43.5285 C.3       4 GLC5        0.0000 
     17 CA         24.6670   40.7950   41.7280 C.3      12 GLL5        0.0000 
     18 CA         22.8710   41.0290   44.1995 C.3       4 GLC5        0.0000 
     19 CA         23.5940   40.2340   42.6530 C.3      12 GLL5        0.0000 
     20 CA         22.1480   41.8240   45.7460 C.3       8 GLP5        0.0000 
     21 N          24.1690   43.5795   41.5845 N.am      2 SEC2        0.0000 
     22 N          24.7220   42.2480   41.7890 N.am     10 SEL2        0.0000 
     23 N          23.6160   44.9110   41.3800 N.am      6 SEP2        0.0000 
     24 O          25.3465   43.5760   42.5910 O.2       1 ALC1        0.0000 
     25 O          24.7220   42.2480   41.7890 O.2       9 ALL1        0.0000 
     26 O          25.9710   44.9040   43.3930 O.2       5 ALP1        0.0000 
     27 NZ         22.3645   38.9295   38.5245 N.4       3 LYC4        0.0000 
     28 NZ         23.5960   38.1440   38.9290 N.4      11 LYL4        0.0000 
     29 NZ         21.1330   39.7150   38.1200 N.4       7 LYP4        0.0000 
     30 N          22.3645   38.9295   38.5245 N.am      2 SEC2        0.0000 
     31 N          23.5960   38.1440   38.9290 N.am     10 SEL2        0.0000 
     32 N          21.1330   39.7150   38.1200 N.am      6 SEP2        0.0000 
     33 N          21.2940   36.1210   43.4505 N.am      2 SEC2        0.0000 
     34 N          21.4510   35.4660   42.1320 N.am     10 SEL2        0.0000 
     35 N          21.1370   36.7760   44.7690 N.am      6 SEP2        0.0000 
     36 CA         15.3020   34.8910   41.3565 C.3       4 GLC5        0.0000 
     37 CA         16.7360   36.3560   41.7850 C.3      12 GLL5        0.0000 
     38 CA         13.8680   33.4260   40.9280 C.3       8 GLP5        0.0000 
     39 CA         14.3790   37.6170   41.6760 C.3       4 GLC5        0.0000 
     40 CA         16.2370   37.4470   40.8150 C.3      12 GLL5        0.0000 
     41 CA         12.5210   37.7870   42.5370 C.3       8 GLP5        0.0000 
     42 CA         16.6745   39.2795   42.0085 C.3       4 GLC5        0.0000 
     43 CA         17.1120   41.1120   43.2020 C.3       8 GLP5        0.0000 
     44 CA         15.3055   40.4725   39.7785 C.3       4 GLC5        0.0000 
     45 CA         16.9510   39.1740   39.1640 C.3      12 GLL5        0.0000 
     46 CA         13.6600   41.7710   40.3930 C.3       8 GLP5        0.0000 
     47 CA         17.0315   40.1430   41.1830 C.3       4 GLC5        0.0000 
     48 CA         16.0285   40.0680   37.8495 C.3       4 GLC5        0.0000 
     49 CA         15.1060   40.9620   36.5350 C.3       8 GLP5        0.0000 
     50 O          18.2575   34.7490   43.2380 O.2       1 ALC1        0.0000 
     51 O          18.4310   36.0040   43.5110 O.2       9 ALL1        0.0000 
     52 O          18.0840   33.4940   42.9650 O.2       5 ALP1        0.0000 
     53 N          15.0780   37.0120   43.2740 N.am      2 SEC2        0.0000 
     54 N          15.6710   35.9070   42.6400 N.am     10 SEL2        0.0000 
     55 N          14.4850   38.1170   43.9080 N.am      6 SEP2        0.0000 
     56 O          15.8065   34.6505   43.0310 O.2       1 ALC1        0.0000 
     57 O          15.6710   35.9070   42.6400 O.2       9 ALL1        0.0000 
     58 O          15.9420   33.3940   43.4220 O.2       5 ALP1        0.0000 
     59 O          16.8775   34.7005   42.8025 O.2       1 ALC1        0.0000 
     60 N          15.0230   35.5425   40.0270 N.am      2 SEC2        0.0000 
     61 N          15.2210   36.9220   39.9360 N.am     10 SEL2        0.0000 
     62 N          14.8250   34.1630   40.1180 N.am      6 SEP2        0.0000 
     63 O          14.4310   37.9790   39.9455 O.2       1 ALC1        0.0000 
     64 O          15.2210   36.9220   39.9360 O.2       9 ALL1        0.0000 
     65 O          13.6410   39.0360   39.9550 O.2       5 ALP1        0.0000 
     66 N          18.9730   39.9210   40.7220 N.am      2 SEC2        0.0000 
     67 N          18.5220   38.4320   40.7580 N.am     10 SEL2        0.0000 
     68 N          19.4240   41.4100   40.6860 N.am      6 SEP2        0.0000 
     69 N          18.3500   38.6975   42.2055 N.am      2 SEC2        0.0000 
     70 N          18.1780   38.9630   43.6530 N.am      6 SEP2        0.0000 
     71 CA         27.9503   37.8147   43.6497 C.3       4 GLC5        0.0000 
     72 CA         26.0830   37.7540   44.2370 C.3      12 GLL5        0.0000 
     73 CA         29.5590   38.3870   42.6900 C.3       8 GLP5        0.0000 
     74 CA         24.3122   37.3578   44.8377 C.3       4 GLC5        0.0000 
     75 CA         22.2830   37.4730   45.0660 C.3       8 GLP5        0.0000 
     76 CA         27.6950   39.2973   42.8412 C.3       4 GLC5        0.0000 
     77 CA         22.6172   41.7963   41.5867 C.3       4 GLC5        0.0000 
     78 CA         21.1040   43.0780   40.9830 C.3       8 GLP5        0.0000 
     79 CA         22.8308   38.4823   43.8008 C.3       4 GLC5        0.0000 
     80 CA         17.7903   39.1578   42.6728 C.3       4 GLC5        0.0000 
     81 CA         19.0240   37.4430   41.6790 C.3      12 GLL5        0.0000 
     82 CA         16.8479   35.8926   39.6315 C.3       4 GLC5        0.0000 
     83 CA         16.7510   34.3630   38.6490 C.3       8 GLP5        0.0000 
     84 CA         18.8200   38.8598   38.2315 C.3       4 GLC5        0.0000 
     85 CA         17.4030   37.9430   39.9280 C.3      12 GLL5        0.0000 
     86 CA         20.4630   39.1610   36.9170 C.3       8 GLP5        0.0000 
@<TRIPOS>BOND
@<TRIPOS>SUBSTRUCTURE
     1 ALC1        1 GROUP        1 X    ALC  0     ROOT ALC X 1
     2 SEC2        7 GROUP        1 X    SEC  0     **** SEC X 2
     3 LYC4       27 GROUP        1 X    LYC  0     **** LYC X 4
     4 GLC5        4 GROUP        1 X    GLC  0     **** GLC X 6
     5 ALP1        3 GROUP        1 Y    ALP  0     ROOT ALP Y 8
     6 SEP2        9 GROUP        1 Y    SEP  0     **** SEP Y 9
     7 LYP4       29 GROUP        1 Y    LYP  0     **** LYP Y 11
     8 GLP5        6 GROUP        1 Y    GLP  0     **** GLP Y 13
     9 ALL1        2 GROUP        1 Z    ALL  0     ROOT ALL Z 15
    10 SEL2        8 GROUP        1 Z    SEL  0     **** SEL Z 16
    11 LYL4       28 GROUP        1 Z    LYL  0     **** LYL Z 18
    12 GLL5        5 GROUP        1 Z    GLL  0     **** GLL Z 20
@<TRIPOS>SET

