#    Name: 2oeg_UPG_1_ligand
#    Modification time : Tue Mar 25 22:19:35 2014

@<TRIPOS>MOLECULE
2oeg_UPG_1_ligand
   58    60     1     0     0
SMALL
NO_CHARGES


@<TRIPOS>ATOM
      1 N1         26.2530   39.1110   44.5790 N.am      1 UPG5206     0.0000 
      2 C2         27.0530   39.4760   45.7120 C.2       1 UPG5206     0.0000 
      3 N3         27.5490   38.4130   46.4330 N.am      1 UPG5206     0.0000 
      4 C4         27.3560   37.0570   46.2200 C.2       1 UPG5206     0.0000 
      5 C5         26.6000   36.7310   44.9820 C.2       1 UPG5206     0.0000 
      6 C6         26.0830   37.7540   44.2370 C.2       1 UPG5206     0.0000 
      7 O2         27.2340   40.6440   46.0170 O.2       1 UPG5206     0.0000 
      8 O4         27.7760   36.2120   46.9910 O.2       1 UPG5206     0.0000 
      9 C1C        25.6860   40.2150   43.7480 C.3       1 UPG5206     0.0000 
     10 C2C        25.9760   40.2000   42.2370 C.3       1 UPG5206     0.0000 
     11 O2C        27.1850   40.8270   41.8480 O.3       1 UPG5206     0.0000 
     12 C3C        24.6670   40.7950   41.7280 C.3       1 UPG5206     0.0000 
     13 C4C        23.5940   40.2340   42.6530 C.3       1 UPG5206     0.0000 
     14 O4C        24.2560   40.2080   43.9420 O.3       1 UPG5206     0.0000 
     15 O3C        24.7220   42.2480   41.7890 O.3       1 UPG5206     0.0000 
     16 C5C        23.1630   38.7490   42.4180 C.3       1 UPG5206     0.0000 
     17 O5C        22.7560   38.4970   41.1570 O.3       1 UPG5206     0.0000 
     18 PA         23.2250   37.4150   40.1400 P.3       1 UPG5206     0.0000 
     19 O1A        23.5960   38.1440   38.9290 O.co2     1 UPG5206     0.0000 
     20 O2A        24.0830   36.3600   40.6570 O.co2     1 UPG5206     0.0000 
     21 O3A        21.8150   36.7920   40.0150 O.3       1 UPG5206     0.0000 
     22 PB         20.9580   35.6980   40.7940 P.3       1 UPG5206     0.0000 
     23 O1B        21.4510   35.4660   42.1320 O.co2     1 UPG5206     0.0000 
     24 O2B        20.9360   34.5140   39.9090 O.co2     1 UPG5206     0.0000 
     25 O3B        19.4740   36.2820   40.9850 O.3       1 UPG5206     0.0000 
     26 C1'        19.0240   37.4430   41.6790 C.3       1 UPG5206     0.0000 
     27 C2'        17.9130   36.9640   42.6080 C.3       1 UPG5206     0.0000 
     28 C3'        16.7360   36.3560   41.7850 C.3       1 UPG5206     0.0000 
     29 C4'        16.2370   37.4470   40.8150 C.3       1 UPG5206     0.0000 
     30 C5'        17.4030   37.9430   39.9280 C.3       1 UPG5206     0.0000 
     31 C6'        16.9510   39.1740   39.1640 C.3       1 UPG5206     0.0000 
     32 O2'        18.4310   36.0040   43.5110 O.3       1 UPG5206     0.0000 
     33 O3'        15.6710   35.9070   42.6400 O.3       1 UPG5206     0.0000 
     34 O4'        15.2210   36.9220   39.9360 O.3       1 UPG5206     0.0000 
     35 O5'        18.5220   38.4320   40.7580 O.3       1 UPG5206     0.0000 
     36 O6'        18.0050   39.3730   38.2290 O.3       1 UPG5206     0.0000 
     37 H          28.1794   38.6691   47.2881 H         1 UPG5206     0.0000 
     38 H          26.5002   35.7558   44.7426 H         1 UPG5206     0.0000 
     39 H          25.5331   37.5382   43.3698 H         1 UPG5206     0.0000 
     40 H          26.0670   41.1780   44.1447 H         1 UPG5206     0.0000 
     41 H          25.9332   39.1285   41.9628 H         1 UPG5206     0.0000 
     42 H          24.4951   40.4332   40.7445 H         1 UPG5206     0.0000 
     43 H          22.7561   40.8552   42.6893 H         1 UPG5206     0.0000 
     44 H          22.3802   38.5449   43.1930 H         1 UPG5206     0.0000 
     45 H          24.0430   38.1342   42.7384 H         1 UPG5206     0.0000 
     46 H          19.8075   37.8424   42.2962 H         1 UPG5206     0.0000 
     47 H          17.5211   37.8291   43.1331 H         1 UPG5206     0.0000 
     48 H          17.1438   35.5543   41.1899 H         1 UPG5206     0.0000 
     49 H          15.8758   38.2775   41.3807 H         1 UPG5206     0.0000 
     50 H          17.7064   37.2033   39.2633 H         1 UPG5206     0.0000 
     51 H          16.8590   39.9875   39.8545 H         1 UPG5206     0.0000 
     52 H          16.0180   38.9538   38.6865 H         1 UPG5206     0.0000 
     53 H          26.9034   41.6706   41.3909 H         1 UPG5206     0.0000 
     54 H          25.0222   42.4566   42.7198 H         1 UPG5206     0.0000 
     55 H          18.1895   35.1186   43.1139 H         1 UPG5206     0.0000 
     56 H          15.8974   34.9578   42.8585 H         1 UPG5206     0.0000 
     57 H          14.5550   37.6617   39.8395 H         1 UPG5206     0.0000 
     58 H          17.7055   38.9043   37.3979 H         1 UPG5206     0.0000 
@<TRIPOS>BOND
     1    2    1 1    
     2    6    1 1    
     3    9    1 1    
     4    3    2 1    
     5    7    2 2    
     6    4    3 1    
     7   37    3 1    
     8    5    4 1    
     9    8    4 2    
    10    6    5 2    
    11   38    5 1    
    12   39    6 1    
    13   10    9 1    
    14   14    9 1    
    15   40    9 1    
    16   11   10 1    
    17   12   10 1    
    18   41   10 1    
    19   53   11 1    
    20   13   12 1    
    21   15   12 1    
    22   42   12 1    
    23   14   13 1    
    24   16   13 1    
    25   43   13 1    
    26   54   15 1    
    27   17   16 1    
    28   44   16 1    
    29   45   16 1    
    30   18   17 1    
    31   19   18 ar   
    32   20   18 ar   
    33   21   18 1    
    34   22   21 1    
    35   23   22 ar   
    36   24   22 ar   
    37   25   22 1    
    38   26   25 1    
    39   27   26 1    
    40   35   26 1    
    41   46   26 1    
    42   28   27 1    
    43   32   27 1    
    44   47   27 1    
    45   29   28 1    
    46   33   28 1    
    47   48   28 1    
    48   30   29 1    
    49   34   29 1    
    50   49   29 1    
    51   31   30 1    
    52   35   30 1    
    53   50   30 1    
    54   36   31 1    
    55   51   31 1    
    56   52   31 1    
    57   55   32 1    
    58   56   33 1    
    59   57   34 1    
    60   58   36 1    
@<TRIPOS>SUBSTRUCTURE
     1 UPG5206     1 GROUP   
@<TRIPOS>SET

