#    Name: 1i2l_DCS_1_INTS_M
#    Modification time : Tue Mar 25 06:36:51 2014

@<TRIPOS>MOLECULE
1i2l_DCS_1_INTS_M
   50     0     9     0     0
SMALL
NO_CHARGES


@<TRIPOS>ATOM
      1 CA         16.8825   11.9565   22.4295 C.3       3 GLC5        0.0000 
      2 CA         15.0590   11.8370   22.0010 C.3       9 GLL5        0.0000 
      3 CA         18.7060   12.0760   22.8580 C.3       6 GLP5        0.0000 
      4 CA         14.1690    8.8310   21.9295 C.3       3 GLC5        0.0000 
      5 CA         14.8010   10.4070   22.3900 C.3       9 GLL5        0.0000 
      6 CA         13.5370    7.2550   21.4690 C.3       6 GLP5        0.0000 
      7 CA         16.7045   10.5260   22.3625 C.3       3 GLC5        0.0000 
      8 CA         18.6080   10.6450   22.3350 C.3       6 GLP5        0.0000 
      9 CA         16.8275   11.4725   21.4805 C.3       3 GLC5        0.0000 
     10 CA         15.0470   12.3000   20.6260 C.3       9 GLL5        0.0000 
     11 CA         17.1420   13.0950   22.8020 C.3       3 GLC5        0.0000 
     12 CA         15.5780   14.1140   22.7460 C.3       9 GLL5        0.0000 
     13 CA         17.6435   16.6980   21.7305 C.3       3 GLC5        0.0000 
     14 CA         15.8590   16.0360   21.1390 C.3       9 GLL5        0.0000 
     15 CA         19.4280   17.3600   22.3220 C.3       6 GLP5        0.0000 
     16 CA         14.4160   17.0705   20.4150 C.3       3 GLC5        0.0000 
     17 CA         12.9730   18.1050   19.6910 C.3       6 GLP5        0.0000 
     18 N          15.5430   18.8230   18.3305 N.am      1 SEC2        0.0000 
     19 N          16.2370   17.5760   18.4350 N.am      7 SEL2        0.0000 
     20 N          14.8490   20.0700   18.2260 N.am      4 SEP2        0.0000 
     21 NZ         20.0420   16.8420   18.4570 N.4       2 LYC4        0.0000 
     22 NZ         18.5840   17.7750   19.0740 N.4       8 LYL4        0.0000 
     23 NZ         21.5000   15.9090   17.8400 N.4       5 LYP4        0.0000 
     24 N          19.2935   18.4315   19.9320 N.am      1 SEC2        0.0000 
     25 N          18.5840   17.7750   19.0740 N.am      7 SEL2        0.0000 
     26 N          20.0030   19.0880   20.7900 N.am      4 SEP2        0.0000 
     27 N          17.6200   20.1400   20.7385 N.am      1 SEC2        0.0000 
     28 N          16.8590   18.9570   20.4100 N.am      7 SEL2        0.0000 
     29 N          18.3810   21.3230   21.0670 N.am      4 SEP2        0.0000 
     30 CA         15.1895   15.1240   15.0630 C.3       3 GLC5        0.0000 
     31 CA         14.2830   14.7600   16.7270 C.3       9 GLL5        0.0000 
     32 CA         16.0960   15.4880   13.3990 C.3       6 GLP5        0.0000 
     33 CA         16.2885   14.2480   17.1350 C.3       3 GLC5        0.0000 
     34 CA         18.2940   13.7360   17.5430 C.3       6 GLP5        0.0000 
     35 CA         14.1440   15.9575   14.7245 C.3       3 GLC5        0.0000 
     36 CA         13.4500   15.8780   16.6780 C.3       9 GLL5        0.0000 
     37 CA         14.8380   16.0370   12.7710 C.3       6 GLP5        0.0000 
     38 CA         13.2115   16.9915   18.1845 C.3       3 GLC5        0.0000 
     39 CA         12.5705   16.8300   14.9870 C.3       3 GLC5        0.0000 
     40 CA         11.6910   17.7820   13.2960 C.3       6 GLP5        0.0000 
     41 CA         13.2070   11.8565   21.5708 C.3       3 GLC5        0.0000 
     42 CA         11.4840   12.5910   20.9460 C.3       6 GLP5        0.0000 
     43 CA         13.3285   12.7865   20.7105 C.3       3 GLC5        0.0000 
     44 CA         16.7968   13.8328   18.5892 C.3       3 GLC5        0.0000 
     45 CA         15.2990   13.6640   20.3240 C.3       9 GLL5        0.0000 
     46 CA         17.4342   13.5312   21.3633 C.3       3 GLC5        0.0000 
     47 CA         19.4350   12.9520   21.8440 C.3       6 GLP5        0.0000 
     48 CA         13.9520   15.4144   22.3431 C.3       3 GLC5        0.0000 
     49 CA         15.5680   14.5570   21.4410 C.3       9 GLL5        0.0000 
     50 CA         12.1880   15.6430   23.0700 C.3       6 GLP5        0.0000 
@<TRIPOS>BOND
@<TRIPOS>SUBSTRUCTURE
     1 SEC2       18 GROUP        1 X    SEC  0     ROOT SEC X 2
     2 LYC4       21 GROUP        1 X    LYC  0     **** LYC X 4
     3 GLC5        1 GROUP        1 X    GLC  0     **** GLC X 6
     4 SEP2       20 GROUP        1 Y    SEP  0     ROOT SEP Y 9
     5 LYP4       23 GROUP        1 Y    LYP  0     **** LYP Y 11
     6 GLP5        3 GROUP        1 Y    GLP  0     **** GLP Y 13
     7 SEL2       19 GROUP        1 Z    SEL  0     ROOT SEL Z 16
     8 LYL4       22 GROUP        1 Z    LYL  0     **** LYL Z 18
     9 GLL5        2 GROUP        1 Z    GLL  0     **** GLL Z 20
@<TRIPOS>SET

