#    Name: 1i2l_DCS_1_ligand
#    Modification time : Tue Mar 25 06:36:51 2014

@<TRIPOS>MOLECULE
1i2l_DCS_1_ligand
   35    36     1     0     0
SMALL
NO_CHARGES


@<TRIPOS>ATOM
      1 N1         15.3250   12.7850   22.9870 N.ar      1 DCS301      0.0000 
      2 C2         15.0590   11.8370   22.0010 C.ar      1 DCS301      0.0000 
      3 C2A        14.8010   10.4070   22.3900 C.3       1 DCS301      0.0000 
      4 C3         15.0470   12.3000   20.6260 C.ar      1 DCS301      0.0000 
      5 O3         14.7880   11.3590   19.7020 O.3       1 DCS301      0.0000 
      6 C4         15.2990   13.6640   20.3240 C.ar      1 DCS301      0.0000 
      7 C4A        15.3000   14.1950   18.9470 C.3       1 DCS301      0.0000 
      8 C5         15.5680   14.5570   21.4410 C.ar      1 DCS301      0.0000 
      9 C6         15.5780   14.1140   22.7460 C.ar      1 DCS301      0.0000 
     10 C5A        15.8590   16.0360   21.1390 C.3       1 DCS301      0.0000 
     11 O4P        17.0540   16.5050   20.5220 O.3       1 DCS301      0.0000 
     12 P          17.1380   17.7970   19.5800 P.3       1 DCS301      0.0000 
     13 O1P        16.2370   17.5760   18.4350 O.co2     1 DCS301      0.0000 
     14 O2P        18.5840   17.7750   19.0740 O.co2     1 DCS301      0.0000 
     15 O3P        16.8590   18.9570   20.4100 O.co2     1 DCS301      0.0000 
     16 N          14.2730   14.1450   18.1360 N.4       1 DCS301      0.0000 
     17 CA         14.2830   14.7600   16.7270 C.3       1 DCS301      0.0000 
     18 C          13.5920   13.6130   16.2840 C.2       1 DCS301      0.0000 
     19 O          13.8320   12.3460   16.1040 O.2       1 DCS301      0.0000 
     20 ND         12.3770   13.9780   15.9720 N.am      1 DCS301      0.0000 
     21 OG         12.2650   15.3880   16.2090 O.3       1 DCS301      0.0000 
     22 CB         13.4500   15.8780   16.6780 C.3       1 DCS301      0.0000 
     23 H          16.2605   13.7282   18.4439 H         1 DCS301      0.0000 
     24 H          15.7061   15.2987   19.0491 H         1 DCS301      0.0000 
     25 H          15.7692   14.7598   23.5147 H         1 DCS301      0.0000 
     26 H          15.6903   16.5961   22.1414 H         1 DCS301      0.0000 
     27 H          14.9369   16.4188   20.5474 H         1 DCS301      0.0000 
     28 H          15.2216   14.7971   16.4041 H         1 DCS301      0.0000 
     29 H          11.6444   13.4597   15.6413 H         1 DCS301      0.0000 
     30 H          13.8678   16.6413   16.0120 H         1 DCS301      0.0000 
     31 H          13.3419   16.3224   17.6738 H         1 DCS301      0.0000 
     32 H          15.5801   10.0071   22.8728 H         1 DCS301      0.0000 
     33 H          14.0080   10.3236   22.9935 H         1 DCS301      0.0000 
     34 H          14.6238    9.8312   21.5919 H         1 DCS301      0.0000 
     35 H          14.5655   11.8675   18.8702 H         1 DCS301      0.0000 
@<TRIPOS>BOND
     1    2    1 ar   
     2    9    1 ar   
     3    3    2 1    
     4    4    2 ar   
     5   32    3 1    
     6   33    3 1    
     7   34    3 1    
     8    5    4 1    
     9    6    4 ar   
    10   35    5 1    
    11    7    6 1    
    12    8    6 ar   
    13   16    7 1    
    14   23    7 1    
    15   24    7 1    
    16    9    8 ar   
    17   10    8 1    
    18   25    9 1    
    19   11   10 1    
    20   26   10 1    
    21   27   10 1    
    22   12   11 1    
    23   13   12 ar   
    24   14   12 ar   
    25   15   12 ar   
    26   17   16 1    
    27   18   17 1    
    28   22   17 1    
    29   28   17 1    
    30   19   18 2    
    31   20   18 am   
    32   21   20 1    
    33   29   20 1    
    34   22   21 1    
    35   30   22 1    
    36   31   22 1    
@<TRIPOS>SUBSTRUCTURE
     1 DCS301      1 GROUP   
@<TRIPOS>SET

