#    Name: 2H15_1_CAVITY_N1_6.mol2
#    Modification time : Mon Mar 10 15:50:41 2014

@<TRIPOS>MOLECULE
2H15_1_CAVITY_N1_6.mol2
   85     0     6     0     0
SMALL
NO_CHARGES


@<TRIPOS>ATOM
      1 CA         -1.0674    6.3922   13.9185 C.3       5 GLY6        0.0000 
      2 N          -0.1664    4.6834   13.0421 N.2       2 ALA2        0.0000 
      3 DU         -1.2152    5.6666   12.6140 H         6 CUB7        0.0000 
      4 DU         -2.2640    6.6499   12.1859 H         6 CUB7        0.0000 
      5 N          -0.3143    3.9578   11.7376 N.2       2 ALA2        0.0000 
      6 DU         -1.3631    4.9410   11.3096 H         6 CUB7        0.0000 
      7 CA         -0.4621    3.2322   10.4332 C.3       5 GLY6        0.0000 
      8 O          -1.5109    4.2154   10.0051 O.2       2 ALA2        0.0000 
      9 O          -0.6100    2.5065    9.1287 O.2       2 ALA2        0.0000 
     10 CA         -3.0305    7.2312   15.3991 C.3       5 GLY6        0.0000 
     11 N          -1.0808    4.5391   14.9508 N.2       2 ALA2        0.0000 
     12 CA         -2.1296    5.5224   14.5227 C.3       5 GLY6        0.0000 
     13 CZ         -3.1784    6.5056   14.0947 C.ar      4 PHE5        0.0000 
     14 CZ         -4.2271    7.4889   13.6666 C.ar      4 PHE5        0.0000 
     15 OG         -1.2286    3.8135   13.6463 O.2       1 SER1        0.0000 
     16 OG         -2.2774    4.7967   13.2183 O.2       1 SER1        0.0000 
     17 DU         -3.3262    5.7800   12.7902 H         6 CUB7        0.0000 
     18 CZ         -4.3750    6.7633   12.3621 C.ar      4 PHE5        0.0000 
     19 CZ         -5.4238    7.7465   11.9340 C.ar      4 PHE5        0.0000 
     20 OG         -1.3764    3.0879   12.3419 O.2       1 SER1        0.0000 
     21 DU         -2.4252    4.0711   11.9138 H         6 CUB7        0.0000 
     22 DU         -3.4740    5.0544   11.4857 H         6 CUB7        0.0000 
     23 DU         -4.5228    6.0376   11.0577 H         6 CUB7        0.0000 
     24 CZ         -0.4755    1.3790   11.4655 C.ar      4 PHE5        0.0000 
     25 O          -1.5243    2.3623   11.0374 O.2       2 ALA2        0.0000 
     26 O          -2.5731    3.3455   10.6093 O.2       2 ALA2        0.0000 
     27 N          -4.6707    5.3120    9.7532 N.2       2 ALA2        0.0000 
     28 CA         -4.0927    6.3613   16.0034 C.3       5 GLY6        0.0000 
     29 OG         -2.1429    3.6692   15.5551 O.2       1 SER1        0.0000 
     30 CA         -3.1917    4.6525   15.1270 C.3       5 GLY6        0.0000 
     31 CA         -4.2405    5.6357   14.6989 C.3       5 GLY6        0.0000 
     32 CZ         -5.2893    6.6190   14.2708 C.ar      4 PHE5        0.0000 
     33 OG         -3.3396    3.9269   13.8225 O.2       1 SER1        0.0000 
     34 DU         -4.3883    4.9101   13.3944 H         6 CUB7        0.0000 
     35 CZ         -5.4371    5.8934   12.9664 C.ar      4 PHE5        0.0000 
     36 CZ         -6.4859    6.8766   12.5383 C.ar      4 PHE5        0.0000 
     37 OG         -3.4874    3.2012   12.5181 O.2       1 SER1        0.0000 
     38 DU         -4.5362    4.1845   12.0900 H         6 CUB7        0.0000 
     39 O          -5.5850    5.1678   11.6619 O.2       2 ALA2        0.0000 
     40 O          -6.6338    6.1510   11.2338 O.2       2 ALA2        0.0000 
     41 CA         -1.5376    0.5091   12.0698 C.3       5 GLY6        0.0000 
     42 OG         -2.5864    1.4924   11.6417 O.2       1 SER1        0.0000 
     43 O          -3.6352    2.4756   11.2136 O.2       2 ALA2        0.0000 
     44 O          -4.6840    3.4589   10.7855 O.2       2 ALA2        0.0000 
     45 CA         -1.6855   -0.2165   10.7653 C.3       5 GLY6        0.0000 
     46 O          -2.7343    0.7668   10.3372 O.2       2 ALA2        0.0000 
     47 O          -4.8319    2.7333    9.4811 O.2       2 ALA2        0.0000 
     48 OG         -3.2051    2.7993   16.1593 O.2       1 SER1        0.0000 
     49 CA         -4.2539    3.7826   15.7312 C.3       5 GLY6        0.0000 
     50 CA         -5.3027    4.7658   15.3032 C.3       5 GLY6        0.0000 
     51 CA         -6.3515    5.7491   14.8751 C.3       5 GLY6        0.0000 
     52 OG         -4.4017    3.0570   14.4268 O.2       1 SER1        0.0000 
     53 DU         -5.4505    4.0402   13.9987 H         6 CUB7        0.0000 
     54 CA         -6.4993    5.0235   13.5706 C.3       5 GLY6        0.0000 
     55 CA         -7.5481    6.0067   13.1426 C.3       5 GLY6        0.0000 
     56 OG         -3.5008    1.3481   13.5504 O.2       1 SER1        0.0000 
     57 OG         -4.5495    2.3314   13.1223 O.2       1 SER1        0.0000 
     58 O          -5.5983    3.3146   12.6942 O.2       2 ALA2        0.0000 
     59 O          -6.6471    4.2979   12.2662 O.2       2 ALA2        0.0000 
     60 OG         -3.6486    0.6225   12.2459 O.2       1 SER1        0.0000 
     61 O          -4.6974    1.6057   11.8179 O.2       2 ALA2        0.0000 
     62 O          -5.7462    2.5890   11.3898 O.2       2 ALA2        0.0000 
     63 OG         -1.6988   -2.0696   11.7976 O.2       1 SER1        0.0000 
     64 CA         -2.7476   -1.0864   11.3695 C.3       5 GLY6        0.0000 
     65 O          -3.7964   -0.1031   10.9415 O.2       2 ALA2        0.0000 
     66 O          -4.8452    0.8801   10.5134 O.2       2 ALA2        0.0000 
     67 CA         -2.8955   -1.8120   10.0651 C.3       5 GLY6        0.0000 
     68 CA         -3.9443   -0.8287    9.6370 C.3       5 GLY6        0.0000 
     69 CA         -4.2672    1.9295   16.7636 C.3       5 GLY6        0.0000 
     70 CA         -5.3160    2.9127   16.3355 C.3       5 GLY6        0.0000 
     71 CA         -6.3648    3.8960   15.9074 C.3       5 GLY6        0.0000 
     72 OG         -4.4151    1.2038   15.4591 O.2       1 SER1        0.0000 
     73 N          -5.4639    2.1871   15.0310 N.2       2 ALA2        0.0000 
     74 CA         -6.5127    3.1703   14.6030 C.3       5 GLY6        0.0000 
     75 N          -4.5629    0.4782   14.1547 N.2       2 ALA2        0.0000 
     76 CA         -3.6620   -1.2306   13.2783 C.3       5 GLY6        0.0000 
     77 N          -4.7107   -0.2474   12.8502 N.2       2 ALA2        0.0000 
     78 N          -3.8098   -1.9563   11.9738 N.2       2 ALA2        0.0000 
     79 CA         -4.8586   -0.9730   11.5457 C.3       5 GLY6        0.0000 
     80 CA         -3.9576   -2.6819   10.6693 C.3       5 GLY6        0.0000 
     81 CA         -6.2303    2.7684   18.2442 C.3       5 GLY6        0.0000 
     82 O          -5.3294    1.0596   17.3678 O.2       2 ALA2        0.0000 
     83 CA         -6.3782    2.0428   16.9398 C.3       5 GLY6        0.0000 
     84 CA         -7.4270    3.0261   16.5117 C.3       5 GLY6        0.0000 
     85 OD1        -6.5260    1.3172   15.6353 O.3       3 ASP3        0.0000 
@<TRIPOS>BOND
@<TRIPOS>SUBSTRUCTURE
     1 SER1       15 GROUP   
     2 ALA2        2 GROUP   
     3 ASP3       85 GROUP   
     4 PHE5       13 GROUP   
     5 GLY6        1 GROUP   
     6 CUB7        3 GROUP   
@<TRIPOS>SET

