#    Name: 2h15_B19_1_INTS_M
#    Modification time : Tue Mar 25 15:22:11 2014

@<TRIPOS>MOLECULE
2h15_B19_1_INTS_M
   43     0    12     0     0
SMALL
NO_CHARGES


@<TRIPOS>ATOM
      1 CA         -7.8335    5.6885   12.0455 C.3       4 GLC5        0.0000 
      2 CA         -5.9730    6.2820   13.1580 C.3      12 GLL5        0.0000 
      3 CA         -9.6940    5.0950   10.9330 C.3       8 GLP5        0.0000 
      4 CA         -7.6890    5.9780   14.5535 C.3       4 GLC5        0.0000 
      5 CA         -9.4050    5.6740   15.9490 C.3       8 GLP5        0.0000 
      6 CA         -6.6105    0.7130   11.5885 C.3       4 GLC5        0.0000 
      7 CA         -5.0790    2.1240   11.4660 C.3      12 GLL5        0.0000 
      8 CA         -8.1420   -0.6980   11.7110 C.3       8 GLP5        0.0000 
      9 CA         -5.8405   -0.7210   11.8065 C.3       4 GLC5        0.0000 
     10 CA         -4.1180    0.1070   11.0170 C.3      12 GLL5        0.0000 
     11 CA         -7.5630   -1.5490   12.5960 C.3       8 GLP5        0.0000 
     12 CA         -6.5640   -0.6955   10.8770 C.3       4 GLC5        0.0000 
     13 CA         -4.9860   -0.6930   10.0430 C.3      12 GLL5        0.0000 
     14 CA         -1.8970   -1.4805   10.2215 C.3       4 GLC5        0.0000 
     15 CA         -3.1520   -0.8040   11.7480 C.3      12 GLL5        0.0000 
     16 CA         -0.6420   -2.1570    8.6950 C.3       8 GLP5        0.0000 
     17 CA         -2.0185   -0.9025   13.0130 C.3       4 GLC5        0.0000 
     18 CA         -0.8850   -1.0010   14.2780 C.3       8 GLP5        0.0000 
     19 N          -3.0660    1.4125    8.9680 N.am      2 SEC2        0.0000 
     20 N          -3.3680    1.1240   10.2760 N.am     10 SEL2        0.0000 
     21 N          -2.7640    1.7010    7.6600 N.am      6 SEP2        0.0000 
     22 N          -2.0715    2.0905   13.9850 N.am      2 SEC2        0.0000 
     23 N          -3.0240    2.8230   13.2180 N.am     10 SEL2        0.0000 
     24 N          -1.1190    1.3580   14.7520 N.am      6 SEP2        0.0000 
     25 CA         -4.5890    3.8365   16.5885 C.3       4 GLC5        0.0000 
     26 CA         -4.8130    2.9000   14.9690 C.3      12 GLL5        0.0000 
     27 CA         -4.3650    4.7730   18.2080 C.3       8 GLP5        0.0000 
     28 Zn         -5.5750   -0.0785   15.2080 Zn        3 ZIC7        0.0000 
     29 Zn         -4.5530    1.4760   15.0850 Zn       11 ZIL7        0.0000 
     30 Zn         -6.5970   -1.6330   15.3310 Zn        7 ZIP7        0.0000 
     31 N          -3.7015    0.7005   18.4125 N.am      2 SEC2        0.0000 
     32 N          -4.7400    1.1670   17.6670 N.am     10 SEL2        0.0000 
     33 N          -2.6630    0.2340   19.1580 N.am      6 SEP2        0.0000 
     34 O          -4.3525   -1.4465   16.8610 O.2       1 ALC1        0.0000 
     35 O          -5.1920   -0.7630   16.1050 O.2       9 ALL1        0.0000 
     36 O          -3.5130   -2.1300   17.6170 O.2       5 ALP1        0.0000 
     37 Zn         -5.8945   -1.1980   15.7180 Zn        3 ZIC7        0.0000 
     38 Zn         -5.1920   -0.7630   16.1050 Zn       11 ZIL7        0.0000 
     39 CA         -5.5812    7.5050   13.9618 C.3       4 GLC5        0.0000 
     40 CA         -4.7800    5.4260   12.7050 C.3      12 GLL5        0.0000 
     41 CA         -5.7860    9.1560   14.9920 C.3       8 GLP5        0.0000 
     42 CA         -4.9220   -1.8315    9.5290 C.3       4 GLC5        0.0000 
     43 CA         -5.2920   -3.3700    8.5280 C.3       8 GLP5        0.0000 
@<TRIPOS>BOND
@<TRIPOS>SUBSTRUCTURE
     1 ALC1       34 GROUP        1 X    ALC  0     ROOT ALC X 1
     2 SEC2       19 GROUP        1 X    SEC  0     **** SEC X 2
     3 ZIC7       28 GROUP        1 X    ZIC  0     **** ZIC X 5
     4 GLC5        1 GROUP        1 X    GLC  0     **** GLC X 6
     5 ALP1       36 GROUP        1 Y    ALP  0     ROOT ALP Y 8
     6 SEP2       21 GROUP        1 Y    SEP  0     **** SEP Y 9
     7 ZIP7       30 GROUP        1 Y    ZIP  0     **** ZIP Y 12
     8 GLP5        3 GROUP        1 Y    GLP  0     **** GLP Y 13
     9 ALL1       35 GROUP        1 Z    ALL  0     ROOT ALL Z 15
    10 SEL2       20 GROUP        1 Z    SEL  0     **** SEL Z 16
    11 ZIL7       29 GROUP        1 Z    ZIL  0     **** ZIL Z 19
    12 GLL5        2 GROUP        1 Z    GLL  0     **** GLL Z 20
@<TRIPOS>SET

