#    Name: 2h15_B19_1_ligand
#    Modification time : Tue Mar 25 15:22:11 2014

@<TRIPOS>MOLECULE
2h15_B19_1_ligand
   43    45     1     0     0
SMALL
NO_CHARGES


@<TRIPOS>ATOM
      1 C11        -5.9730    6.2820   13.1580 C.3       1 B19300      0.0000 
      2 C10        -4.7800    5.4260   12.7050 C.3       1 B19300      0.0000 
      3 C12        -3.6980    6.2740   12.0100 C.3       1 B19300      0.0000 
      4 O3         -4.2050    4.7510   13.8330 O.3       1 B19300      0.0000 
      5 O4         -5.2540    4.4350   11.8230 O.3       1 B19300      0.0000 
      6 C3         -5.3600    3.1990   12.5460 C.3       1 B19300      0.0000 
      7 C4         -5.0790    2.1240   11.4660 C.3       1 B19300      0.0000 
      8 O5         -4.9300    0.7730   11.9800 O.3       1 B19300      0.0000 
      9 C7         -4.1180    0.1070   11.0170 C.3       1 B19300      0.0000 
     10 C8         -4.9860   -0.6930   10.0430 C.3       1 B19300      0.0000 
     11 C9         -3.1520   -0.8040   11.7480 C.3       1 B19300      0.0000 
     12 O6         -3.3680    1.1240   10.2760 O.3       1 B19300      0.0000 
     13 C5         -3.7350    2.3980   10.8030 C.3       1 B19300      0.0000 
     14 C6         -2.6520    2.8460   11.8040 C.3       1 B19300      0.0000 
     15 O2         -3.0240    2.8230   13.2180 O.3       1 B19300      0.0000 
     16 C2         -4.3090    3.3770   13.6260 C.3       1 B19300      0.0000 
     17 C1         -4.8130    2.9000   14.9690 C.3       1 B19300      0.0000 
     18 N2         -4.5530    1.4760   15.0850 N.pl3     1 B19300      0.0000 
     19 S1         -5.3700    0.8250   16.3620 S.o2      1 B19300      0.0000 
     20 O7         -4.7400    1.1670   17.6670 O.2       1 B19300      0.0000 
     21 O8         -6.7990    1.2430   16.4470 O.2       1 B19300      0.0000 
     22 N1         -5.1920   -0.7630   16.1050 N.pl3     1 B19300      0.0000 
     23 H          -6.3105    3.0881   12.9464 H         1 B19300      0.0000 
     24 H          -5.8284    2.1679   10.7075 H         1 B19300      0.0000 
     25 H          -3.8544    3.1128   10.0427 H         1 B19300      0.0000 
     26 H          -2.3284    3.8748   11.5040 H         1 B19300      0.0000 
     27 H          -1.7522    2.2037   11.6285 H         1 B19300      0.0000 
     28 H          -5.8810    3.1098   15.0351 H         1 B19300      0.0000 
     29 H          -4.2984    3.4572   15.7524 H         1 B19300      0.0000 
     30 H          -4.0312    0.9267   14.5785 H         1 B19300      0.0000 
     31 H          -5.6959    6.9925   13.8049 H         1 B19300      0.0000 
     32 H          -6.4134    6.7427   12.3874 H         1 B19300      0.0000 
     33 H          -6.6747    5.7314   13.6102 H         1 B19300      0.0000 
     34 H          -3.3384    6.9850   12.6143 H         1 B19300      0.0000 
     35 H          -2.9206    5.7171   11.7176 H         1 B19300      0.0000 
     36 H          -4.0524    6.7333   11.1955 H         1 B19300      0.0000 
     37 H          -4.4339   -1.1698    9.3590 H         1 B19300      0.0000 
     38 H          -5.5312   -1.3861   10.5146 H         1 B19300      0.0000 
     39 H          -5.6249   -0.1055    9.5463 H         1 B19300      0.0000 
     40 H          -2.5536   -1.2953   11.1151 H         1 B19300      0.0000 
     41 H          -2.5615   -0.2939   12.3735 H         1 B19300      0.0000 
     42 H          -3.6308   -1.4924   12.2928 H         1 B19300      0.0000 
     43 H          -4.5150   -1.0598   16.7785 H         1 B19300      0.0000 
@<TRIPOS>BOND
     1    2    1 1    
     2   31    1 1    
     3   32    1 1    
     4   33    1 1    
     5    3    2 1    
     6    4    2 1    
     7    5    2 1    
     8   34    3 1    
     9   35    3 1    
    10   36    3 1    
    11   16    4 1    
    12    6    5 1    
    13    7    6 1    
    14   16    6 1    
    15   23    6 1    
    16    8    7 1    
    17   13    7 1    
    18   24    7 1    
    19    9    8 1    
    20   10    9 1    
    21   11    9 1    
    22   12    9 1    
    23   37   10 1    
    24   38   10 1    
    25   39   10 1    
    26   40   11 1    
    27   41   11 1    
    28   42   11 1    
    29   13   12 1    
    30   14   13 1    
    31   25   13 1    
    32   15   14 1    
    33   26   14 1    
    34   27   14 1    
    35   16   15 1    
    36   17   16 1    
    37   18   17 1    
    38   28   17 1    
    39   29   17 1    
    40   19   18 1    
    41   30   18 1    
    42   20   19 2    
    43   21   19 2    
    44   22   19 1    
    45   43   22 1    
@<TRIPOS>SUBSTRUCTURE
     1 B19300      1 GROUP   
@<TRIPOS>SET

