#    Name: 1O04_2_CAVITY_N1_6.mol2
#    Modification time : Mon Mar 10 21:01:21 2014

@<TRIPOS>MOLECULE
1O04_2_CAVITY_N1_6.mol2
   98     0     7     0     0
SMALL
NO_CHARGES


@<TRIPOS>ATOM
      1 CA         68.7482   42.3725   26.9596 C.3       6 GLY6        0.0000 
      2 CZ         67.5229   42.7953   27.7144 C.ar      5 PHE5        0.0000 
      3 CZ         66.2976   43.2182   28.4693 C.ar      5 PHE5        0.0000 
      4 O          65.0723   43.6410   29.2241 O.2       2 ALA2        0.0000 
      5 O          63.8469   44.0638   29.9790 O.2       2 ALA2        0.0000 
      6 OD1        64.5158   48.5856   25.5512 O.3       3 ASP3        0.0000 
      7 CA         63.6540   48.1046   24.4216 C.3       6 GLY6        0.0000 
      8 OG         72.2719   45.6529   30.8419 O.2       1 SER1        0.0000 
      9 NZ         72.6354   44.7491   28.9575 N.2       4 LYS4        0.0000 
     10 NZ         71.4101   45.1719   29.7124 N.2       4 LYS4        0.0000 
     11 NZ         71.7736   44.2681   27.8280 N.2       4 LYS4        0.0000 
     12 NZ         70.5482   44.6909   28.5828 N.2       4 LYS4        0.0000 
     13 CA         69.3229   45.1138   29.3377 C.3       6 GLY6        0.0000 
     14 NZ         69.9557   41.5255   32.3748 N.2       4 LYS4        0.0000 
     15 N          68.7304   41.9483   33.1296 N.2       2 ALA2        0.0000 
     16 NZ         70.1084   44.2383   31.1031 N.2       4 LYS4        0.0000 
     17 NZ         69.2466   43.7573   29.9735 N.2       4 LYS4        0.0000 
     18 CA         68.0212   44.1802   30.7284 C.3       6 GLY6        0.0000 
     19 NZ         69.6101   42.8535   28.0891 N.2       4 LYS4        0.0000 
     20 NZ         68.3847   43.2763   28.8440 N.2       4 LYS4        0.0000 
     21 CA         67.1594   43.6992   29.5988 C.3       6 GLY6        0.0000 
     22 O          65.9341   44.1220   30.3537 O.2       2 ALA2        0.0000 
     23 CA         64.7088   44.5448   31.1085 C.3       6 GLY6        0.0000 
     24 OD1        68.9009   45.0853   25.6879 O.3       3 ASP3        0.0000 
     25 N          67.6756   45.5082   26.4427 N.2       2 ALA2        0.0000 
     26 OD1        66.4503   45.9310   27.1976 O.3       3 ASP3        0.0000 
     27 N          65.5884   45.4500   26.0680 N.2       2 ALA2        0.0000 
     28 OD1        64.3631   45.8728   26.8229 O.3       3 ASP3        0.0000 
     29 O          63.5013   45.3918   25.6933 O.2       2 ALA2        0.0000 
     30 O          73.2101   47.4903   31.3356 O.2       2 ALA2        0.0000 
     31 OG         73.5736   46.5865   29.4512 O.2       1 SER1        0.0000 
     32 CA         72.3482   47.0093   30.2061 C.3       6 GLY6        0.0000 
     33 NZ         69.4756   47.8266   28.0660 N.2       4 LYS4        0.0000 
     34 OG         68.2503   48.2494   28.8208 O.2       1 SER1        0.0000 
     35 OD1        68.6138   47.3456   26.9364 O.3       3 ASP3        0.0000 
     36 OD1        67.3884   47.7684   27.6913 O.3       3 ASP3        0.0000 
     37 OD1        67.7519   46.8646   25.8069 O.3       3 ASP3        0.0000 
     38 OD1        66.5266   47.2874   26.5617 O.3       3 ASP3        0.0000 
     39 OG         67.2760   38.3019   35.7920 O.2       1 SER1        0.0000 
     40 CA         66.0507   38.7247   36.5469 C.3       6 GLY6        0.0000 
     41 OG         66.4142   37.8209   34.6625 O.2       1 SER1        0.0000 
     42 CA         65.1889   38.2437   35.4173 C.3       6 GLY6        0.0000 
     43 OG         67.1997   36.9455   36.4279 O.2       1 SER1        0.0000 
     44 CA         65.9744   37.3683   37.1827 C.3       6 GLY6        0.0000 
     45 OG         66.3379   36.4645   35.2983 O.2       1 SER1        0.0000 
     46 CA         65.1125   36.8873   36.0532 C.3       6 GLY6        0.0000 
     47 O          65.4760   35.9835   34.1688 O.2       2 ALA2        0.0000 
     48 N          68.8067   43.3047   32.4938 N.2       2 ALA2        0.0000 
     49 NZ         69.1702   42.4009   30.6094 N.2       4 LYS4        0.0000 
     50 O          67.9449   42.8237   31.3642 O.2       2 ALA2        0.0000 
     51 O          66.7196   43.2466   32.1191 O.2       2 ALA2        0.0000 
     52 CZ         68.3084   41.9199   29.4798 C.ar      5 PHE5        0.0000 
     53 CZ         67.0831   42.3427   30.2347 C.ar      5 PHE5        0.0000 
     54 CA         65.8578   42.7656   30.9895 C.3       6 GLY6        0.0000 
     55 CA         64.6324   43.1884   31.7444 C.3       6 GLY6        0.0000 
     56 CZ         66.2212   41.8617   29.1051 C.ar      5 PHE5        0.0000 
     57 O          64.9959   42.2846   29.8600 O.2       2 ALA2        0.0000 
     58 CA         63.7706   42.7074   30.6148 C.3       6 GLY6        0.0000 
     59 N          65.7051   40.0527   32.2612 N.2       2 ALA2        0.0000 
     60 CA         67.3524   39.6583   35.1562 C.3       6 GLY6        0.0000 
     61 CA         66.4906   39.1773   34.0266 C.3       6 GLY6        0.0000 
     62 CA         65.2652   39.6001   34.7815 C.3       6 GLY6        0.0000 
     63 CA         68.6541   40.5919   33.7655 C.3       6 GLY6        0.0000 
     64 N          67.4287   41.0147   34.5203 N.2       2 ALA2        0.0000 
     65 CZ         67.7922   40.1109   32.6359 C.ar      5 PHE5        0.0000 
     66 DU         66.5669   40.5337   33.3908 H         7 CUB7        0.0000 
     67 DU         72.7117   46.1055   28.3217 H         7 CUB7        0.0000 
     68 CA         71.4864   46.5283   29.0765 C.3       6 GLY6        0.0000 
     69 OD1        71.8499   45.6245   27.1921 O.3       3 ASP3        0.0000 
     70 OD1        70.6246   46.0473   27.9470 O.3       3 ASP3        0.0000 
     71 CA         69.3993   46.4702   28.7018 C.3       6 GLY6        0.0000 
     72 OD1        69.7628   45.5663   26.8174 O.3       3 ASP3        0.0000 
     73 OD1        68.5374   45.9892   27.5723 O.3       3 ASP3        0.0000 
     74 CA         67.3121   46.4120   28.3271 C.3       6 GLY6        0.0000 
     75 OD1        66.0868   46.8348   29.0820 O.3       3 ASP3        0.0000 
     76 N          70.9117   43.7871   26.6984 N.2       2 ALA2        0.0000 
     77 OD1        69.6864   44.2099   27.4533 O.3       3 ASP3        0.0000 
     78 CA         68.4611   44.6328   28.2081 C.3       6 GLY6        0.0000 
     79 CA         67.2358   45.0556   28.9630 C.3       6 GLY6        0.0000 
     80 CA         66.0104   45.4784   29.7178 C.3       6 GLY6        0.0000 
     81 O          68.8246   43.7289   26.3237 O.2       2 ALA2        0.0000 
     82 N          67.5993   44.1518   27.0786 N.2       2 ALA2        0.0000 
     83 N          66.3739   44.5746   27.8334 N.2       2 ALA2        0.0000 
     84 OD1        65.1486   44.9974   28.5883 O.3       3 ASP3        0.0000 
     85 N          65.5121   44.0936   26.7039 N.2       2 ALA2        0.0000 
     86 N          66.8901   46.3836   24.6773 N.2       2 ALA2        0.0000 
     87 N          65.6648   46.8064   25.4322 N.2       2 ALA2        0.0000 
     88 N          64.8030   46.3254   24.3026 N.2       2 ALA2        0.0000 
     89 OD1        63.5776   46.7482   25.0575 O.3       3 ASP3        0.0000 
     90 O          62.3523   47.1710   25.8123 O.2       2 ALA2        0.0000 
     91 O          62.7158   46.2672   23.9279 O.2       2 ALA2        0.0000 
     92 CZ         69.0939   41.0445   31.2452 C.ar      5 PHE5        0.0000 
     93 CZ         67.8686   41.4673   32.0001 C.ar      5 PHE5        0.0000 
     94 CA         66.6432   41.8901   32.7549 C.3       6 GLY6        0.0000 
     95 CZ         67.0067   40.9863   30.8705 C.ar      5 PHE5        0.0000 
     96 CA         65.7814   41.4091   31.6254 C.3       6 GLY6        0.0000 
     97 CZ         64.9196   40.9281   30.4958 C.ar      5 PHE5        0.0000 
     98 NZ         70.3374   48.3076   29.1955 N.2       4 LYS4        0.0000 
@<TRIPOS>BOND
@<TRIPOS>SUBSTRUCTURE
     1 SER1        8 GROUP   
     2 ALA2        4 GROUP   
     3 ASP3        6 GROUP   
     4 LYS4        9 GROUP   
     5 PHE5        2 GROUP   
     6 GLY6        1 GROUP   
     7 CUB7       66 GROUP   
@<TRIPOS>SET

