#    Name: 1o04_NAD_2_INTS_M
#    Modification time : Mon Mar 24 19:23:56 2014

@<TRIPOS>MOLECULE
1o04_NAD_2_INTS_M
  115     0    12     0     0
SMALL
NO_CHARGES


@<TRIPOS>ATOM
      1 N          66.5250   46.5485   32.6590 N.am      2 SEC2        0.0000 
      2 N          65.5270   47.3850   32.1260 N.am     10 SEL2        0.0000 
      3 N          67.5230   45.7120   33.1920 N.am      6 SEP2        0.0000 
      4 N          66.8775   47.7025   31.8420 N.am      2 SEC2        0.0000 
      5 N          68.2280   48.0200   31.5580 N.am      6 SEP2        0.0000 
      6 Zn         64.1480   47.8555   28.9370 Zn        3 ZIC7        0.0000 
      7 Zn         64.4600   47.4520   29.7750 Zn       11 ZIL7        0.0000 
      8 Zn         63.8360   48.2590   28.0990 Zn        7 ZIP7        0.0000 
      9 CA         61.8555   44.1370   32.8970 C.3       4 GLC5        0.0000 
     10 CA         62.6730   46.1070   32.9390 C.3      12 GLL5        0.0000 
     11 CA         61.0380   42.1670   32.8550 C.3       8 GLP5        0.0000 
     12 CA         64.2525   45.3405   33.7030 C.3       4 GLC5        0.0000 
     13 CA         65.8320   44.5740   34.4670 C.3       8 GLP5        0.0000 
     14 CA         58.5270   45.5710   31.7925 C.3       4 GLC5        0.0000 
     15 CA         60.2350   46.7400   32.5170 C.3      12 GLL5        0.0000 
     16 CA         56.8190   44.4020   31.0680 C.3       8 GLP5        0.0000 
     17 N          57.7685   47.4350   32.8115 N.am      2 SEC2        0.0000 
     18 N          59.0080   46.5830   33.2180 N.am     10 SEL2        0.0000 
     19 N          56.5290   48.2870   32.4050 N.am      6 SEP2        0.0000 
     20 O          59.0950   45.2400   33.6180 O.2       1 ALC1        0.0000 
     21 O          59.0080   46.5830   33.2180 O.2       9 ALL1        0.0000 
     22 O          59.1820   43.8970   34.0180 O.2       5 ALP1        0.0000 
     23 N          57.8210   48.4775   31.9265 N.am      2 SEC2        0.0000 
     24 N          59.1130   48.6680   31.4480 N.am     10 SEL2        0.0000 
     25 O          58.4675   48.2655   30.3615 O.2       1 ALC1        0.0000 
     26 O          59.1130   48.6680   31.4480 O.2       9 ALL1        0.0000 
     27 O          57.8220   47.8630   29.2750 O.2       5 ALP1        0.0000 
     28 CA         60.3285   48.3730   34.8885 C.3       4 GLC5        0.0000 
     29 CA         60.7970   48.9390   33.1900 C.3      12 GLL5        0.0000 
     30 CA         59.8600   47.8070   36.5870 C.3       8 GLP5        0.0000 
     31 CA         62.2525   48.5350   34.6560 C.3       4 GLC5        0.0000 
     32 CA         63.7080   48.1310   36.1220 C.3       8 GLP5        0.0000 
     33 CA         60.8540   53.2905   31.4275 C.3       4 GLC5        0.0000 
     34 CA         62.0900   52.3410   32.9870 C.3      12 GLL5        0.0000 
     35 CA         59.6180   54.2400   29.8680 C.3       8 GLP5        0.0000 
     36 CA         60.8560   54.7145   32.6605 C.3       4 GLC5        0.0000 
     37 CA         62.2570   53.5740   33.6200 C.3      12 GLL5        0.0000 
     38 CA         59.4550   55.8550   31.7010 C.3       8 GLP5        0.0000 
     39 CA         63.8630   54.7030   34.6115 C.3       4 GLC5        0.0000 
     40 CA         65.4690   55.8320   35.6030 C.3       8 GLP5        0.0000 
     41 CA         60.3870   51.3355   37.1500 C.3       4 GLC5        0.0000 
     42 CA         61.1800   52.6230   35.5380 C.3      12 GLL5        0.0000 
     43 CA         59.5940   50.0480   38.7620 C.3       8 GLP5        0.0000 
     44 CA         59.4165   52.4765   35.7735 C.3       4 GLC5        0.0000 
     45 CA         57.6530   52.3300   36.0090 C.3       8 GLP5        0.0000 
     46 CA         60.1530   54.1860   36.1255 C.3       4 GLC5        0.0000 
     47 CA         59.1260   55.7490   36.7130 C.3       8 GLP5        0.0000 
     48 CA         63.1295   51.7795   34.9330 C.3       4 GLC5        0.0000 
     49 CA         65.0790   50.9360   34.3280 C.3       8 GLP5        0.0000 
     50 CA         62.2025   52.1680   36.9675 C.3       4 GLC5        0.0000 
     51 CA         63.2250   51.7130   38.3970 C.3       8 GLP5        0.0000 
     52 N          66.1975   45.4730   32.1325 N.am      2 SEC2        0.0000 
     53 N          64.8720   45.2340   31.0730 N.am     10 SEL2        0.0000 
     54 N          63.6490   43.4885   28.1470 N.am      2 SEC2        0.0000 
     55 N          64.6350   44.3460   28.7260 N.am     10 SEL2        0.0000 
     56 N          62.6630   42.6310   27.5680 N.am      6 SEP2        0.0000 
     57 CA         66.5455   40.7975   29.3380 C.3       4 GLC5        0.0000 
     58 CA         66.2410   42.4420   30.2600 C.3      12 GLL5        0.0000 
     59 CA         66.8500   39.1530   28.4160 C.3       8 GLP5        0.0000 
     60 CA         66.5335   43.6390   32.9280 C.3       4 GLC5        0.0000 
     61 CA         67.2350   42.7040   31.3890 C.3      12 GLL5        0.0000 
     62 CA         67.3600   40.7425   30.5020 C.3       4 GLC5        0.0000 
     63 CA         67.4850   38.7810   29.6150 C.3       8 GLP5        0.0000 
     64 O          70.6715   42.6160   30.8420 O.2       1 ALC1        0.0000 
     65 O          69.5630   42.9470   31.4570 O.2       9 ALL1        0.0000 
     66 O          71.7800   42.2850   30.2270 O.2       5 ALP1        0.0000 
     67 CA         70.4365   41.4760   33.0540 C.3       4 GLC5        0.0000 
     68 CA         68.5720   40.8660   32.1230 C.3      12 GLL5        0.0000 
     69 CA         72.3010   42.0860   33.9850 C.3       8 GLP5        0.0000 
     70 O          70.9140   40.3020   31.7205 O.2       1 ALC1        0.0000 
     71 O          69.8550   40.4290   32.5110 O.2       9 ALL1        0.0000 
     72 O          71.9730   40.1750   30.9300 O.2       5 ALP1        0.0000 
     73 CA         66.8125   43.0160   33.8715 C.3       4 GLC5        0.0000 
     74 CA         67.7930   41.4580   33.2760 C.3      12 GLL5        0.0000 
     75 CA         69.0160   41.8305   36.1415 C.3       4 GLC5        0.0000 
     76 CA         67.7340   40.2130   35.3450 C.3      12 GLL5        0.0000 
     77 CA         70.2980   43.4480   36.9380 C.3       8 GLP5        0.0000 
     78 CA         67.2845   40.2195   38.1730 C.3       4 GLC5        0.0000 
     79 CA         67.2140   39.2190   36.1720 C.3      12 GLL5        0.0000 
     80 CA         67.3550   41.2200   40.1740 C.3       8 GLP5        0.0000 
     81 O          68.8980   39.3830   39.5055 O.2       1 ALC1        0.0000 
     82 O          68.9170   39.6480   37.9080 O.2       9 ALL1        0.0000 
     83 O          68.8790   39.1180   41.1030 O.2       5 ALP1        0.0000 
     84 O          69.7820   40.4525   36.9565 O.2       1 ALC1        0.0000 
     85 O          70.6470   41.2570   36.0050 O.2       5 ALP1        0.0000 
     86 CA         62.8727   47.2758   34.6713 C.3       4 GLC5        0.0000 
     87 CA         60.3392   47.2720   34.7983 C.3       4 GLC5        0.0000 
     88 CA         61.4020   46.7340   33.5020 C.3      12 GLL5        0.0000 
     89 CA         58.4985   48.7057   33.1997 C.3       4 GLC5        0.0000 
     90 CA         56.4350   48.8610   33.8150 C.3       8 GLP5        0.0000 
     91 CA         59.6985   50.3178   32.1448 C.3       4 GLC5        0.0000 
     92 CA         60.3270   48.1620   31.9790 C.3      12 GLL5        0.0000 
     93 CA         58.8350   52.0850   31.7050 C.3       8 GLP5        0.0000 
     94 CA         60.3286   52.1044   32.5926 C.3       4 GLC5        0.0000 
     95 CA         63.4506   51.5299   33.9041 C.3       4 GLC5        0.0000 
     96 CA         61.4710   51.2900   33.6570 C.3      12 GLL5        0.0000 
     97 CA         68.3923   44.1883   32.0135 C.3       4 GLC5        0.0000 
     98 CA         68.8880   46.0170   32.7690 C.3       8 GLP5        0.0000 
     99 CA         68.7220   40.0682   30.6415 C.3       4 GLC5        0.0000 
    100 CA         68.5580   42.0150   31.1270 C.3      12 GLL5        0.0000 
    101 CA         68.8790   38.6960   29.6580 C.3       8 GLP5        0.0000 
    102 CA         68.9903   39.5400   33.5102 C.3       4 GLC5        0.0000 
    103 CA         69.7980   37.9180   34.3210 C.3       8 GLP5        0.0000 
    104 CA         66.0915   40.3910   36.4447 C.3       4 GLC5        0.0000 
    105 CA         64.7090   41.0660   37.1310 C.3       8 GLP5        0.0000 
    106 CA         68.6360   38.8170   35.0397 C.3       4 GLC5        0.0000 
    107 CA         64.2305   37.9818   36.0847 C.3       4 GLC5        0.0000 
    108 CA         66.1110   38.4590   35.7750 C.3      12 GLL5        0.0000 
    109 CA         62.6340   37.3840   37.0220 C.3       8 GLP5        0.0000 
    110 CA         64.1745   40.0158   34.0680 C.3       4 GLC5        0.0000 
    111 CA         65.5430   38.7000   34.5200 C.3      12 GLL5        0.0000 
    112 CA         62.5320   40.8380   34.0320 C.3       8 GLP5        0.0000 
    113 CA         65.3340   40.0996   35.7744 C.3       4 GLC5        0.0000 
    114 CA         66.0910   39.6870   33.6880 C.3      12 GLL5        0.0000 
    115 CA         67.8785   38.5256   34.3694 C.3       4 GLC5        0.0000 
@<TRIPOS>BOND
@<TRIPOS>SUBSTRUCTURE
     1 ALC1       20 GROUP        1 X    ALC  0     ROOT ALC X 1
     2 SEC2        1 GROUP        1 X    SEC  0     **** SEC X 2
     3 ZIC7        6 GROUP        1 X    ZIC  0     **** ZIC X 5
     4 GLC5        9 GROUP        1 X    GLC  0     **** GLC X 6
     5 ALP1       22 GROUP        1 Y    ALP  0     ROOT ALP Y 8
     6 SEP2        3 GROUP        1 Y    SEP  0     **** SEP Y 9
     7 ZIP7        8 GROUP        1 Y    ZIP  0     **** ZIP Y 12
     8 GLP5       11 GROUP        1 Y    GLP  0     **** GLP Y 13
     9 ALL1       21 GROUP        1 Z    ALL  0     ROOT ALL Z 15
    10 SEL2        2 GROUP        1 Z    SEL  0     **** SEL Z 16
    11 ZIL7        7 GROUP        1 Z    ZIL  0     **** ZIL Z 19
    12 GLL5       10 GROUP        1 Z    GLL  0     **** GLL Z 20
@<TRIPOS>SET

