#    Name: 1o04_NAD_2_ligand
#    Modification time : Mon Mar 24 19:23:56 2014

@<TRIPOS>MOLECULE
1o04_NAD_2_ligand
   70    74     1     0     0
SMALL
NO_CHARGES


@<TRIPOS>ATOM
      1 PA         64.5540   46.8190   31.1670 P.3       1 NAD6502     0.0000 
      2 O1A        65.5270   47.3850   32.1260 O.co2     1 NAD6502     0.0000 
      3 O2A        64.4600   47.4520   29.7750 O.co2     1 NAD6502     0.0000 
      4 O5B        63.0480   46.8580   31.7860 O.3       1 NAD6502     0.0000 
      5 C5B        62.6730   46.1070   32.9390 C.3       1 NAD6502     0.0000 
      6 C4B        61.4020   46.7340   33.5020 C.3       1 NAD6502     0.0000 
      7 O4B        61.6970   48.0810   33.8450 O.3       1 NAD6502     0.0000 
      8 C3B        60.2350   46.7400   32.5170 C.3       1 NAD6502     0.0000 
      9 O3B        59.0080   46.5830   33.2180 O.3       1 NAD6502     0.0000 
     10 C2B        60.3270   48.1620   31.9790 C.3       1 NAD6502     0.0000 
     11 O2B        59.1130   48.6680   31.4480 O.3       1 NAD6502     0.0000 
     12 C1B        60.7970   48.9390   33.1900 C.3       1 NAD6502     0.0000 
     13 N9A        61.4370   50.2160   32.8200 N.pl3     1 NAD6502     0.0000 
     14 C8A        62.0410   50.5850   31.6350 C.2       1 NAD6502     0.0000 
     15 N7A        62.4070   51.8960   31.7480 N.2       1 NAD6502     0.0000 
     16 C5A        62.0900   52.3410   32.9870 C.ar      1 NAD6502     0.0000 
     17 C6A        62.2570   53.5740   33.6200 C.ar      1 NAD6502     0.0000 
     18 N6A        62.8480   54.6260   33.0260 N.pl3     1 NAD6502     0.0000 
     19 N1A        61.7770   53.6830   34.9090 N.ar      1 NAD6502     0.0000 
     20 C2A        61.1800   52.6230   35.5380 C.ar      1 NAD6502     0.0000 
     21 N3A        61.0160   51.4110   34.9230 N.ar      1 NAD6502     0.0000 
     22 C4A        61.4710   51.2900   33.6570 C.ar      1 NAD6502     0.0000 
     23 O3         64.8720   45.2340   31.0730 O.3       1 NAD6502     0.0000 
     24 PN         64.2060   44.1110   30.1430 P.3       1 NAD6502     0.0000 
     25 O1N        64.6350   44.3460   28.7260 O.co2     1 NAD6502     0.0000 
     26 O2N        62.7490   44.0180   30.5140 O.co2     1 NAD6502     0.0000 
     27 O5D        64.9360   42.7830   30.6810 O.3       1 NAD6502     0.0000 
     28 C5D        66.2410   42.4420   30.2600 C.3       1 NAD6502     0.0000 
     29 C4D        67.2350   42.7040   31.3890 C.3       1 NAD6502     0.0000 
     30 O4D        66.7720   42.2210   32.6520 O.3       1 NAD6502     0.0000 
     31 C3D        68.5580   42.0150   31.1270 C.3       1 NAD6502     0.0000 
     32 O3D        69.5630   42.9470   31.4570 O.3       1 NAD6502     0.0000 
     33 C2D        68.5720   40.8660   32.1230 C.3       1 NAD6502     0.0000 
     34 O2D        69.8550   40.4290   32.5110 O.3       1 NAD6502     0.0000 
     35 C1D        67.7930   41.4580   33.2760 C.3       1 NAD6502     0.0000 
     36 N1N        67.1710   40.4180   34.1150 N.pl3     1 NAD6502     0.0000 
     37 C2N        67.7340   40.2130   35.3450 C.ar      1 NAD6502     0.0000 
     38 C3N        67.2140   39.2190   36.1720 C.ar      1 NAD6502     0.0000 
     39 C7N        67.8340   38.9850   37.5170 C.2       1 NAD6502     0.0000 
     40 O7N        67.2250   38.0630   38.3620 O.2       1 NAD6502     0.0000 
     41 N7N        68.9170   39.6480   37.9080 N.am      1 NAD6502     0.0000 
     42 C4N        66.1110   38.4590   35.7750 C.ar      1 NAD6502     0.0000 
     43 C5N        65.5430   38.7000   34.5200 C.ar      1 NAD6502     0.0000 
     44 C6N        66.0910   39.6870   33.6880 C.ar      1 NAD6502     0.0000 
     45 H          63.4359   46.1406   33.7134 H         1 NAD6502     0.0000 
     46 H          62.4570   45.0689   32.6970 H         1 NAD6502     0.0000 
     47 H          61.1062   46.1794   34.3813 H         1 NAD6502     0.0000 
     48 H          60.4165   46.0700   31.7589 H         1 NAD6502     0.0000 
     49 H          61.1436   48.1757   31.2648 H         1 NAD6502     0.0000 
     50 H          59.9284   49.1224   33.8111 H         1 NAD6502     0.0000 
     51 H          62.1743   50.0213   30.8803 H         1 NAD6502     0.0000 
     52 H          63.1552   54.4846   32.0849 H         1 NAD6502     0.0000 
     53 H          62.9275   55.4558   33.5784 H         1 NAD6502     0.0000 
     54 H          60.8374   52.7440   36.5229 H         1 NAD6502     0.0000 
     55 H          66.5632   43.0331   29.3918 H         1 NAD6502     0.0000 
     56 H          66.3233   41.3812   29.9864 H         1 NAD6502     0.0000 
     57 H          67.4291   43.7715   31.4397 H         1 NAD6502     0.0000 
     58 H          68.5823   41.6586   30.1613 H         1 NAD6502     0.0000 
     59 H          67.9529   40.0807   31.7052 H         1 NAD6502     0.0000 
     60 H          68.4404   42.0789   33.8441 H         1 NAD6502     0.0000 
     61 H          68.5284   40.7771   35.6649 H         1 NAD6502     0.0000 
     62 H          69.2584   39.4326   38.8229 H         1 NAD6502     0.0000 
     63 H          69.2929   40.3026   37.2521 H         1 NAD6502     0.0000 
     64 H          65.7273   37.7428   36.3875 H         1 NAD6502     0.0000 
     65 H          64.7321   38.1602   34.2089 H         1 NAD6502     0.0000 
     66 H          65.6746   39.8523   32.7623 H         1 NAD6502     0.0000 
     67 H          58.7732   45.6164   33.1153 H         1 NAD6502     0.0000 
     68 H          58.9621   48.1485   30.6070 H         1 NAD6502     0.0000 
     69 H          70.4218   42.4413   31.3746 H         1 NAD6502     0.0000 
     70 H          70.4041   40.4651   31.6760 H         1 NAD6502     0.0000 
@<TRIPOS>BOND
     1    2    1 ar   
     2    3    1 ar   
     3    4    1 1    
     4   23    1 1    
     5    5    4 1    
     6    6    5 1    
     7   45    5 1    
     8   46    5 1    
     9    7    6 1    
    10    8    6 1    
    11   47    6 1    
    12   12    7 1    
    13    9    8 1    
    14   10    8 1    
    15   48    8 1    
    16   67    9 1    
    17   11   10 1    
    18   12   10 1    
    19   49   10 1    
    20   68   11 1    
    21   13   12 1    
    22   50   12 1    
    23   14   13 1    
    24   22   13 1    
    25   15   14 2    
    26   51   14 1    
    27   16   15 1    
    28   17   16 ar   
    29   22   16 ar   
    30   18   17 1    
    31   19   17 ar   
    32   52   18 1    
    33   53   18 1    
    34   20   19 ar   
    35   21   20 ar   
    36   54   20 1    
    37   22   21 ar   
    38   24   23 1    
    39   25   24 ar   
    40   26   24 ar   
    41   27   24 1    
    42   28   27 1    
    43   29   28 1    
    44   55   28 1    
    45   56   28 1    
    46   30   29 1    
    47   31   29 1    
    48   57   29 1    
    49   35   30 1    
    50   32   31 1    
    51   33   31 1    
    52   58   31 1    
    53   69   32 1    
    54   34   33 1    
    55   35   33 1    
    56   59   33 1    
    57   70   34 1    
    58   36   35 1    
    59   60   35 1    
    60   37   36 ar   
    61   44   36 ar   
    62   38   37 ar   
    63   61   37 1    
    64   39   38 1    
    65   42   38 ar   
    66   40   39 2    
    67   41   39 am   
    68   62   41 1    
    69   63   41 1    
    70   43   42 ar   
    71   64   42 1    
    72   44   43 ar   
    73   65   43 1    
    74   66   44 1    
@<TRIPOS>SUBSTRUCTURE
     1 NAD6502     1 GROUP   
@<TRIPOS>SET

