#    Name: 4j0v_1H7_1_INTS_M
#    Modification time : Tue Mar 25 04:59:30 2014

@<TRIPOS>MOLECULE
4j0v_1H7_1_INTS_M
   57     0     6     0     0
SMALL
NO_CHARGES


@<TRIPOS>ATOM
      1 CA        -21.1005  -45.3410   -2.1760 C.3       2 GLC5        0.0000 
      2 CA        -22.1640  -43.3940   -2.2920 C.3       6 GLL5        0.0000 
      3 CA        -20.0370  -47.2880   -2.0600 C.3       4 GLP5        0.0000 
      4 CA        -18.5190  -41.1710   -2.5790 C.3       2 GLC5        0.0000 
      5 CA        -20.0680  -42.0580   -1.9920 C.3       6 GLL5        0.0000 
      6 CA        -16.9700  -40.2840   -3.1660 C.3       4 GLP5        0.0000 
      7 CA        -18.4295  -43.0655   -2.8855 C.3       2 GLC5        0.0000 
      8 CA        -16.7910  -44.0730   -3.7790 C.3       4 GLP5        0.0000 
      9 CA        -19.3880  -44.3375    0.9155 C.3       2 GLC5        0.0000 
     10 CA        -20.7430  -43.6820   -0.2960 C.3       6 GLL5        0.0000 
     11 CA        -18.0330  -44.9930    2.1270 C.3       4 GLP5        0.0000 
     12 O         -19.0595  -41.0700   -5.2915 O.2       1 ALC1        0.0000 
     13 O         -20.3880  -40.4790   -5.6560 O.2       5 ALL1        0.0000 
     14 O         -17.7310  -41.6610   -4.9270 O.2       3 ALP1        0.0000 
     15 CA        -17.8960  -39.9300   -5.1850 C.3       2 GLC5        0.0000 
     16 CA        -18.8220  -39.5760   -7.2040 C.3       6 GLL5        0.0000 
     17 CA        -15.0975  -36.3510   -8.5675 C.3       2 GLC5        0.0000 
     18 CA        -16.7710  -37.2920   -9.1470 C.3       6 GLL5        0.0000 
     19 CA        -13.4240  -35.4100   -7.9880 C.3       4 GLP5        0.0000 
     20 CA        -16.8480  -36.8295  -10.9275 C.3       2 GLC5        0.0000 
     21 CA        -16.9250  -36.3670  -12.7080 C.3       4 GLP5        0.0000 
     22 CA        -18.4100  -36.4460   -8.2835 C.3       2 GLC5        0.0000 
     23 CA        -20.0490  -35.6000   -7.4200 C.3       4 GLP5        0.0000 
     24 CA        -16.2280  -40.1640   -5.2545 C.3       2 GLC5        0.0000 
     25 CA        -15.4860  -40.0440   -7.3430 C.3       6 GLL5        0.0000 
     26 O         -15.9350  -37.8590   -6.8115 O.2       1 ALC1        0.0000 
     27 O         -16.0800  -38.9190   -7.6070 O.2       5 ALL1        0.0000 
     28 O         -15.7900  -36.7990   -6.0160 O.2       3 ALP1        0.0000 
     29 O         -14.8100  -39.0640   -5.3135 O.2       1 ALC1        0.0000 
     30 O         -14.6560  -40.1300   -6.2230 O.2       5 ALL1        0.0000 
     31 O         -14.9640  -37.9980   -4.4040 O.2       3 ALP1        0.0000 
     32 O         -13.9135  -41.1345   -5.6990 O.2       1 ALC1        0.0000 
     33 O         -13.1710  -42.1390   -5.1750 O.2       3 ALP1        0.0000 
     34 CA        -18.6600  -37.5755  -11.9065 C.3       2 GLC5        0.0000 
     35 CA        -19.1870  -38.3220  -10.6080 C.3       6 GLL5        0.0000 
     36 CA        -18.1330  -36.8290  -13.2050 C.3       4 GLP5        0.0000 
     37 CA        -20.1375  -37.0260  -10.7660 C.3       2 GLC5        0.0000 
     38 CA        -21.0880  -35.7300  -10.9240 C.3       4 GLP5        0.0000 
     39 CA        -24.1030  -42.6872   -2.2437 C.3       2 GLC5        0.0000 
     40 CA        -22.3600  -42.7290   -3.4970 C.3       6 GLL5        0.0000 
     41 CA        -25.9440  -42.3130   -1.5930 C.3       4 GLP5        0.0000 
     42 CA        -22.3728  -41.5362   -1.8117 C.3       2 GLC5        0.0000 
     43 CA        -22.8560  -40.8220    0.0610 C.3       4 GLP5        0.0000 
     44 CA        -21.8174  -41.9909   -0.5324 C.3       2 GLC5        0.0000 
     45 CA        -19.7728  -44.9838   -1.2860 C.3       2 GLC5        0.0000 
     46 CA        -20.9580  -43.0410   -1.5460 C.3       6 GLL5        0.0000 
     47 CA        -18.6950  -46.6060   -1.6510 C.3       4 GLP5        0.0000 
     48 CA        -20.3560  -37.6628   -7.3905 C.3       2 GLC5        0.0000 
     49 CA        -20.1530  -39.8460   -6.9060 C.3       6 GLL5        0.0000 
     50 CA        -19.3477  -37.4580   -7.6182 C.3       2 GLC5        0.0000 
     51 CA        -18.4710  -39.0560   -8.4290 C.3       6 GLL5        0.0000 
     52 CA        -20.1313  -38.4914   -5.6913 C.3       2 GLC5        0.0000 
     53 CA        -20.5200  -37.3320   -4.1000 C.3       4 GLP5        0.0000 
     54 CA        -15.8825  -38.9642  -11.7417 C.3       2 GLC5        0.0000 
     55 CA        -16.5480  -39.7710   -9.8360 C.3       6 GLL5        0.0000 
     56 CA        -15.8610  -38.3370  -13.4410 C.3       4 GLP5        0.0000 
     57 CA        -19.8650  -37.1183   -8.6676 C.3       2 GLC5        0.0000 
@<TRIPOS>BOND
@<TRIPOS>SUBSTRUCTURE
     1 ALC1       12 GROUP        1 X    ALC  0     ROOT ALC X 1
     2 GLC5        1 GROUP        1 X    GLC  0     **** GLC X 6
     3 ALP1       14 GROUP        1 Y    ALP  0     ROOT ALP Y 8
     4 GLP5        3 GROUP        1 Y    GLP  0     **** GLP Y 13
     5 ALL1       13 GROUP        1 Z    ALL  0     ROOT ALL Z 15
     6 GLL5        2 GROUP        1 Z    GLL  0     **** GLL Z 20
@<TRIPOS>SET

