#    Name: 4j0v_1H7_1_ligand
#    Modification time : Tue Mar 25 04:59:30 2014

@<TRIPOS>MOLECULE
4j0v_1H7_1_ligand
   43    45     1     0     0
SMALL
NO_CHARGES


@<TRIPOS>ATOM
      1 C2        -22.1640  -43.3940   -2.2920 C.ar      1 1H7504      0.0000 
      2 C4        -21.4190  -41.7720   -3.8720 C.ar      1 1H7504      0.0000 
      3 C6        -20.0680  -42.0580   -1.9920 C.ar      1 1H7504      0.0000 
      4 C7        -21.5220  -41.0930   -5.1770 C.2       1 1H7504      0.0000 
      5 C10       -20.7430  -43.6820   -0.2960 C.1       1 1H7504      0.0000 
      6 C1        -20.9580  -43.0410   -1.5460 C.ar      1 1H7504      0.0000 
      7 C3        -22.3600  -42.7290   -3.4970 C.ar      1 1H7504      0.0000 
      8 N5        -20.3580  -41.4630   -3.1370 N.ar      1 1H7504      0.0000 
      9 N8        -20.3880  -40.4790   -5.6560 N.am      1 1H7504      0.0000 
     10 O9        -22.5690  -41.1630   -5.7800 O.2       1 1H7504      0.0000 
     11 N11       -20.5590  -44.1810    0.6800 N.1       1 1H7504      0.0000 
     12 C12       -20.1530  -39.8460   -6.9060 C.ar      1 1H7504      0.0000 
     13 C13       -21.1730  -39.6050   -7.8160 C.ar      1 1H7504      0.0000 
     14 C14       -20.8460  -39.1000   -9.0780 C.ar      1 1H7504      0.0000 
     15 C15       -19.5040  -38.8020   -9.3670 C.ar      1 1H7504      0.0000 
     16 C16       -18.4710  -39.0560   -8.4290 C.ar      1 1H7504      0.0000 
     17 C17       -18.8220  -39.5760   -7.2040 C.ar      1 1H7504      0.0000 
     18 C18       -16.9960  -38.7690   -8.7620 C.3       1 1H7504      0.0000 
     19 C19       -16.7710  -37.2920   -9.1470 C.3       1 1H7504      0.0000 
     20 C20       -16.4400  -41.2100   -9.2980 C.3       1 1H7504      0.0000 
     21 O21       -15.6350  -41.1310   -8.0860 O.3       1 1H7504      0.0000 
     22 C22       -15.4860  -40.0440   -7.3430 C.2       1 1H7504      0.0000 
     23 N23       -16.0800  -38.9190   -7.6070 N.pl3     1 1H7504      0.0000 
     24 N24       -14.6560  -40.1300   -6.2230 N.pl3     1 1H7504      0.0000 
     25 C25       -16.5480  -39.7710   -9.8360 C.3       1 1H7504      0.0000 
     26 F26       -15.2600  -39.4120  -10.2490 F         1 1H7504      0.0000 
     27 F27       -19.1870  -38.3220  -10.6080 F         1 1H7504      0.0000 
     28 H         -22.7866  -44.0744   -1.9298 H         1 1H7504      0.0000 
     29 H         -19.2456  -41.8377   -1.4343 H         1 1H7504      0.0000 
     30 H         -23.1597  -42.9322   -4.0840 H         1 1H7504      0.0000 
     31 H         -19.5233  -40.4683   -4.9804 H         1 1H7504      0.0000 
     32 H         -22.1453  -39.7915   -7.5728 H         1 1H7504      0.0000 
     33 H         -21.5680  -38.9493   -9.7797 H         1 1H7504      0.0000 
     34 H         -18.0941  -39.7698   -6.4949 H         1 1H7504      0.0000 
     35 H         -17.4343  -41.5679   -9.0912 H         1 1H7504      0.0000 
     36 H         -15.9654  -41.8164  -10.0507 H         1 1H7504      0.0000 
     37 H         -15.9597  -38.0517   -7.0368 H         1 1H7504      0.0000 
     38 H         -14.2158  -41.0145   -6.0684 H         1 1H7504      0.0000 
     39 H         -14.5732  -39.2997   -5.6719 H         1 1H7504      0.0000 
     40 H         -17.2432  -39.7586  -10.6417 H         1 1H7504      0.0000 
     41 H         -15.8130  -37.1071   -9.3662 H         1 1H7504      0.0000 
     42 H         -17.3106  -37.0305   -9.9473 H         1 1H7504      0.0000 
     43 H         -17.0270  -36.6718   -8.4055 H         1 1H7504      0.0000 
@<TRIPOS>BOND
     1    6    1 ar   
     2    7    1 ar   
     3   28    1 1    
     4    4    2 1    
     5    7    2 ar   
     6    8    2 ar   
     7    6    3 ar   
     8    8    3 ar   
     9   29    3 1    
    10    9    4 am   
    11   10    4 2    
    12    6    5 1    
    13   11    5 3    
    14   30    7 1    
    15   12    9 1    
    16   31    9 1    
    17   13   12 ar   
    18   17   12 ar   
    19   14   13 ar   
    20   32   13 1    
    21   15   14 ar   
    22   33   14 1    
    23   16   15 ar   
    24   27   15 1    
    25   17   16 ar   
    26   18   16 1    
    27   34   17 1    
    28   19   18 1    
    29   23   18 1    
    30   25   18 1    
    31   41   19 1    
    32   42   19 1    
    33   43   19 1    
    34   21   20 1    
    35   25   20 1    
    36   35   20 1    
    37   36   20 1    
    38   22   21 1    
    39   23   22 2    
    40   24   22 1    
    41   37   23 1    
    42   38   24 1    
    43   39   24 1    
    44   26   25 1    
    45   40   25 1    
@<TRIPOS>SUBSTRUCTURE
     1 1H7504      1 GROUP   
@<TRIPOS>SET

