#    Name: 2vwh_NAP_1_INTS_M
#    Modification time : Tue Mar 25 03:10:28 2014

@<TRIPOS>MOLECULE
2vwh_NAP_1_INTS_M
   87     0    12     0     0
SMALL
NO_CHARGES


@<TRIPOS>ATOM
      1 CA         -4.2850   29.0680   19.3195 C.3       4 GLC5        0.0000 
      2 CA         -2.7910   28.0580   20.6200 C.3      12 GLL5        0.0000 
      3 CA         -5.7790   30.0780   18.0190 C.3       8 GLP5        0.0000 
      4 CA         -4.9140   28.2305   18.8825 C.3       4 GLC5        0.0000 
      5 CA         -4.0490   26.3830   19.7460 C.3      12 GLL5        0.0000 
      6 CA         -4.1065   27.1205   17.6830 C.3       4 GLC5        0.0000 
      7 CA         -4.1640   27.8580   15.6200 C.3       8 GLP5        0.0000 
      8 N          -8.3055   23.0945   16.3100 N.am      2 SEC2        0.0000 
      9 N          -7.1050   23.7210   16.4900 N.am     10 SEL2        0.0000 
     10 N          -9.5060   22.4680   16.1300 N.am      6 SEP2        0.0000 
     11 CA         -8.0675   25.7335   15.8355 C.3       4 GLC5        0.0000 
     12 CA         -7.4550   24.7460   17.3470 C.3      12 GLL5        0.0000 
     13 CA         -8.6800   26.7210   14.3240 C.3       8 GLP5        0.0000 
     14 CA         -8.5800   25.6665   18.4250 C.3       4 GLC5        0.0000 
     15 CA         -9.7050   26.5870   19.5030 C.3       8 GLP5        0.0000 
     16 CA         -7.5290   23.5165   18.8650 C.3       4 GLC5        0.0000 
     17 CA         -7.6030   22.2870   20.3830 C.3       8 GLP5        0.0000 
     18 CA         -8.8565   23.9325   16.2360 C.3       4 GLC5        0.0000 
     19 CA        -10.2580   23.1190   15.1250 C.3       8 GLP5        0.0000 
     20 N          -0.9385   33.8865   21.8595 N.am      2 SEC2        0.0000 
     21 N          -0.4200   32.5000   21.5470 N.am     10 SEL2        0.0000 
     22 N          -1.4570   35.2730   22.1720 N.am      6 SEP2        0.0000 
     23 N           3.0720   32.0610   23.2475 N.am      2 SEC2        0.0000 
     24 N           1.9570   32.7160   22.4930 N.am     10 SEL2        0.0000 
     25 N           4.1870   31.4060   24.0020 N.am      6 SEP2        0.0000 
     26 CA          0.2680   33.7205   19.4315 C.3       4 GLC5        0.0000 
     27 CA          0.9060   31.8120   18.9120 C.3      12 GLL5        0.0000 
     28 CA         -0.3700   35.6290   19.9510 C.3       8 GLP5        0.0000 
     29 CA         -0.6735   32.5195   17.7010 C.3       4 GLC5        0.0000 
     30 CA         -2.2530   33.2270   16.4900 C.3       8 GLP5        0.0000 
     31 CA          0.0475   31.7355   16.6905 C.3       4 GLC5        0.0000 
     32 CA          1.8850   31.3410   17.8350 C.3      12 GLL5        0.0000 
     33 CA         -1.7900   32.1300   15.5460 C.3       8 GLP5        0.0000 
     34 CA          2.2570   31.1410   15.7840 C.3       4 GLC5        0.0000 
     35 CA          2.6290   30.9410   13.7330 C.3       8 GLP5        0.0000 
     36 N           4.0550   29.7860   15.8020 N.am      2 SEC2        0.0000 
     37 N           3.3450   29.5530   17.2170 N.am     10 SEL2        0.0000 
     38 N           4.7650   30.0190   14.3870 N.am      6 SEP2        0.0000 
     39 N           6.2195   31.6590   19.2270 N.am      2 SEC2        0.0000 
     40 N           5.4020   30.7840   18.5840 N.am     10 SEL2        0.0000 
     41 N           7.0370   32.5340   19.8700 N.am      6 SEP2        0.0000 
     42 CA          3.2925   31.6485   15.6015 C.3       4 GLC5        0.0000 
     43 CA          3.9560   32.3560   17.4700 C.3      12 GLL5        0.0000 
     44 CA          5.6315   31.8165   16.3580 C.3       4 GLC5        0.0000 
     45 CA          7.3070   31.2770   15.2460 C.3       8 GLP5        0.0000 
     46 CA          6.1580   32.8070   15.9115 C.3       4 GLC5        0.0000 
     47 CA          5.0090   34.3370   16.5770 C.3      12 GLL5        0.0000 
     48 N           7.3755   38.4485   14.7725 N.am      2 SEC2        0.0000 
     49 N           6.5990   37.4650   15.4010 N.am     10 SEL2        0.0000 
     50 N           8.1520   39.4320   14.1440 N.am      6 SEP2        0.0000 
     51 O           4.6315   34.6040   13.9960 O.2       1 ALC1        0.0000 
     52 O           5.4720   35.7910   14.1300 O.2       9 ALL1        0.0000 
     53 O           3.7910   33.4170   13.8620 O.2       5 ALP1        0.0000 
     54 O           5.3190   36.3930   12.7240 O.2       1 ALC1        0.0000 
     55 O           5.1660   36.9950   11.3180 O.2       5 ALP1        0.0000 
     56 NZ         -4.6100   25.3985   25.0565 N.4       3 LYC4        0.0000 
     57 NZ         -3.7240   24.7120   24.1020 N.4      11 LYL4        0.0000 
     58 NZ         -6.7330   25.6500   26.2140 N.4       7 LYP4        0.0000 
     59 N          -4.6100   25.3985   25.0565 N.am      2 SEC2        0.0000 
     60 N          -3.7240   24.7120   24.1020 N.am     10 SEL2        0.0000 
     61 N          -5.4960   26.0850   26.0110 N.am      6 SEP2        0.0000 
     62 NZ         -3.1625   22.1945   21.2255 N.4       3 LYC4        0.0000 
     63 NZ         -3.3320   23.0550   22.3420 N.4      11 LYL4        0.0000 
     64 NZ         -4.1670   21.1220   19.5440 N.4       7 LYP4        0.0000 
     65 N          -4.2995   22.3250   21.2330 N.am      2 SEC2        0.0000 
     66 N          -3.3320   23.0550   22.3420 N.am     10 SEL2        0.0000 
     67 N          -5.2670   21.5950   20.1240 N.am      6 SEP2        0.0000 
     68 N          -3.1625   22.1945   21.2255 N.am      2 SEC2        0.0000 
     69 N          -2.9930   21.3340   20.1090 N.am      6 SEP2        0.0000 
     70 NZ         -6.4220   24.0715   24.3045 N.4       3 LYC4        0.0000 
     71 NZ         -5.6290   23.4700   23.1610 N.4      11 LYL4        0.0000 
     72 N          -6.4220   24.0715   24.3045 N.am      2 SEC2        0.0000 
     73 N          -5.6290   23.4700   23.1610 N.am     10 SEL2        0.0000 
     74 N          -7.2150   24.6730   25.4480 N.am      6 SEP2        0.0000 
     75 CA         -2.7295   29.8435   21.8178 C.3       4 GLC5        0.0000 
     76 CA         -3.3850   31.3930   23.0790 C.3       8 GLP5        0.0000 
     77 CA         -4.5950   26.1390   16.6285 C.3       4 GLC5        0.0000 
     78 CA         -4.8370   23.9100   17.2070 C.3      12 GLL5        0.0000 
     79 CA         -5.9426   22.8517   18.5219 C.3       4 GLC5        0.0000 
     80 CA         -5.2150   24.9300   18.0670 C.3      12 GLL5        0.0000 
     81 CA         -6.6200   21.4350   19.6070 C.3       8 GLP5        0.0000 
     82 CA          4.3405   37.7215   16.7788 C.3       4 GLC5        0.0000 
     83 CA          5.4420   35.6460   16.6170 C.3      12 GLL5        0.0000 
     84 CA          3.3010   39.4340   16.3430 C.3       8 GLP5        0.0000 
     85 CA          2.7726   35.5799   18.1994 C.3       4 GLC5        0.0000 
     86 CA          4.2660   34.4270   18.8480 C.3      12 GLL5        0.0000 
     87 CA          0.9070   35.9150   17.7910 C.3       8 GLP5        0.0000 
@<TRIPOS>BOND
@<TRIPOS>SUBSTRUCTURE
     1 ALC1       51 GROUP        1 X    ALC  0     ROOT ALC X 1
     2 SEC2        8 GROUP        1 X    SEC  0     **** SEC X 2
     3 LYC4       56 GROUP        1 X    LYC  0     **** LYC X 4
     4 GLC5        1 GROUP        1 X    GLC  0     **** GLC X 6
     5 ALP1       53 GROUP        1 Y    ALP  0     ROOT ALP Y 8
     6 SEP2       10 GROUP        1 Y    SEP  0     **** SEP Y 9
     7 LYP4       58 GROUP        1 Y    LYP  0     **** LYP Y 11
     8 GLP5        3 GROUP        1 Y    GLP  0     **** GLP Y 13
     9 ALL1       52 GROUP        1 Z    ALL  0     ROOT ALL Z 15
    10 SEL2        9 GROUP        1 Z    SEL  0     **** SEL Z 16
    11 LYL4       57 GROUP        1 Z    LYL  0     **** LYL Z 18
    12 GLL5        2 GROUP        1 Z    GLL  0     **** GLL Z 20
@<TRIPOS>SET

