#    Name: 2vwh_NAP_1_ligand
#    Modification time : Tue Mar 25 03:10:28 2014

@<TRIPOS>MOLECULE
2vwh_NAP_1_ligand
   73    77     1     0     0
SMALL
NO_CHARGES


@<TRIPOS>ATOM
      1 PA          0.3100   29.3650   22.3220 P.3       1 NAP500      0.0000 
      2 O1A         0.1080   29.7990   23.7160 O.co2     1 NAP500      0.0000 
      3 O2A         0.9830   28.0890   22.1320 O.co2     1 NAP500      0.0000 
      4 O5B        -1.1120   29.3690   21.5960 O.3       1 NAP500      0.0000 
      5 C5B        -1.3570   28.5300   20.4930 C.3       1 NAP500      0.0000 
      6 C4B        -2.7910   28.0580   20.6200 C.3       1 NAP500      0.0000 
      7 O4B        -3.1890   27.4430   19.4230 O.3       1 NAP500      0.0000 
      8 C3B        -2.9470   27.0370   21.7530 C.3       1 NAP500      0.0000 
      9 O3B        -3.8060   27.5550   22.7420 O.3       1 NAP500      0.0000 
     10 C2B        -3.5180   25.8200   21.0590 C.3       1 NAP500      0.0000 
     11 O2B        -4.5570   25.2290   21.7870 O.3       1 NAP500      0.0000 
     12 C1B        -4.0490   26.3830   19.7460 C.3       1 NAP500      0.0000 
     13 N9A        -4.0860   25.3340   18.7210 N.pl3     1 NAP500      0.0000 
     14 C8A        -3.0310   24.5710   18.2640 C.2       1 NAP500      0.0000 
     15 N7A        -3.4990   23.7170   17.3320 N.2       1 NAP500      0.0000 
     16 C5A        -4.8370   23.9100   17.2070 C.ar      1 NAP500      0.0000 
     17 C6A        -5.7940   23.3040   16.4060 C.ar      1 NAP500      0.0000 
     18 N6A        -5.4440   22.3280   15.5680 N.pl3     1 NAP500      0.0000 
     19 N1A        -7.1050   23.7210   16.4900 N.ar      1 NAP500      0.0000 
     20 C2A        -7.4550   24.7460   17.3470 C.ar      1 NAP500      0.0000 
     21 N3A        -6.5040   25.3470   18.1420 N.ar      1 NAP500      0.0000 
     22 C4A        -5.2150   24.9300   18.0670 C.ar      1 NAP500      0.0000 
     23 O3          1.1580   30.4980   21.5590 O.3       1 NAP500      0.0000 
     24 PN          1.0080   32.1030   21.5310 P.3       1 NAP500      0.0000 
     25 O1N        -0.4200   32.5000   21.5470 O.co2     1 NAP500      0.0000 
     26 O2N         1.9570   32.7160   22.4930 O.co2     1 NAP500      0.0000 
     27 O5D         1.5710   32.3330   20.0360 O.3       1 NAP500      0.0000 
     28 C5D         0.9060   31.8120   18.9120 C.3       1 NAP500      0.0000 
     29 C4D         1.8850   31.3410   17.8350 C.3       1 NAP500      0.0000 
     30 O4D         2.5430   32.4640   17.2940 O.3       1 NAP500      0.0000 
     31 C3D         3.0050   30.4080   18.2940 C.3       1 NAP500      0.0000 
     32 O3D         3.3450   29.5530   17.2170 O.3       1 NAP500      0.0000 
     33 C2D         4.1340   31.3630   18.6010 C.3       1 NAP500      0.0000 
     34 O2D         5.4020   30.7840   18.5840 O.3       1 NAP500      0.0000 
     35 C1D         3.9560   32.3560   17.4700 C.3       1 NAP500      0.0000 
     36 N1N         4.4480   33.7360   17.6800 N.pl3     1 NAP500      0.0000 
     37 C2N         5.0090   34.3370   16.5770 C.ar      1 NAP500      0.0000 
     38 C3N         5.4420   35.6460   16.6170 C.ar      1 NAP500      0.0000 
     39 C7N         5.8270   36.3040   15.3240 C.2       1 NAP500      0.0000 
     40 O7N         6.5990   37.4650   15.4010 O.2       1 NAP500      0.0000 
     41 N7N         5.4720   35.7910   14.1300 N.am      1 NAP500      0.0000 
     42 C4N         5.3180   36.3720   17.8120 C.ar      1 NAP500      0.0000 
     43 C5N         4.7030   35.7530   18.9230 C.ar      1 NAP500      0.0000 
     44 C6N         4.2660   34.4270   18.8480 C.ar      1 NAP500      0.0000 
     45 P2B        -4.2760   24.0680   22.8830 P.3       1 NAP500      0.0000 
     46 O1X        -3.7240   24.7120   24.1020 O.co2     1 NAP500      0.0000 
     47 O2X        -3.3320   23.0550   22.3420 O.co2     1 NAP500      0.0000 
     48 O3X        -5.6290   23.4700   23.1610 O.co2     1 NAP500      0.0000 
     49 H          -0.7135   27.6536   20.4873 H         1 NAP500      0.0000 
     50 H          -1.2573   29.0520   19.5445 H         1 NAP500      0.0000 
     51 H          -3.4157   28.9070   20.8532 H         1 NAP500      0.0000 
     52 H          -1.9700   26.8028   22.1044 H         1 NAP500      0.0000 
     53 H          -2.7157   25.1602   20.8233 H         1 NAP500      0.0000 
     54 H          -5.0513   26.7442   19.9500 H         1 NAP500      0.0000 
     55 H          -2.1250   24.6492   18.5695 H         1 NAP500      0.0000 
     56 H          -4.4759   22.0776   15.5640 H         1 NAP500      0.0000 
     57 H          -6.1811   21.9341   15.0189 H         1 NAP500      0.0000 
     58 H          -8.4393   25.0637   17.3911 H         1 NAP500      0.0000 
     59 H           0.2375   32.5595   18.4405 H         1 NAP500      0.0000 
     60 H           0.2657   30.9457   19.1719 H         1 NAP500      0.0000 
     61 H           1.3277   30.8337   17.0509 H         1 NAP500      0.0000 
     62 H           2.7015   29.9233   19.1646 H         1 NAP500      0.0000 
     63 H           3.8837   31.8788   19.5062 H         1 NAP500      0.0000 
     64 H           4.3831   31.9383   16.5682 H         1 NAP500      0.0000 
     65 H           5.1095   33.7943   15.6936 H         1 NAP500      0.0000 
     66 H           5.7714   36.3027   13.3247 H         1 NAP500      0.0000 
     67 H           4.9407   34.9442   14.1553 H         1 NAP500      0.0000 
     68 H           5.6621   37.3231   17.8806 H         1 NAP500      0.0000 
     69 H           4.5785   36.2878   19.7918 H         1 NAP500      0.0000 
     70 H           3.8195   33.9925   19.6592 H         1 NAP500      0.0000 
     71 H          -4.0939   26.7604   23.2766 H         1 NAP500      0.0000 
     72 H           4.2853   29.2665   17.4010 H         1 NAP500      0.0000 
     73 H           5.8676   31.2037   17.8049 H         1 NAP500      0.0000 
@<TRIPOS>BOND
     1    2    1 ar   
     2    3    1 ar   
     3    4    1 1    
     4   23    1 1    
     5    5    4 1    
     6    6    5 1    
     7   49    5 1    
     8   50    5 1    
     9    7    6 1    
    10    8    6 1    
    11   51    6 1    
    12   12    7 1    
    13    9    8 1    
    14   10    8 1    
    15   52    8 1    
    16   71    9 1    
    17   11   10 1    
    18   12   10 1    
    19   53   10 1    
    20   45   11 1    
    21   13   12 1    
    22   54   12 1    
    23   14   13 1    
    24   22   13 1    
    25   15   14 2    
    26   55   14 1    
    27   16   15 1    
    28   17   16 ar   
    29   22   16 ar   
    30   18   17 1    
    31   19   17 ar   
    32   56   18 1    
    33   57   18 1    
    34   20   19 ar   
    35   21   20 ar   
    36   58   20 1    
    37   22   21 ar   
    38   24   23 1    
    39   25   24 ar   
    40   26   24 ar   
    41   27   24 1    
    42   28   27 1    
    43   29   28 1    
    44   59   28 1    
    45   60   28 1    
    46   30   29 1    
    47   31   29 1    
    48   61   29 1    
    49   35   30 1    
    50   32   31 1    
    51   33   31 1    
    52   62   31 1    
    53   72   32 1    
    54   34   33 1    
    55   35   33 1    
    56   63   33 1    
    57   73   34 1    
    58   36   35 1    
    59   64   35 1    
    60   37   36 ar   
    61   44   36 ar   
    62   38   37 ar   
    63   65   37 1    
    64   39   38 1    
    65   42   38 ar   
    66   40   39 2    
    67   41   39 am   
    68   66   41 1    
    69   67   41 1    
    70   43   42 ar   
    71   68   42 1    
    72   44   43 ar   
    73   69   43 1    
    74   70   44 1    
    75   46   45 ar   
    76   47   45 ar   
    77   48   45 ar   
@<TRIPOS>SUBSTRUCTURE
     1 NAP500      1 GROUP   
@<TRIPOS>SET

