#    Name: 2a84_ATP_1_INTS_M
#    Modification time : Mon Mar 24 18:36:49 2014

@<TRIPOS>MOLECULE
2a84_ATP_1_INTS_M
  101     0    15     0     0
SMALL
NO_CHARGES


@<TRIPOS>ATOM
      1 NZ         -2.0650   -6.2285   25.6325 N.4       3 LYC4        0.0000 
      2 NZ         -1.8990   -4.8500   26.0850 N.4      13 LYL4        0.0000 
      3 NZ         -1.2560   -8.0710   24.4080 N.4       8 LYP4        0.0000 
      4 Zn         -2.7015   -4.2090   25.7980 Zn        4 ZIC7        0.0000 
      5 Zn         -1.8990   -4.8500   26.0850 Zn       14 ZIL7        0.0000 
      6 Zn         -3.5040   -3.5680   25.5110 Zn        9 ZIP7        0.0000 
      7 N          -2.0650   -6.2285   25.6325 N.am      2 SEC2        0.0000 
      8 N          -1.8990   -4.8500   26.0850 N.am     12 SEL2        0.0000 
      9 N          -2.2310   -7.6070   25.1800 N.am      7 SEP2        0.0000 
     10 NZ          0.1720   -6.0345   24.7395 N.4       3 LYC4        0.0000 
     11 NZ          0.4520   -4.6700   25.2120 N.4      13 LYL4        0.0000 
     12 N           0.4505   -4.3195   23.9570 N.am      2 SEC2        0.0000 
     13 N           0.4520   -4.6700   25.2120 N.am     12 SEL2        0.0000 
     14 N           0.4490   -3.9690   22.7020 N.am      7 SEP2        0.0000 
     15 N           1.9110   -4.7465   25.3285 N.am      2 SEC2        0.0000 
     16 N           3.3700   -4.8230   25.4450 N.am      7 SEP2        0.0000 
     17 N           0.1720   -6.0345   24.7395 N.am      2 SEC2        0.0000 
     18 N          -0.1080   -7.3990   24.2670 N.am      7 SEP2        0.0000 
     19 NZ         -0.6425   -1.6200   23.1900 N.4       3 LYC4        0.0000 
     20 NZ         -0.0310   -1.0810   24.5500 N.4      13 LYL4        0.0000 
     21 NZ         -1.2540   -2.1590   21.8300 N.4       8 LYP4        0.0000 
     22 N           0.8995   -0.0525   24.2595 N.am      2 SEC2        0.0000 
     23 N          -0.0310   -1.0810   24.5500 N.am     12 SEL2        0.0000 
     24 N           1.8300    0.9760   23.9690 N.am      7 SEP2        0.0000 
     25 N          -0.6425   -1.6200   23.1900 N.am      2 SEC2        0.0000 
     26 N          -1.2540   -2.1590   21.8300 N.am      7 SEP2        0.0000 
     27 N           1.2735   -1.6775   24.6455 N.am      2 SEC2        0.0000 
     28 N           2.5780   -2.2740   24.7410 N.am      7 SEP2        0.0000 
     29 NZ         -1.7645   -2.2755   23.1580 N.4       3 LYC4        0.0000 
     30 NZ         -2.2750   -2.3920   24.4860 N.4      13 LYL4        0.0000 
     31 Zn         -2.8895   -2.9800   24.9985 Zn        4 ZIC7        0.0000 
     32 Zn         -2.2750   -2.3920   24.4860 Zn       14 ZIL7        0.0000 
     33 N          -1.7645   -2.2755   23.1580 N.am      2 SEC2        0.0000 
     34 N          -2.2750   -2.3920   24.4860 N.am     12 SEL2        0.0000 
     35 N           0.8020   -1.7995   26.7745 N.am      2 SEC2        0.0000 
     36 N          -0.5880   -2.7140   26.4040 N.am     12 SEL2        0.0000 
     37 N           2.1920   -0.8850   27.1450 N.am      7 SEP2        0.0000 
     38 N          -3.1395    0.7170   29.5335 N.am      2 SEC2        0.0000 
     39 N          -2.8190    0.2470   28.2430 N.am     12 SEL2        0.0000 
     40 N          -3.4600    1.1870   30.8240 N.am      7 SEP2        0.0000 
     41 N          -1.7960    1.2150   27.4265 N.am      2 SEC2        0.0000 
     42 N          -0.7730    2.1830   26.6100 N.am      7 SEP2        0.0000 
     43 Zn         -3.5495   -2.7710   26.3120 Zn        4 ZIC7        0.0000 
     44 Zn         -3.5950   -1.9740   27.1130 Zn       14 ZIL7        0.0000 
     45 N          -1.2685    0.8240   26.3995 N.am      2 SEC2        0.0000 
     46 N          -1.7640   -0.5350   26.1890 N.am     12 SEL2        0.0000 
     47 CA         -4.6720    2.2915   28.1675 C.3       5 GLC5        0.0000 
     48 CA         -4.5860    1.5470   26.3950 C.3      15 GLL5        0.0000 
     49 CA         -4.7580    3.0360   29.9400 C.3      10 GLP5        0.0000 
     50 N          -7.5365    2.4680   22.4980 N.am      2 SEC2        0.0000 
     51 N          -7.2410    2.0260   23.8740 N.am     12 SEL2        0.0000 
     52 N          -7.8320    2.9100   21.1220 N.am      7 SEP2        0.0000 
     53 O          -7.6765    2.8630   24.8190 O.2       1 ALC1        0.0000 
     54 O          -7.2410    2.0260   23.8740 O.2      11 ALL1        0.0000 
     55 O          -8.1120    3.7000   25.7640 O.2       6 ALP1        0.0000 
     56 N          -6.9315    1.6430   21.6015 N.am      2 SEC2        0.0000 
     57 N          -6.0310    0.3760   22.0810 N.am     12 SEL2        0.0000 
     58 O          -5.8215   -0.9265   22.1555 O.2       1 ALC1        0.0000 
     59 O          -6.0310    0.3760   22.0810 O.2      11 ALL1        0.0000 
     60 O          -5.6120   -2.2290   22.2300 O.2       6 ALP1        0.0000 
     61 CA         -5.2605    3.8320   23.2095 C.3       5 GLC5        0.0000 
     62 CA         -4.4790    2.0580   23.0150 C.3      15 GLL5        0.0000 
     63 CA         -6.0420    5.6060   23.4040 C.3      10 GLP5        0.0000 
     64 CA         -2.0815   -0.3775   20.7810 C.3       5 GLC5        0.0000 
     65 CA         -1.7550    1.5530   20.6430 C.3      15 GLL5        0.0000 
     66 CA         -2.4080   -2.3080   20.9190 C.3      10 GLP5        0.0000 
     67 CA         -1.6160   -0.3220   19.3850 C.3       5 GLC5        0.0000 
     68 CA         -1.2730    1.8490   19.3300 C.3      15 GLL5        0.0000 
     69 CA         -1.9590   -2.4930   19.4400 C.3      10 GLP5        0.0000 
     70 CA         -1.5315    1.0055   17.3400 C.3       5 GLC5        0.0000 
     71 CA         -1.7900    0.1620   15.3500 C.3      10 GLP5        0.0000 
     72 CA         -0.1785    3.2540   18.2145 C.3       5 GLC5        0.0000 
     73 CA          0.9160    4.6590   17.0990 C.3      10 GLP5        0.0000 
     74 O           0.6465    1.5005   17.6720 O.2       1 ALC1        0.0000 
     75 O          -0.1140    1.2790   18.9090 O.2      11 ALL1        0.0000 
     76 O           1.4070    1.7220   16.4350 O.2       6 ALP1        0.0000 
     77 O           0.4830    0.1535   19.5360 O.2       1 ALC1        0.0000 
     78 O           1.0800   -0.9720   20.1630 O.2       6 ALP1        0.0000 
     79 N          -1.4055    2.9920   17.2875 N.am      2 SEC2        0.0000 
     80 N          -1.9870    2.6950   18.6070 N.am     12 SEL2        0.0000 
     81 N          -0.8240    3.2890   15.9680 N.am      7 SEP2        0.0000 
     82 CA         -1.2670    3.9590   19.9620 C.3       5 GLC5        0.0000 
     83 CA         -3.1460    3.2630   19.0090 C.3      15 GLL5        0.0000 
     84 CA          0.6120    4.6550   20.9150 C.3      10 GLP5        0.0000 
     85 CA         -3.9235    4.6195   20.2000 C.3       5 GLC5        0.0000 
     86 CA         -4.7010    5.9760   21.3910 C.3      10 GLP5        0.0000 
     87 CA         -5.0940    2.9410   19.4825 C.3       5 GLC5        0.0000 
     88 CA         -7.0420    2.6190   19.9560 C.3      10 GLP5        0.0000 
     89 CA         -3.0465    2.8095   17.1430 C.3       5 GLC5        0.0000 
     90 CA         -2.9470    2.3560   15.2770 C.3      10 GLP5        0.0000 
     91 CA         -1.6230    4.5040   18.1630 C.3       5 GLC5        0.0000 
     92 CA         -0.1000    5.7450   17.3170 C.3      10 GLP5        0.0000 
     93 CA         -3.8670    4.0655   21.2065 C.3       5 GLC5        0.0000 
     94 CA         -3.0330    2.1550   21.0220 C.3      15 GLL5        0.0000 
     95 CA         -5.0375    2.3870   20.4890 C.3       5 GLC5        0.0000 
     96 CA         -3.1343    2.6110   26.0040 C.3       5 GLC5        0.0000 
     97 CA         -5.2270    2.1690   25.1730 C.3      15 GLL5        0.0000 
     98 CA         -1.3620    3.3640   26.2240 C.3      10 GLP5        0.0000 
     99 CA         -5.8665    3.6608   24.0935 C.3       5 GLC5        0.0000 
    100 CA         -5.9618    2.0242   21.5378 C.3       5 GLC5        0.0000 
    101 CA         -0.8307    3.2915   20.7096 C.3       5 GLC5        0.0000 
@<TRIPOS>BOND
@<TRIPOS>SUBSTRUCTURE
     1 ALC1       53 GROUP        1 X    ALC  0     ROOT ALC X 1
     2 SEC2        7 GROUP        1 X    SEC  0     **** SEC X 2
     3 LYC4        1 GROUP        1 X    LYC  0     **** LYC X 4
     4 ZIC7        4 GROUP        1 X    ZIC  0     **** ZIC X 5
     5 GLC5       47 GROUP        1 X    GLC  0     **** GLC X 6
     6 ALP1       55 GROUP        1 Y    ALP  0     ROOT ALP Y 8
     7 SEP2        9 GROUP        1 Y    SEP  0     **** SEP Y 9
     8 LYP4        3 GROUP        1 Y    LYP  0     **** LYP Y 11
     9 ZIP7        6 GROUP        1 Y    ZIP  0     **** ZIP Y 12
    10 GLP5       49 GROUP        1 Y    GLP  0     **** GLP Y 13
    11 ALL1       54 GROUP        1 Z    ALL  0     ROOT ALL Z 15
    12 SEL2        8 GROUP        1 Z    SEL  0     **** SEL Z 16
    13 LYL4        2 GROUP        1 Z    LYL  0     **** LYL Z 18
    14 ZIL7        5 GROUP        1 Z    ZIL  0     **** ZIL Z 19
    15 GLL5       48 GROUP        1 Z    GLL  0     **** GLL Z 20
@<TRIPOS>SET

