#    Name: 2a84_ATP_1_ligand
#    Modification time : Mon Mar 24 18:36:49 2014

@<TRIPOS>MOLECULE
2a84_ATP_1_ligand
   43    45     1     0     0
SMALL
NO_CHARGES


@<TRIPOS>ATOM
      1 PG         -0.5090   -4.2930   26.3370 P.3       1 ATP2001     0.0000 
      2 O1G        -1.8990   -4.8500   26.0850 O.co2     1 ATP2001     0.0000 
      3 O2G         0.0380   -4.7530   27.7130 O.co2     1 ATP2001     0.0000 
      4 O3G         0.4520   -4.6700   25.2120 O.co2     1 ATP2001     0.0000 
      5 PB         -1.1730   -1.7220   25.2830 P.3       1 ATP2001     0.0000 
      6 O1B        -0.0310   -1.0810   24.5500 O.co2     1 ATP2001     0.0000 
      7 O2B        -2.2750   -2.3920   24.4860 O.co2     1 ATP2001     0.0000 
      8 O3B        -0.5880   -2.7140   26.4040 O.3       1 ATP2001     0.0000 
      9 PA         -3.1290   -0.5920   27.0740 P.3       1 ATP2001     0.0000 
     10 O1A        -2.8190    0.2470   28.2430 O.co2     1 ATP2001     0.0000 
     11 O2A        -3.5950   -1.9740   27.1130 O.co2     1 ATP2001     0.0000 
     12 O3A        -1.7640   -0.5350   26.1890 O.3       1 ATP2001     0.0000 
     13 O5'        -4.0900    0.2610   26.0860 O.3       1 ATP2001     0.0000 
     14 C5'        -4.5860    1.5470   26.3950 C.3       1 ATP2001     0.0000 
     15 C4'        -5.2270    2.1690   25.1730 C.3       1 ATP2001     0.0000 
     16 O4'        -4.1260    2.5480   24.2830 O.3       1 ATP2001     0.0000 
     17 C3'        -6.1550    1.2620   24.3930 C.3       1 ATP2001     0.0000 
     18 O3'        -7.2410    2.0260   23.8740 O.3       1 ATP2001     0.0000 
     19 C2'        -5.2840    0.8010   23.2240 C.3       1 ATP2001     0.0000 
     20 O2'        -6.0310    0.3760   22.0810 O.3       1 ATP2001     0.0000 
     21 C1'        -4.4790    2.0580   23.0150 C.3       1 ATP2001     0.0000 
     22 N9         -3.2640    1.7220   22.2650 N.pl3     1 ATP2001     0.0000 
     23 C8         -2.2690    0.8850   22.6610 C.2       1 ATP2001     0.0000 
     24 N7         -1.3120    0.7690   21.6540 N.2       1 ATP2001     0.0000 
     25 C5         -1.7550    1.5530   20.6430 C.ar      1 ATP2001     0.0000 
     26 C6         -1.2730    1.8490   19.3300 C.ar      1 ATP2001     0.0000 
     27 N6         -0.1140    1.2790   18.9090 N.pl3     1 ATP2001     0.0000 
     28 N1         -1.9870    2.6950   18.6070 N.ar      1 ATP2001     0.0000 
     29 C2         -3.1460    3.2630   19.0090 C.ar      1 ATP2001     0.0000 
     30 N3         -3.6830    2.9890   20.1830 N.ar      1 ATP2001     0.0000 
     31 C4         -3.0330    2.1550   21.0220 C.ar      1 ATP2001     0.0000 
     32 H          -3.7868    2.2237   26.7371 H         1 ATP2001     0.0000 
     33 H          -5.3449    1.5132   27.1928 H         1 ATP2001     0.0000 
     34 H          -5.7554    3.0617   25.4653 H         1 ATP2001     0.0000 
     35 H          -6.4245    0.4459   24.9662 H         1 ATP2001     0.0000 
     36 H          -4.6167    0.0557   23.6167 H         1 ATP2001     0.0000 
     37 H          -5.0732    2.7534   22.4668 H         1 ATP2001     0.0000 
     38 H          -2.2150    0.4284   23.5107 H         1 ATP2001     0.0000 
     39 H           0.4360    1.8192   18.2720 H         1 ATP2001     0.0000 
     40 H           0.0868    0.3696   19.2732 H         1 ATP2001     0.0000 
     41 H          -3.6247    3.9436   18.3549 H         1 ATP2001     0.0000 
     42 H          -7.4901    2.6550   24.6105 H         1 ATP2001     0.0000 
     43 H          -5.8902   -0.6129   22.0330 H         1 ATP2001     0.0000 
@<TRIPOS>BOND
     1    2    1 ar   
     2    3    1 ar   
     3    4    1 ar   
     4    8    1 1    
     5    6    5 ar   
     6    7    5 ar   
     7    8    5 1    
     8   12    5 1    
     9   10    9 ar   
    10   11    9 ar   
    11   12    9 1    
    12   13    9 1    
    13   14   13 1    
    14   15   14 1    
    15   32   14 1    
    16   33   14 1    
    17   16   15 1    
    18   17   15 1    
    19   34   15 1    
    20   21   16 1    
    21   18   17 1    
    22   19   17 1    
    23   35   17 1    
    24   42   18 1    
    25   20   19 1    
    26   21   19 1    
    27   36   19 1    
    28   43   20 1    
    29   22   21 1    
    30   37   21 1    
    31   23   22 1    
    32   31   22 1    
    33   24   23 2    
    34   38   23 1    
    35   25   24 1    
    36   26   25 ar   
    37   31   25 ar   
    38   27   26 1    
    39   28   26 ar   
    40   39   27 1    
    41   40   27 1    
    42   29   28 ar   
    43   30   29 ar   
    44   41   29 1    
    45   31   30 ar   
@<TRIPOS>SUBSTRUCTURE
     1 ATP2001     1 GROUP   
@<TRIPOS>SET

