#    Name: 2rg6_287_1_INTS_M
#    Modification time : Mon Mar 24 23:52:16 2014

@<TRIPOS>MOLECULE
2rg6_287_1_INTS_M
   84     0     9     0     0
SMALL
NO_CHARGES


@<TRIPOS>ATOM
      1 CA         -4.7395   -2.0745   27.1425 C.3       3 GLC5        0.0000 
      2 CA         -3.6950   -3.7650   27.5510 C.3       9 GLL5        0.0000 
      3 CA         -5.7840   -0.3840   26.7340 C.3       6 GLP5        0.0000 
      4 CA         -5.1610    2.1205   13.3885 C.3       3 GLC5        0.0000 
      5 CA         -3.5900    1.0930   14.4390 C.3       9 GLL5        0.0000 
      6 CA         -6.7320    3.1480   12.3380 C.3       6 GLP5        0.0000 
      7 CA         -3.9370   -6.4820   25.0305 C.3       3 GLC5        0.0000 
      8 CA         -2.6720   -6.1310   26.4850 C.3       9 GLL5        0.0000 
      9 CA         -5.2020   -6.8330   23.5760 C.3       6 GLP5        0.0000 
     10 CA         -3.8160   -1.8530   26.0590 C.3       3 GLC5        0.0000 
     11 CA         -2.7260   -3.7200   26.5460 C.3       9 GLL5        0.0000 
     12 CA         -4.9060    0.0140   25.5720 C.3       6 GLP5        0.0000 
     13 CA         -6.3920    0.9310   14.2100 C.3       3 GLC5        0.0000 
     14 CA         -4.6910    0.6260   15.1780 C.3       9 GLL5        0.0000 
     15 CA         -8.0930    1.2360   13.2420 C.3       6 GLP5        0.0000 
     16 CA         -0.5040   -1.3385   16.4880 C.3       3 GLC5        0.0000 
     17 CA         -2.0950    0.0630   16.0180 C.3       9 GLL5        0.0000 
     18 CA          1.0870   -2.7400   16.9580 C.3       6 GLP5        0.0000 
     19 CA         -3.6185   -4.0105   22.6990 C.3       3 GLC5        0.0000 
     20 CA         -1.9730   -2.7090   21.9890 C.3       9 GLL5        0.0000 
     21 CA         -5.2640   -5.3120   23.4090 C.3       6 GLP5        0.0000 
     22 CA         -5.8250   -1.8625   18.6600 C.3       3 GLC5        0.0000 
     23 CA         -5.6870   -0.5940   17.1420 C.3       9 GLL5        0.0000 
     24 CA         -5.9630   -3.1310   20.1780 C.3       6 GLP5        0.0000 
     25 CA         -4.1670   -3.4570   19.9250 C.3       3 GLC5        0.0000 
     26 CA         -2.3710   -3.7830   19.6720 C.3       9 GLL5        0.0000 
     27 CA         -1.6040   -4.6420   17.7680 C.3       3 GLC5        0.0000 
     28 CA         -0.8370   -5.5010   15.8640 C.3       6 GLP5        0.0000 
     29 CA         -3.4440   -5.6015   20.4115 C.3       3 GLC5        0.0000 
     30 CA         -4.5170   -7.4200   21.1510 C.3       6 GLP5        0.0000 
     31 CA         -1.1420   -5.6040   19.9095 C.3       3 GLC5        0.0000 
     32 CA          0.0870   -7.4250   20.1470 C.3       6 GLP5        0.0000 
     33 CA         -0.7020   -2.5180   19.3230 C.3       3 GLC5        0.0000 
     34 CA          0.9670   -1.2530   18.9740 C.3       6 GLP5        0.0000 
     35 CA          1.5690   -5.9245   25.9475 C.3       3 GLC5        0.0000 
     36 CA          0.2820   -4.9080   25.4190 C.3       9 GLL5        0.0000 
     37 CA          2.8560   -6.9410   26.4760 C.3       6 GLP5        0.0000 
     38 CA         -1.4960    3.4800   11.1235 C.3       3 GLC5        0.0000 
     39 CA          0.2640    2.3180   11.4950 C.3       9 GLL5        0.0000 
     40 CA         -3.2560    4.6420   10.7520 C.3       6 GLP5        0.0000 
     41 CA         -0.9140    0.8405   11.0275 C.3       3 GLC5        0.0000 
     42 CA         -2.0920   -0.6370   10.5600 C.3       6 GLP5        0.0000 
     43 CA          1.4490    2.6550   13.0705 C.3       3 GLC5        0.0000 
     44 CA          2.6340    2.9920   14.6460 C.3       6 GLP5        0.0000 
     45 CA          1.4685    0.7480   11.0875 C.3       3 GLC5        0.0000 
     46 CA          2.6730   -0.8220   10.6800 C.3       6 GLP5        0.0000 
     47 CA          0.2975    4.2255   12.2990 C.3       3 GLC5        0.0000 
     48 CA          0.3310    6.1330   13.1030 C.3       6 GLP5        0.0000 
     49 CA         -1.0915   -6.6730   23.5585 C.3       3 GLC5        0.0000 
     50 CA         -1.1530   -4.8910   24.9120 C.3       9 GLL5        0.0000 
     51 CA         -1.0300   -8.4550   22.2050 C.3       6 GLP5        0.0000 
     52 O          -3.6725   -2.5115   17.4035 O.2       1 ALC1        0.0000 
     53 O          -2.9010   -1.1470   17.9130 O.2       7 ALL1        0.0000 
     54 O          -4.4440   -3.8760   16.8940 O.2       4 ALP1        0.0000 
     55 O          -2.2420    3.1850   13.1540 O.2       1 ALC1        0.0000 
     56 O          -1.2510    2.2630   13.2350 O.2       7 ALL1        0.0000 
     57 O          -3.2330    4.1070   13.0730 O.2       4 ALP1        0.0000 
     58 N           1.2425    1.0825   14.5480 N.am      2 SEC2        0.0000 
     59 N          -0.0240    0.6130   14.2640 N.am      8 SEL2        0.0000 
     60 N           2.5090    1.5520   14.8320 N.am      5 SEP2        0.0000 
     61 N          -2.0985   -6.3640   22.0745 N.am      2 SEC2        0.0000 
     62 N          -1.9690   -5.0280   22.2500 N.am      8 SEL2        0.0000 
     63 N          -2.2280   -7.7000   21.8990 N.am      5 SEP2        0.0000 
     64 CA         -5.0053   -6.4318   26.2370 C.3       3 GLC5        0.0000 
     65 CA         -3.6380   -6.1710   27.4910 C.3       9 GLL5        0.0000 
     66 CA         -6.1170   -7.2820   24.7180 C.3       6 GLP5        0.0000 
     67 CA         -4.5678    2.5568   15.3758 C.3       3 GLC5        0.0000 
     68 CA         -4.9950    4.2540   15.9430 C.3       6 GLP5        0.0000 
     69 CA         -3.4928    0.9540   12.6917 C.3       3 GLC5        0.0000 
     70 CA         -4.0450    0.9590   10.7330 C.3       6 GLP5        0.0000 
     71 CA         -4.3733   -1.1433   14.6992 C.3       3 GLC5        0.0000 
     72 CA         -4.6060   -3.1460   14.5900 C.3       6 GLP5        0.0000 
     73 CA         -1.0435   -1.1040   14.4455 C.3       3 GLC5        0.0000 
     74 CA          0.1060   -2.6420   13.4510 C.3       6 GLP5        0.0000 
     75 CA         -3.6205   -1.6580   15.4885 C.3       3 GLC5        0.0000 
     76 CA         -6.1967    1.2190   17.1460 C.3       3 GLC5        0.0000 
     77 CA         -4.4940   -0.1120   16.3520 C.3       9 GLL5        0.0000 
     78 CA         -7.3030    2.7910   17.5450 C.3       6 GLP5        0.0000 
     79 CA         -4.8483   -1.7495   15.6685 C.3       3 GLC5        0.0000 
     80 CA         -4.1035   -2.5479   20.4875 C.3       3 GLC5        0.0000 
     81 CA         -2.3760   -1.2650   20.3060 C.3       9 GLL5        0.0000 
     82 CA         -0.6385   -1.6089   19.8855 C.3       3 GLC5        0.0000 
     83 CA         -2.2510   -2.6200   20.5870 C.3       9 GLL5        0.0000 
     84 CA         -3.5358   -4.9565   24.5010 C.3       3 GLC5        0.0000 
@<TRIPOS>BOND
@<TRIPOS>SUBSTRUCTURE
     1 ALC1       52 GROUP        1 X    ALC  0     ROOT ALC X 1
     2 SEC2       58 GROUP        1 X    SEC  0     **** SEC X 2
     3 GLC5        1 GROUP        1 X    GLC  0     **** GLC X 6
     4 ALP1       54 GROUP        1 Y    ALP  0     ROOT ALP Y 8
     5 SEP2       60 GROUP        1 Y    SEP  0     **** SEP Y 9
     6 GLP5        3 GROUP        1 Y    GLP  0     **** GLP Y 13
     7 ALL1       53 GROUP        1 Z    ALL  0     ROOT ALL Z 15
     8 SEL2       59 GROUP        1 Z    SEL  0     **** SEL Z 16
     9 GLL5        2 GROUP        1 Z    GLL  0     **** GLL Z 20
@<TRIPOS>SET

