#    Name: 2rg6_287_1_ligand
#    Modification time : Mon Mar 24 23:52:16 2014

@<TRIPOS>MOLECULE
2rg6_287_1_ligand
   60    63     1     0     0
SMALL
NO_CHARGES


@<TRIPOS>ATOM
      1 C1         -4.1490   -4.9920   28.0210 C.ar      1 287501      0.0000 
      2 C2         -3.6380   -6.1710   27.4910 C.ar      1 287501      0.0000 
      3 C3         -3.6950   -3.7650   27.5510 C.ar      1 287501      0.0000 
      4 C4         -3.5900    1.0930   14.4390 C.ar      1 287501      0.0000 
      5 C5         -2.6720   -6.1310   26.4850 C.ar      1 287501      0.0000 
      6 C6         -2.7260   -3.7200   26.5460 C.ar      1 287501      0.0000 
      7 C7         -4.6910    0.6260   15.1780 C.ar      1 287501      0.0000 
      8 C8         -2.0950    0.0630   16.0180 C.ar      1 287501      0.0000 
      9 C9         -1.9470   -1.4280   22.4870 C.2       1 287501      0.0000 
     10 C10        -2.2910    0.8050   14.8620 C.ar      1 287501      0.0000 
     11 C11        -1.9730   -2.7090   21.9890 C.2       1 287501      0.0000 
     12 C12        -2.1980   -4.9020   26.0020 C.ar      1 287501      0.0000 
     13 C13        -4.4940   -0.1120   16.3520 C.ar      1 287501      0.0000 
     14 C14        -2.2510   -2.6200   20.5870 C.2       1 287501      0.0000 
     15 C15        -3.1750   -0.4030   16.7560 C.ar      1 287501      0.0000 
     16 C16        -2.3760   -1.2650   20.3060 C.2       1 287501      0.0000 
     17 C17        -2.4830    1.3880   20.4350 C.2       1 287501      0.0000 
     18 C18        -2.6650   -0.5100   19.1040 C.2       1 287501      0.0000 
     19 C19        -1.0740    1.2360   14.1270 C.2       1 287501      0.0000 
     20 C20        -1.7760   -3.9320   22.7500 C.2       1 287501      0.0000 
     21 C21        -5.6870   -0.5940   17.1420 C.3       1 287501      0.0000 
     22 C22        -2.3710   -3.7830   19.6720 C.3       1 287501      0.0000 
     23 C23         0.2820   -4.9080   25.4190 C.3       1 287501      0.0000 
     24 C24         0.2640    2.3180   11.4950 C.3       1 287501      0.0000 
     25 C25        -1.1530   -4.8910   24.9120 C.3       1 287501      0.0000 
     26 N26        -2.2350    0.7860   21.5600 N.2       1 287501      0.0000 
     27 N27        -2.6850    0.7920   19.2080 N.2       1 287501      0.0000 
     28 N28        -2.1950   -0.5660   21.4620 N.pl3     1 287501      0.0000 
     29 N29        -2.9010   -1.1470   17.9130 N.pl3     1 287501      0.0000 
     30 N30        -1.3410   -3.7480   24.0350 N.am      1 287501      0.0000 
     31 N31        -1.2510    2.2630   13.2350 N.am      1 287501      0.0000 
     32 O32        -0.0240    0.6130   14.2640 O.2       1 287501      0.0000 
     33 O33        -1.9690   -5.0280   22.2500 O.2       1 287501      0.0000 
     34 O34        -0.0020    2.7890   12.8200 O.3       1 287501      0.0000 
     35 H          -4.8626   -5.0273   28.7605 H         1 287501      0.0000 
     36 H          -3.9726   -7.0800   27.8411 H         1 287501      0.0000 
     37 H          -4.0694   -2.8919   27.9399 H         1 287501      0.0000 
     38 H          -3.7456    1.6452   13.5893 H         1 287501      0.0000 
     39 H          -2.3025   -7.0072   26.0923 H         1 287501      0.0000 
     40 H          -2.3922   -2.8093   26.1971 H         1 287501      0.0000 
     41 H          -5.6438    0.8282   14.8534 H         1 287501      0.0000 
     42 H          -1.1321   -0.1460   16.3345 H         1 287501      0.0000 
     43 H          -1.7821   -1.1900   23.3996 H         1 287501      0.0000 
     44 H          -2.5437    2.4783   20.4292 H         1 287501      0.0000 
     45 H          -1.2915   -5.8122   24.3068 H         1 287501      0.0000 
     46 H          -2.8801   -2.1764   17.8532 H         1 287501      0.0000 
     47 H          -1.1379   -2.8194   24.4133 H         1 287501      0.0000 
     48 H          -2.0972    2.5990   12.9185 H         1 287501      0.0000 
     49 H          -5.4114   -1.1032   17.9573 H         1 287501      0.0000 
     50 H          -6.2597    0.1656   17.4504 H         1 287501      0.0000 
     51 H          -6.2703   -1.2000   16.6012 H         1 287501      0.0000 
     52 H          -1.5283   -4.3206   19.6422 H         1 287501      0.0000 
     53 H          -3.1040   -4.4025   19.9529 H         1 287501      0.0000 
     54 H          -2.5707   -3.4987   18.7343 H         1 287501      0.0000 
     55 H           0.9415   -4.9021   24.6674 H         1 287501      0.0000 
     56 H           0.4830   -4.1132   25.9916 H         1 287501      0.0000 
     57 H           0.4719   -5.7212   25.9692 H         1 287501      0.0000 
     58 H           1.1376    2.6591   11.1480 H         1 287501      0.0000 
     59 H           0.3031    1.3195   11.4566 H         1 287501      0.0000 
     60 H          -0.4417    2.6087   10.8488 H         1 287501      0.0000 
@<TRIPOS>BOND
     1    2    1 ar   
     2    3    1 ar   
     3   35    1 1    
     4    5    2 ar   
     5   36    2 1    
     6    6    3 ar   
     7   37    3 1    
     8    7    4 ar   
     9   10    4 ar   
    10   38    4 1    
    11   12    5 ar   
    12   39    5 1    
    13   12    6 ar   
    14   40    6 1    
    15   13    7 ar   
    16   41    7 1    
    17   10    8 ar   
    18   15    8 ar   
    19   42    8 1    
    20   11    9 2    
    21   28    9 1    
    22   43    9 1    
    23   19   10 1    
    24   14   11 1    
    25   20   11 1    
    26   25   12 1    
    27   15   13 ar   
    28   21   13 1    
    29   16   14 2    
    30   22   14 1    
    31   29   15 1    
    32   18   16 1    
    33   28   16 1    
    34   26   17 2    
    35   27   17 1    
    36   44   17 1    
    37   27   18 2    
    38   29   18 1    
    39   31   19 am   
    40   32   19 2    
    41   30   20 am   
    42   33   20 2    
    43   49   21 1    
    44   50   21 1    
    45   51   21 1    
    46   52   22 1    
    47   53   22 1    
    48   54   22 1    
    49   25   23 1    
    50   55   23 1    
    51   56   23 1    
    52   57   23 1    
    53   34   24 1    
    54   58   24 1    
    55   59   24 1    
    56   60   24 1    
    57   30   25 1    
    58   45   25 1    
    59   28   26 1    
    60   46   29 1    
    61   47   30 1    
    62   34   31 1    
    63   48   31 1    
@<TRIPOS>SUBSTRUCTURE
     1 287501      1 GROUP   
@<TRIPOS>SET

