#    Name: 1rp4_FAD_1_INTS_M
#    Modification time : Tue Mar 25 01:01:52 2014

@<TRIPOS>MOLECULE
1rp4_FAD_1_INTS_M
   85     0    12     0     0
SMALL
NO_CHARGES


@<TRIPOS>ATOM
      1 N          35.6740   52.5570   18.2120 N.am      2 SEC2        0.0000 
      2 N          36.1120   53.8340   18.4940 N.am     10 SEL2        0.0000 
      3 N          35.2360   51.2800   17.9300 N.am      6 SEP2        0.0000 
      4 N          38.2440   50.0510   24.1400 N.am      2 SEC2        0.0000 
      5 N          37.5250   51.3120   24.6990 N.am     10 SEL2        0.0000 
      6 N          38.9630   48.7900   23.5810 N.am      6 SEP2        0.0000 
      7 CA         34.8445   45.4930   19.2255 C.3       4 GLC5        0.0000 
      8 CA         36.2950   46.8310   20.0650 C.3      12 GLL5        0.0000 
      9 CA         33.3940   44.1550   18.3860 C.3       8 GLP5        0.0000 
     10 CA         35.3535   47.3565   18.4300 C.3       4 GLC5        0.0000 
     11 CA         34.4120   47.8820   16.7950 C.3       8 GLP5        0.0000 
     12 O          36.0715   45.4270   18.0135 O.2       1 ALC1        0.0000 
     13 O          36.7300   46.3440   18.8980 O.2       9 ALL1        0.0000 
     14 O          35.4130   44.5100   17.1290 O.2       5 ALP1        0.0000 
     15 N          35.1945   44.7965   20.5370 N.am      2 SEC2        0.0000 
     16 N          35.4940   46.0690   20.8920 N.am     10 SEL2        0.0000 
     17 N          34.8950   43.5240   20.1820 N.am      6 SEP2        0.0000 
     18 CA         34.2550   44.9110   20.8530 C.3       4 GLC5        0.0000 
     19 CA         34.9030   46.4910   22.0470 C.3      12 GLL5        0.0000 
     20 CA         33.6070   43.3310   19.6590 C.3       8 GLP5        0.0000 
     21 N          40.6005   57.2515    9.4965 N.am      2 SEC2        0.0000 
     22 N          40.1100   56.4970   10.6430 N.am     10 SEL2        0.0000 
     23 N          41.0910   58.0060    8.3500 N.am      6 SEP2        0.0000 
     24 O          39.6600   55.0465    8.2570 O.2       1 ALC1        0.0000 
     25 O          38.7340   55.0690    9.3390 O.2       9 ALL1        0.0000 
     26 O          40.5860   55.0240    7.1750 O.2       5 ALP1        0.0000 
     27 CA         31.4980   51.3490   12.8250 C.3       4 GLC5        0.0000 
     28 CA         30.7540   52.4890   11.2830 C.3      12 GLL5        0.0000 
     29 CA         32.2420   50.2090   14.3670 C.3       8 GLP5        0.0000 
     30 CA         30.9435   50.5230   11.0230 C.3       4 GLC5        0.0000 
     31 CA         31.1330   48.5570   10.7630 C.3       8 GLP5        0.0000 
     32 CA         29.3965   52.0825   10.4445 C.3       4 GLC5        0.0000 
     33 CA         28.0390   51.6760    9.6060 C.3       8 GLP5        0.0000 
     34 CA         32.0610   56.4440   13.1090 C.3       4 GLC5        0.0000 
     35 CA         31.1530   54.6090   14.0060 C.3      12 GLL5        0.0000 
     36 CA         32.9690   58.2790   12.2120 C.3       8 GLP5        0.0000 
     37 CA         31.5595   56.5115   15.1280 C.3       4 GLC5        0.0000 
     38 CA         31.9660   58.4140   16.2500 C.3       8 GLP5        0.0000 
     39 CA         29.4085   54.7790   14.3340 C.3       4 GLC5        0.0000 
     40 CA         27.6640   54.9490   14.6620 C.3       8 GLP5        0.0000 
     41 CA         32.0005   53.3670   14.8275 C.3       4 GLC5        0.0000 
     42 CA         32.8480   52.1250   15.6490 C.3       8 GLP5        0.0000 
     43 CA         35.8140   53.0820   11.7935 C.3       4 GLC5        0.0000 
     44 CA         34.3600   54.7400   12.1580 C.3      12 GLL5        0.0000 
     45 CA         37.2680   51.4240   11.4290 C.3       8 GLP5        0.0000 
     46 CA         35.2280   57.0255   12.6225 C.3       4 GLC5        0.0000 
     47 CA         36.1750   55.6320   13.4580 C.3      12 GLL5        0.0000 
     48 CA         34.2810   58.4190   11.7870 C.3       8 GLP5        0.0000 
     49 CA         38.7460   54.2010   13.6775 C.3       4 GLC5        0.0000 
     50 CA         36.9390   54.8010   14.4450 C.3      12 GLL5        0.0000 
     51 CA         40.5530   53.6010   12.9100 C.3       8 GLP5        0.0000 
     52 N          34.7925   53.4530   15.3455 N.am      2 SEC2        0.0000 
     53 N          36.0850   53.6430   14.6400 N.am     10 SEL2        0.0000 
     54 N          33.5000   53.2630   16.0510 N.am      6 SEP2        0.0000 
     55 N          34.6640   54.5060   16.1970 N.am      2 SEC2        0.0000 
     56 N          35.8280   55.7490   16.3430 N.am     10 SEL2        0.0000 
     57 N          40.2540   55.2940   15.9540 N.am      2 SEC2        0.0000 
     58 N          39.4270   56.3230   15.3460 N.am     10 SEL2        0.0000 
     59 N          41.0810   54.2650   16.5620 N.am      6 SEP2        0.0000 
     60 N          40.6015   56.3285   16.3150 N.am      2 SEC2        0.0000 
     61 N          41.7760   56.3340   17.2840 N.am      6 SEP2        0.0000 
     62 NZ         40.7085   55.6010   18.8095 N.4       3 LYC4        0.0000 
     63 NZ         39.6970   56.1810   20.1650 N.4      11 LYL4        0.0000 
     64 NZ         41.7200   55.0210   17.4540 N.4       7 LYP4        0.0000 
     65 CA         35.4802   48.8123   19.1905 C.3       4 GLC5        0.0000 
     66 CA         36.6170   48.1540   20.4420 C.3      12 GLL5        0.0000 
     67 CA         34.6510   49.2280   17.4070 C.3       8 GLP5        0.0000 
     68 CA         38.1560   46.8523   20.6938 C.3       4 GLC5        0.0000 
     69 CA         39.8560   46.2120   21.1340 C.3       8 GLP5        0.0000 
     70 CA         34.0132   51.7785   10.9683 C.3       4 GLC5        0.0000 
     71 CA         34.1560   53.9050   10.9390 C.3      12 GLL5        0.0000 
     72 CA         34.4820   49.9900   11.1180 C.3       8 GLP5        0.0000 
     73 CA         32.9068   51.4665   11.2967 C.3       4 GLC5        0.0000 
     74 CA         31.9090   53.3970   11.6680 C.3      12 GLL5        0.0000 
     75 CA         30.0568   54.5895   10.8978 C.3       4 GLC5        0.0000 
     76 CA         28.7820   56.2360   10.3200 C.3       8 GLP5        0.0000 
     77 CA         33.9231   55.1128    9.7126 C.3       4 GLC5        0.0000 
     78 CA         32.9330   53.2290   10.6980 C.3      12 GLL5        0.0000 
     79 CA         33.8940   56.0720    7.9370 C.3       8 GLP5        0.0000 
     80 CA         38.8317   58.6232   16.0720 C.3       4 GLC5        0.0000 
     81 CA         38.0900   56.6370   15.8370 C.3      12 GLL5        0.0000 
     82 CA         39.4970   60.2840   15.6540 C.3       8 GLP5        0.0000 
     83 CA         37.2138   58.5637   15.9615 C.3       4 GLC5        0.0000 
     84 CA         38.2430   57.2880   17.1430 C.3      12 GLL5        0.0000 
     85 CA         36.2610   60.1650   15.4330 C.3       8 GLP5        0.0000 
@<TRIPOS>BOND
@<TRIPOS>SUBSTRUCTURE
     1 ALC1       12 GROUP        1 X    ALC  0     ROOT ALC X 1
     2 SEC2        1 GROUP        1 X    SEC  0     **** SEC X 2
     3 LYC4       62 GROUP        1 X    LYC  0     **** LYC X 4
     4 GLC5        7 GROUP        1 X    GLC  0     **** GLC X 6
     5 ALP1       14 GROUP        1 Y    ALP  0     ROOT ALP Y 8
     6 SEP2        3 GROUP        1 Y    SEP  0     **** SEP Y 9
     7 LYP4       64 GROUP        1 Y    LYP  0     **** LYP Y 11
     8 GLP5        9 GROUP        1 Y    GLP  0     **** GLP Y 13
     9 ALL1       13 GROUP        1 Z    ALL  0     ROOT ALL Z 15
    10 SEL2        2 GROUP        1 Z    SEL  0     **** SEL Z 16
    11 LYL4       63 GROUP        1 Z    LYL  0     **** LYL Z 18
    12 GLL5        8 GROUP        1 Z    GLL  0     **** GLL Z 20
@<TRIPOS>SET

