#    Name: 1rp4_FAD_1_ligand
#    Modification time : Tue Mar 25 01:01:52 2014

@<TRIPOS>MOLECULE
1rp4_FAD_1_ligand
   84    89     1     0     0
SMALL
NO_CHARGES


@<TRIPOS>ATOM
      1 PA         37.1970   53.8450   19.5060 P.3       1 FAD634      0.0000 
      2 O1A        36.1120   53.8340   18.4940 O.co2     1 FAD634      0.0000 
      3 O2A        38.5690   53.2790   19.3920 O.co2     1 FAD634      0.0000 
      4 O5B        36.5010   53.6020   20.8890 O.3       1 FAD634      0.0000 
      5 C5B        35.1240   53.4030   21.2370 C.3       1 FAD634      0.0000 
      6 C4B        35.1290   52.9580   22.6850 C.3       1 FAD634      0.0000 
      7 O4B        34.7600   51.5570   22.5130 O.3       1 FAD634      0.0000 
      8 C3B        36.3560   52.9760   23.6230 C.3       1 FAD634      0.0000 
      9 O3B        35.7210   53.1460   24.8920 O.3       1 FAD634      0.0000 
     10 C2B        37.0300   51.6880   23.4560 C.3       1 FAD634      0.0000 
     11 O2B        37.5250   51.3120   24.6990 O.3       1 FAD634      0.0000 
     12 C1B        35.9260   50.7910   22.8660 C.3       1 FAD634      0.0000 
     13 N9A        36.3200   49.9780   21.7590 N.pl3     1 FAD634      0.0000 
     14 C8A        37.2620   50.1450   20.7060 C.2       1 FAD634      0.0000 
     15 N7A        37.4060   49.1560   19.8810 N.2       1 FAD634      0.0000 
     16 C5A        36.6170   48.1540   20.4420 C.ar      1 FAD634      0.0000 
     17 C6A        36.2950   46.8310   20.0650 C.ar      1 FAD634      0.0000 
     18 N6A        36.7300   46.3440   18.8980 N.pl3     1 FAD634      0.0000 
     19 N1A        35.4940   46.0690   20.8920 N.ar      1 FAD634      0.0000 
     20 C2A        34.9030   46.4910   22.0470 C.ar      1 FAD634      0.0000 
     21 N3A        35.1170   47.8610   22.3100 N.ar      1 FAD634      0.0000 
     22 C4A        36.0020   48.6390   21.5060 C.ar      1 FAD634      0.0000 
     23 N1         37.9800   55.9110   11.3080 N.2       1 FAD634      0.0000 
     24 C2         39.0340   55.8990   10.4110 C.2       1 FAD634      0.0000 
     25 O2         40.1100   56.4970   10.6430 O.2       1 FAD634      0.0000 
     26 N3         38.7340   55.0690    9.3390 N.am      1 FAD634      0.0000 
     27 C4         37.5200   54.3590    9.1610 C.2       1 FAD634      0.0000 
     28 O4         37.3900   53.7320    8.0580 O.2       1 FAD634      0.0000 
     29 C4X        36.5120   54.4400   10.1010 C.2       1 FAD634      0.0000 
     30 N5         35.2190   53.8220    9.9930 N.2       1 FAD634      0.0000 
     31 C5X        34.1560   53.9050   10.9390 C.ar      1 FAD634      0.0000 
     32 C6         32.9330   53.2290   10.6980 C.ar      1 FAD634      0.0000 
     33 C7         31.9090   53.3970   11.6680 C.ar      1 FAD634      0.0000 
     34 C7M        30.7540   52.4890   11.2830 C.3       1 FAD634      0.0000 
     35 C8         32.0210   54.2160   12.8290 C.ar      1 FAD634      0.0000 
     36 C8M        31.1530   54.6090   14.0060 C.3       1 FAD634      0.0000 
     37 C9         33.2580   54.8240   13.0520 C.ar      1 FAD634      0.0000 
     38 C9A        34.3600   54.7400   12.1580 C.ar      1 FAD634      0.0000 
     39 N10        35.7440   55.2630   12.1590 N.pl3     1 FAD634      0.0000 
     40 C10        36.7750   55.2440   11.2470 C.2       1 FAD634      0.0000 
     41 C1'        36.1750   55.6320   13.4580 C.3       1 FAD634      0.0000 
     42 C2'        36.9390   54.8010   14.4450 C.3       1 FAD634      0.0000 
     43 O2'        36.0850   53.6430   14.6400 O.3       1 FAD634      0.0000 
     44 C3'        37.1050   55.4810   15.7770 C.3       1 FAD634      0.0000 
     45 O3'        35.8280   55.7490   16.3430 O.3       1 FAD634      0.0000 
     46 C4'        38.0900   56.6370   15.8370 C.3       1 FAD634      0.0000 
     47 O4'        39.4270   56.3230   15.3460 O.3       1 FAD634      0.0000 
     48 C5'        38.2430   57.2880   17.1430 C.3       1 FAD634      0.0000 
     49 O5'        38.8370   56.5070   18.1890 O.3       1 FAD634      0.0000 
     50 P          38.3750   56.5240   19.6830 P.3       1 FAD634      0.0000 
     51 O1P        39.6970   56.1810   20.1650 O.co2     1 FAD634      0.0000 
     52 O2P        37.6430   57.7750   20.0090 O.co2     1 FAD634      0.0000 
     53 O3P        37.2350   55.4030   19.7970 O.3       1 FAD634      0.0000 
     54 H          34.6668   52.6270   20.6407 H         1 FAD634      0.0000 
     55 H          34.5539   54.3173   21.1606 H         1 FAD634      0.0000 
     56 H          34.2734   53.4218   23.1943 H         1 FAD634      0.0000 
     57 H          36.9420   53.7929   23.3470 H         1 FAD634      0.0000 
     58 H          37.7866   51.8085   22.7030 H         1 FAD634      0.0000 
     59 H          35.6183   50.1042   23.7118 H         1 FAD634      0.0000 
     60 H          37.7715   51.0277   20.6551 H         1 FAD634      0.0000 
     61 H          36.0242   46.0517   18.2527 H         1 FAD634      0.0000 
     62 H          37.7221   46.3158   18.7754 H         1 FAD634      0.0000 
     63 H          34.3782   45.9201   22.6496 H         1 FAD634      0.0000 
     64 H          39.4705   54.9482    8.5808 H         1 FAD634      0.0000 
     65 H          32.7976   52.6645    9.8895 H         1 FAD634      0.0000 
     66 H          33.3930   55.3812   13.9336 H         1 FAD634      0.0000 
     67 H          35.2443   56.0535   14.0549 H         1 FAD634      0.0000 
     68 H          36.7689   56.6524   13.3790 H         1 FAD634      0.0000 
     69 H          37.8648   54.5131   14.0418 H         1 FAD634      0.0000 
     70 H          37.5780   54.6566   16.4525 H         1 FAD634      0.0000 
     71 H          37.6825   57.4387   15.1346 H         1 FAD634      0.0000 
     72 H          37.2282   57.6623   17.4763 H         1 FAD634      0.0000 
     73 H          38.8328   58.2431   16.9988 H         1 FAD634      0.0000 
     74 H          31.0294   51.5280   11.2582 H         1 FAD634      0.0000 
     75 H          29.9945   52.5597   11.9297 H         1 FAD634      0.0000 
     76 H          30.3908   52.7132   10.3787 H         1 FAD634      0.0000 
     77 H          31.6287   55.2324   14.6265 H         1 FAD634      0.0000 
     78 H          30.3156   55.0701   13.7124 H         1 FAD634      0.0000 
     79 H          30.8760   53.8136   14.5451 H         1 FAD634      0.0000 
     80 H          35.8375   54.1145   25.1119 H         1 FAD634      0.0000 
     81 H          36.9846   51.8319   25.3607 H         1 FAD634      0.0000 
     82 H          36.7137   52.8814   14.7969 H         1 FAD634      0.0000 
     83 H          35.7614   55.1382   17.1319 H         1 FAD634      0.0000 
     84 H          39.3854   56.4859   14.3602 H         1 FAD634      0.0000 
@<TRIPOS>BOND
     1    2    1 ar   
     2    3    1 ar   
     3    4    1 1    
     4   53    1 1    
     5    5    4 1    
     6    6    5 1    
     7   54    5 1    
     8   55    5 1    
     9    7    6 1    
    10    8    6 1    
    11   56    6 1    
    12   12    7 1    
    13    9    8 1    
    14   10    8 1    
    15   57    8 1    
    16   80    9 1    
    17   11   10 1    
    18   12   10 1    
    19   58   10 1    
    20   81   11 1    
    21   13   12 1    
    22   59   12 1    
    23   14   13 1    
    24   22   13 1    
    25   15   14 2    
    26   60   14 1    
    27   16   15 1    
    28   17   16 ar   
    29   22   16 ar   
    30   18   17 1    
    31   19   17 ar   
    32   61   18 1    
    33   62   18 1    
    34   20   19 ar   
    35   21   20 ar   
    36   63   20 1    
    37   22   21 ar   
    38   24   23 1    
    39   40   23 2    
    40   25   24 2    
    41   26   24 am   
    42   27   26 am   
    43   64   26 1    
    44   28   27 2    
    45   29   27 1    
    46   30   29 2    
    47   40   29 1    
    48   31   30 1    
    49   32   31 ar   
    50   38   31 ar   
    51   33   32 ar   
    52   65   32 1    
    53   34   33 1    
    54   35   33 ar   
    55   74   34 1    
    56   75   34 1    
    57   76   34 1    
    58   36   35 1    
    59   37   35 ar   
    60   77   36 1    
    61   78   36 1    
    62   79   36 1    
    63   38   37 ar   
    64   66   37 1    
    65   39   38 1    
    66   40   39 1    
    67   41   39 1    
    68   42   41 1    
    69   67   41 1    
    70   68   41 1    
    71   43   42 1    
    72   44   42 1    
    73   69   42 1    
    74   82   43 1    
    75   45   44 1    
    76   46   44 1    
    77   70   44 1    
    78   83   45 1    
    79   47   46 1    
    80   48   46 1    
    81   71   46 1    
    82   84   47 1    
    83   49   48 1    
    84   72   48 1    
    85   73   48 1    
    86   50   49 1    
    87   51   50 ar   
    88   52   50 ar   
    89   53   50 1    
@<TRIPOS>SUBSTRUCTURE
     1 FAD634      1 GROUP   
@<TRIPOS>SET

