#    Name: 4KYS_2_CAVITY_N1_6.mol2
#    Modification time : Tue Mar 11 12:25:53 2014

@<TRIPOS>MOLECULE
4KYS_2_CAVITY_N1_6.mol2
  133     0     6     0     0
SMALL
NO_CHARGES


@<TRIPOS>ATOM
      1 CA         22.1722   17.8751   20.9704 C.3       5 GLY6        0.0000 
      2 CA         20.9261   18.1473   21.7599 C.3       5 GLY6        0.0000 
      3 OG         26.4022   17.0287   16.5387 O.2       1 SER1        0.0000 
      4 OG         25.1562   17.3010   17.3282 O.2       1 SER1        0.0000 
      5 OG         23.9102   17.5732   18.1177 O.2       1 SER1        0.0000 
      6 OG         22.6642   17.8455   18.9072 O.2       1 SER1        0.0000 
      7 DU         21.4181   18.1178   19.6966 H         6 CUB7        0.0000 
      8 CZ         20.1721   18.3900   20.4861 C.ar      4 PHE5        0.0000 
      9 CZ         25.6482   17.2714   15.2649 C.ar      4 PHE5        0.0000 
     10 DU         24.4022   17.5436   16.0544 H         6 CUB7        0.0000 
     11 DU         23.1561   17.8159   16.8439 H         6 CUB7        0.0000 
     12 DU         21.9101   18.0882   17.6334 H         6 CUB7        0.0000 
     13 CZ         20.6641   18.3604   18.4229 C.ar      4 PHE5        0.0000 
     14 CZ         24.8942   17.5141   13.9911 C.ar      4 PHE5        0.0000 
     15 DU         23.6481   17.7863   14.7806 H         6 CUB7        0.0000 
     16 DU         22.4021   18.0586   15.5701 H         6 CUB7        0.0000 
     17 CZ         21.1561   18.3309   16.3596 C.ar      4 PHE5        0.0000 
     18 CZ         19.9100   18.6031   17.1491 C.ar      4 PHE5        0.0000 
     19 OG         22.8941   18.0290   13.5068 O.2       1 SER1        0.0000 
     20 CZ         21.6481   18.3013   14.2963 C.ar      4 PHE5        0.0000 
     21 OG         25.0232   18.7855   19.4562 O.2       1 SER1        0.0000 
     22 CA         23.7771   19.0578   20.2457 C.3       5 GLY6        0.0000 
     23 CA         26.7612   18.4837   16.6034 C.3       5 GLY6        0.0000 
     24 CA         25.5152   18.7559   17.3929 C.3       5 GLY6        0.0000 
     25 OG         24.2691   19.0282   18.1824 O.2       1 SER1        0.0000 
     26 DU         23.0231   19.3005   18.9719 H         6 CUB7        0.0000 
     27 CA         21.7771   19.5727   19.7614 C.3       5 GLY6        0.0000 
     28 CZ         20.5310   19.8450   20.5508 C.ar      4 PHE5        0.0000 
     29 CZ         26.0071   18.7264   15.3297 C.ar      4 PHE5        0.0000 
     30 DU         24.7611   18.9986   16.1191 H         6 CUB7        0.0000 
     31 DU         23.5151   19.2709   16.9086 H         6 CUB7        0.0000 
     32 DU         22.2691   19.5432   17.6981 H         6 CUB7        0.0000 
     33 CZ         21.0230   19.8154   18.4876 C.ar      4 PHE5        0.0000 
     34 CZ         19.7770   20.0877   19.2771 C.ar      4 PHE5        0.0000 
     35 CZ         24.0071   19.2413   14.8454 C.ar      4 PHE5        0.0000 
     36 DU         22.7610   19.5136   15.6348 H         6 CUB7        0.0000 
     37 CZ         21.5150   19.7858   16.4243 C.ar      4 PHE5        0.0000 
     38 CZ         20.2690   20.0581   17.2138 C.ar      4 PHE5        0.0000 
     39 CZ         23.2530   19.4840   13.5716 C.ar      4 PHE5        0.0000 
     40 CZ         22.0070   19.7563   14.3610 C.ar      4 PHE5        0.0000 
     41 CA         22.5673   16.1774   22.1795 C.3       5 GLY6        0.0000 
     42 CA         21.3212   16.4497   22.9690 C.3       5 GLY6        0.0000 
     43 OG         21.8132   16.4201   20.9057 O.2       1 SER1        0.0000 
     44 CZ         20.5672   16.6924   21.6952 C.ar      4 PHE5        0.0000 
     45 OG         26.0433   15.5737   16.4740 O.2       1 SER1        0.0000 
     46 OG         24.7973   15.8460   17.2635 O.2       1 SER1        0.0000 
     47 OG         22.3052   16.3905   18.8424 O.2       1 SER1        0.0000 
     48 CZ         21.0592   16.6628   19.6319 C.ar      4 PHE5        0.0000 
     49 NZ         25.2893   15.8164   15.2002 N.2       3 LYS4        0.0000 
     50 DU         24.0432   16.0887   15.9897 H         6 CUB7        0.0000 
     51 OG         22.7972   16.3609   16.7792 O.2       1 SER1        0.0000 
     52 DU         21.5512   16.6332   17.5686 H         6 CUB7        0.0000 
     53 CZ         20.3051   16.9055   18.3581 C.ar      4 PHE5        0.0000 
     54 DU         24.5352   16.0591   13.9264 H         6 CUB7        0.0000 
     55 DU         22.0432   16.6036   15.5054 H         6 CUB7        0.0000 
     56 CZ         20.7971   16.8759   16.2949 C.ar      4 PHE5        0.0000 
     57 CZ         19.5511   17.1481   17.0843 C.ar      4 PHE5        0.0000 
     58 CA         23.7812   16.3018   12.6526 C.3       5 GLY6        0.0000 
     59 OG         22.5352   16.5740   13.4421 O.2       1 SER1        0.0000 
     60 OG         21.7811   16.8167   12.1683 O.2       1 SER1        0.0000 
     61 CZ         19.9824   12.2978   19.4377 C.ar      4 PHE5        0.0000 
     62 CZ         20.4744   12.2683   17.3745 C.ar      4 PHE5        0.0000 
     63 OG         19.2283   12.5405   18.1639 O.2       1 SER1        0.0000 
     64 OG         17.9823   12.8128   18.9534 O.2       1 SER1        0.0000 
     65 CZ         20.9664   12.2387   15.3112 C.ar      4 PHE5        0.0000 
     66 NZ         19.7203   12.5109   16.1007 N.2       3 LYS4        0.0000 
     67 OG         18.4743   12.7832   16.8902 O.2       1 SER1        0.0000 
     68 CZ         22.7044   11.9368   12.4584 C.ar      4 PHE5        0.0000 
     69 N          18.9663   12.7536   14.8269 N.2       2 ALA2        0.0000 
     70 OG         17.7203   13.0259   15.6164 O.2       1 SER1        0.0000 
     71 OG         20.1154   10.8133   17.3097 O.2       1 SER1        0.0000 
     72 CA         18.8694   11.0855   18.0992 C.3       5 GLY6        0.0000 
     73 CA         17.6234   11.3578   18.8887 C.3       5 GLY6        0.0000 
     74 NZ         19.3614   11.0560   16.0359 N.2       3 LYS4        0.0000 
     75 CA         18.1154   11.3282   16.8254 C.3       5 GLY6        0.0000 
     76 NZ         16.8693   11.6005   17.6149 N.2       3 LYS4        0.0000 
     77 CA         25.3821   20.2405   19.5209 C.3       5 GLY6        0.0000 
     78 CA         24.1361   20.5128   20.3104 C.3       5 GLY6        0.0000 
     79 CA         25.8741   20.2109   17.4577 C.3       5 GLY6        0.0000 
     80 DU         24.6281   20.4832   18.2471 H         6 CUB7        0.0000 
     81 DU         23.3820   20.7555   19.0366 H         6 CUB7        0.0000 
     82 OG         22.1360   21.0277   19.8261 O.2       1 SER1        0.0000 
     83 CZ         26.3661   20.1813   15.3944 C.ar      4 PHE5        0.0000 
     84 DU         25.1200   20.4536   16.1839 H         6 CUB7        0.0000 
     85 DU         22.6280   20.9981   17.7628 H         6 CUB7        0.0000 
     86 DU         21.3820   21.2704   18.5523 H         6 CUB7        0.0000 
     87 CA         20.1359   21.5427   19.3418 C.3       5 GLY6        0.0000 
     88 CZ         25.6120   20.4240   14.1206 C.ar      4 PHE5        0.0000 
     89 CZ         24.3660   20.6963   14.9101 C.ar      4 PHE5        0.0000 
     90 DU         23.1200   20.9686   15.6996 H         6 CUB7        0.0000 
     91 OG         21.8740   21.2408   16.4890 O.2       1 SER1        0.0000 
     92 OG         20.6279   21.5131   17.2785 O.2       1 SER1        0.0000 
     93 OG         22.2083   14.7224   22.1148 O.2       1 SER1        0.0000 
     94 CA         20.9623   14.9947   22.9042 C.3       5 GLY6        0.0000 
     95 OG         22.7003   14.6928   20.0515 O.2       1 SER1        0.0000 
     96 CZ         21.4543   14.9651   20.8410 C.ar      4 PHE5        0.0000 
     97 CZ         20.2083   15.2374   21.6304 C.ar      4 PHE5        0.0000 
     98 CZ         25.6844   14.1187   16.4093 C.ar      4 PHE5        0.0000 
     99 CZ         24.4383   14.3910   17.1987 C.ar      4 PHE5        0.0000 
    100 OG         23.1923   14.6633   17.9882 O.2       1 SER1        0.0000 
    101 OG         21.9463   14.9355   18.7777 O.2       1 SER1        0.0000 
    102 OG         20.7003   15.2078   19.5672 O.2       1 SER1        0.0000 
    103 CZ         24.9303   14.3614   15.1355 C.ar      4 PHE5        0.0000 
    104 CZ         23.6843   14.6337   15.9250 C.ar      4 PHE5        0.0000 
    105 CZ         22.4383   14.9059   16.7144 C.ar      4 PHE5        0.0000 
    106 DU         21.1922   15.1782   17.5039 H         6 CUB7        0.0000 
    107 OG         19.9462   15.4505   18.2934 O.2       1 SER1        0.0000 
    108 DU         24.1763   14.6041   13.8617 H         6 CUB7        0.0000 
    109 CZ         22.9303   14.8764   14.6512 C.ar      4 PHE5        0.0000 
    110 DU         21.6842   15.1486   15.4406 H         6 CUB7        0.0000 
    111 OG         20.4382   15.4209   16.2301 O.2       1 SER1        0.0000 
    112 CA         23.4223   14.8468   12.5879 C.3       5 GLY6        0.0000 
    113 DU         22.1762   15.1190   13.3774 H         6 CUB7        0.0000 
    114 CA         20.9302   15.3913   14.1669 C.3       5 GLY6        0.0000 
    115 OG         21.4222   15.3617   12.1036 O.2       1 SER1        0.0000 
    116 CZ         21.0954   13.5101   20.7762 C.ar      4 PHE5        0.0000 
    117 OG         21.5873   13.4805   18.7130 O.2       1 SER1        0.0000 
    118 OG         20.3413   13.7528   19.5025 O.2       1 SER1        0.0000 
    119 CZ         22.0793   13.4510   16.6497 C.ar      4 PHE5        0.0000 
    120 OG         20.8333   13.7232   17.4392 O.2       1 SER1        0.0000 
    121 OG         19.5873   13.9955   18.2287 O.2       1 SER1        0.0000 
    122 CZ         23.8174   13.1491   13.7970 C.ar      4 PHE5        0.0000 
    123 CZ         22.5713   13.4214   14.5864 C.ar      4 PHE5        0.0000 
    124 CZ         21.3253   13.6936   15.3759 C.ar      4 PHE5        0.0000 
    125 OG         20.0793   13.9659   16.1654 O.2       1 SER1        0.0000 
    126 CZ         23.0633   13.3918   12.5232 C.ar      4 PHE5        0.0000 
    127 OG         21.8173   13.6641   13.3127 O.2       1 SER1        0.0000 
    128 N          20.5713   13.9363   14.1021 N.2       2 ALA2        0.0000 
    129 N          19.3252   14.2086   14.8916 N.2       2 ALA2        0.0000 
    130 OG         21.0633   13.9068   12.0389 O.2       1 SER1        0.0000 
    131 O          25.7410   21.6955   19.5857 O.2       2 ALA2        0.0000 
    132 DU         23.7410   22.2104   19.1013 H         6 CUB7        0.0000 
    133 OG         22.4949   22.4827   19.8908 O.2       1 SER1        0.0000 
@<TRIPOS>BOND
@<TRIPOS>SUBSTRUCTURE
     1 SER1        3 GROUP   
     2 ALA2       69 GROUP   
     3 LYS4       49 GROUP   
     4 PHE5        8 GROUP   
     5 GLY6        1 GROUP   
     6 CUB7        7 GROUP   
@<TRIPOS>SET

