#    Name: 4kys_VIB_2_INTS_M
#    Modification time : Tue Mar 25 09:19:18 2014

@<TRIPOS>MOLECULE
4kys_VIB_2_INTS_M
   42     0     9     0     0
SMALL
NO_CHARGES


@<TRIPOS>ATOM
      1 CA         16.0950   12.3860   15.2475 C.3       3 GLC5        0.0000 
      2 CA         16.8540   10.5040   14.9600 C.3       9 GLL5        0.0000 
      3 CA         15.3360   14.2680   15.5350 C.3       6 GLP5        0.0000 
      4 CA         15.3155    9.2480   14.9270 C.3       3 GLC5        0.0000 
      5 CA         13.7770    7.9920   14.8940 C.3       6 GLP5        0.0000 
      6 CA         16.5880    9.8150   13.2625 C.3       3 GLC5        0.0000 
      7 CA         16.3220    9.1260   11.5650 C.3       6 GLP5        0.0000 
      8 O          17.1680   13.3425   20.5590 O.2       1 ALC1        0.0000 
      9 O          17.1360   12.6450   19.3580 O.2       7 ALL1        0.0000 
     10 O          17.2000   14.0400   21.7600 O.2       4 ALP1        0.0000 
     11 O          15.7025   12.5695   19.1060 O.2       1 ALC1        0.0000 
     12 O          14.2690   12.4940   18.8540 O.2       4 ALP1        0.0000 
     13 CA         19.5210   16.0245   21.3600 C.3       3 GLC5        0.0000 
     14 CA         21.1510   14.6800   21.2450 C.3       9 GLL5        0.0000 
     15 CA         17.8910   17.3690   21.4750 C.3       6 GLP5        0.0000 
     16 CA         21.8385   14.6965   23.3400 C.3       3 GLC5        0.0000 
     17 CA         22.5260   14.7130   25.4350 C.3       6 GLP5        0.0000 
     18 CA         20.8335   13.2710   22.0330 C.3       3 GLC5        0.0000 
     19 CA         20.5160   11.8620   22.8210 C.3       6 GLP5        0.0000 
     20 CA         19.3930   19.3200   20.1825 C.3       3 GLC5        0.0000 
     21 CA         21.0400   18.9330   19.5530 C.3       9 GLL5        0.0000 
     22 CA         17.7460   19.7070   20.8120 C.3       6 GLP5        0.0000 
     23 CA         19.7210   17.4685   20.7650 C.3       3 GLC5        0.0000 
     24 CA         21.5510   17.5680   20.0550 C.3       9 GLL5        0.0000 
     25 CA         21.7370   11.8475   18.4315 C.3       3 GLC5        0.0000 
     26 CA         20.0400   12.7300   19.2460 C.3       9 GLL5        0.0000 
     27 CA         23.4340   10.9650   17.6170 C.3       6 GLP5        0.0000 
     28 CA         19.6645   11.4875   20.3895 C.3       3 GLC5        0.0000 
     29 CA         19.2890   10.2450   21.5330 C.3       6 GLP5        0.0000 
     30 N          15.7230   11.5140   17.0395 N.am      2 SEC2        0.0000 
     31 N          17.0900   11.5850   17.1680 N.am      8 SEL2        0.0000 
     32 N          14.3560   11.4430   16.9110 N.am      5 SEP2        0.0000 
     33 CA         17.8035    9.3283   16.3900 C.3       3 GLC5        0.0000 
     34 CA         17.6980   11.0750   16.0780 C.3       9 GLL5        0.0000 
     35 CA         18.3310    7.8670   17.2610 C.3       6 GLP5        0.0000 
     36 CA         21.9507   18.5042   21.7095 C.3       3 GLC5        0.0000 
     37 CA         22.6060   18.7580   23.6150 C.3       6 GLP5        0.0000 
     38 CA         18.2415   10.8775   19.6242 C.3       3 GLC5        0.0000 
     39 CA         17.7930   12.0970   18.1790 C.3       9 GLL5        0.0000 
     40 CA         17.9750    9.6510   21.1070 C.3       6 GLP5        0.0000 
     41 CA         18.7525    9.8438   17.3896 C.3       3 GLC5        0.0000 
     42 CA         19.2230   12.1110   18.1040 C.3       9 GLL5        0.0000 
@<TRIPOS>BOND
@<TRIPOS>SUBSTRUCTURE
     1 ALC1        8 GROUP        1 X    ALC  0     ROOT ALC X 1
     2 SEC2       30 GROUP        1 X    SEC  0     **** SEC X 2
     3 GLC5        1 GROUP        1 X    GLC  0     **** GLC X 6
     4 ALP1       10 GROUP        1 Y    ALP  0     ROOT ALP Y 8
     5 SEP2       32 GROUP        1 Y    SEP  0     **** SEP Y 9
     6 GLP5        3 GROUP        1 Y    GLP  0     **** GLP Y 13
     7 ALL1        9 GROUP        1 Z    ALL  0     ROOT ALL Z 15
     8 SEL2       31 GROUP        1 Z    SEL  0     **** SEL Z 16
     9 GLL5        2 GROUP        1 Z    GLL  0     **** GLL Z 20
@<TRIPOS>SET

