#    Name: 4kys_VIB_2_ligand
#    Modification time : Tue Mar 25 09:19:18 2014

@<TRIPOS>MOLECULE
4kys_VIB_2_ligand
   35    36     1     0     0
SMALL
NO_CHARGES


@<TRIPOS>ATOM
      1 CM2        16.8540   10.5040   14.9600 C.3       1 VIB501      0.0000 
      2 N4A        17.1360   12.6450   19.3580 N.pl3     1 VIB501      0.0000 
      3 CM4        21.1510   14.6800   21.2450 C.3       1 VIB501      0.0000 
      4 O1         21.5010   19.1430   18.2110 O.3       1 VIB501      0.0000 
      5 C7         21.0400   18.9330   19.5530 C.3       1 VIB501      0.0000 
      6 C6         21.5510   17.5680   20.0550 C.3       1 VIB501      0.0000 
      7 C2         20.0380   14.5810   17.6120 C.2       1 VIB501      0.0000 
      8 S1         20.4570   16.2410   17.5950 S.3       1 VIB501      0.0000 
      9 C5         20.9820   16.3440   19.2520 C.2       1 VIB501      0.0000 
     10 C4         20.7980   15.0070   19.7790 C.2       1 VIB501      0.0000 
     11 N3         20.2980   14.0870   18.8820 N.pl3     1 VIB501      0.0000 
     12 C7A        20.0400   12.7300   19.2460 C.3       1 VIB501      0.0000 
     13 C4A        17.7930   12.0970   18.1790 C.ar      1 VIB501      0.0000 
     14 N3A        17.0900   11.5850   17.1680 N.ar      1 VIB501      0.0000 
     15 C2A        17.6980   11.0750   16.0780 C.ar      1 VIB501      0.0000 
     16 N1A        19.0810   11.0510   15.9440 N.ar      1 VIB501      0.0000 
     17 C6A        19.8400   11.5370   16.8950 C.ar      1 VIB501      0.0000 
     18 C5A        19.2230   12.1110   18.1040 C.ar      1 VIB501      0.0000 
     19 H          16.1366   12.6093   19.3613 H         1 VIB501      0.0000 
     20 H          17.7384   13.0117   20.0669 H         1 VIB501      0.0000 
     21 H          19.9502   18.9191   19.6118 H         1 VIB501      0.0000 
     22 H          21.4146   19.6970   20.2366 H         1 VIB501      0.0000 
     23 H          21.2759   17.4432   21.1081 H         1 VIB501      0.0000 
     24 H          22.6442   17.5429   19.9866 H         1 VIB501      0.0000 
     25 H          19.7194   14.2524   16.8405 H         1 VIB501      0.0000 
     26 H          19.4528   12.6544   20.1537 H         1 VIB501      0.0000 
     27 H          20.9520   12.1544   19.3522 H         1 VIB501      0.0000 
     28 H          20.8688   11.5521   16.8676 H         1 VIB501      0.0000 
     29 H          17.4169   10.1538   14.2114 H         1 VIB501      0.0000 
     30 H          16.2823    9.7468   15.2758 H         1 VIB501      0.0000 
     31 H          16.2412   11.1909   14.5693 H         1 VIB501      0.0000 
     32 H          22.1162   14.8522   21.4419 H         1 VIB501      0.0000 
     33 H          20.6180   15.2310   21.8871 H         1 VIB501      0.0000 
     34 H          20.9737   13.7207   21.4646 H         1 VIB501      0.0000 
     35 H          21.2633   18.3040   17.7215 H         1 VIB501      0.0000 
@<TRIPOS>BOND
     1   15    1 1    
     2   29    1 1    
     3   30    1 1    
     4   31    1 1    
     5   13    2 1    
     6   19    2 1    
     7   20    2 1    
     8   10    3 1    
     9   32    3 1    
    10   33    3 1    
    11   34    3 1    
    12    5    4 1    
    13   35    4 1    
    14    6    5 1    
    15   21    5 1    
    16   22    5 1    
    17    9    6 1    
    18   23    6 1    
    19   24    6 1    
    20    8    7 1    
    21   11    7 2    
    22   25    7 1    
    23    9    8 1    
    24   10    9 2    
    25   11   10 1    
    26   12   11 1    
    27   18   12 1    
    28   26   12 1    
    29   27   12 1    
    30   14   13 ar   
    31   18   13 ar   
    32   15   14 ar   
    33   16   15 ar   
    34   17   16 ar   
    35   18   17 ar   
    36   28   17 1    
@<TRIPOS>SUBSTRUCTURE
     1 VIB501      1 GROUP   
@<TRIPOS>SET

