#    Name: 3bym_AM0_1_INTS_M
#    Modification time : Mon Mar 24 20:13:31 2014

@<TRIPOS>MOLECULE
3bym_AM0_1_INTS_M
   81     0     9     0     0
SMALL
NO_CHARGES


@<TRIPOS>ATOM
      1 N          25.1490   34.1015   80.6015 N.am      2 SEC2        0.0000 
      2 N          25.0650   34.8940   81.7620 N.am      8 SEL2        0.0000 
      3 N          25.2330   33.3090   79.4410 N.am      5 SEP2        0.0000 
      4 CA         23.6575   33.8875   83.5790 C.3       3 GLC5        0.0000 
      5 CA         23.7580   34.9420   82.1330 C.3       9 GLL5        0.0000 
      6 CA         23.5570   32.8330   85.0250 C.3       6 GLP5        0.0000 
      7 CA         23.9570   33.2050   81.3685 C.3       3 GLC5        0.0000 
      8 CA         24.1560   31.4680   80.6040 C.3       6 GLP5        0.0000 
      9 CA         23.7140   35.2185   80.1255 C.3       3 GLC5        0.0000 
     10 CA         23.6700   35.4950   78.1180 C.3       6 GLP5        0.0000 
     11 CA         23.4865   36.5275   81.4190 C.3       3 GLC5        0.0000 
     12 CA         23.2150   38.1130   80.7050 C.3       6 GLP5        0.0000 
     13 CA         23.9075   34.7070   84.4405 C.3       3 GLC5        0.0000 
     14 CA         24.2580   36.5810   83.8560 C.3       9 GLL5        0.0000 
     15 CA         23.7365   37.3470   82.2805 C.3       3 GLC5        0.0000 
     16 CA         27.0440   35.1860   84.0740 C.3       3 GLC5        0.0000 
     17 CA         25.9740   35.6700   82.4240 C.3       9 GLL5        0.0000 
     18 CA         28.1140   34.7020   85.7240 C.3       6 GLP5        0.0000 
     19 CA         25.5790   35.5605   80.3335 C.3       3 GLC5        0.0000 
     20 CA         25.1840   35.4510   78.2430 C.3       6 GLP5        0.0000 
     21 CA         24.5945   36.8915   81.5645 C.3       3 GLC5        0.0000 
     22 O          27.5470   35.2315   80.6995 O.2       1 ALC1        0.0000 
     23 O          27.3060   35.6270   82.0250 O.2       7 ALL1        0.0000 
     24 O          27.7880   34.8360   79.3740 O.2       4 ALP1        0.0000 
     25 CA         26.5475   38.8855   81.6185 C.3       3 GLC5        0.0000 
     26 CA         28.1480   37.8810   82.8230 C.3       9 GLL5        0.0000 
     27 CA         24.9470   39.8900   80.4140 C.3       6 GLP5        0.0000 
     28 CA         30.6680   35.6225   84.2340 C.3       3 GLC5        0.0000 
     29 CA         30.7430   36.7390   82.5140 C.3       9 GLL5        0.0000 
     30 CA         30.5930   34.5060   85.9540 C.3       6 GLP5        0.0000 
     31 CA         30.7200   37.4695   85.8775 C.3       3 GLC5        0.0000 
     32 CA         32.1140   38.6530   84.5860 C.3       9 GLL5        0.0000 
     33 CA         29.3260   36.2860   87.1690 C.3       6 GLP5        0.0000 
     34 CA         27.9590   39.4190   88.7005 C.3       3 GLC5        0.0000 
     35 CA         26.7810   39.5040   86.8410 C.3       9 GLL5        0.0000 
     36 CA         29.1370   39.3340   90.5600 C.3       6 GLP5        0.0000 
     37 CA         26.0180   38.1495   88.2030 C.3       3 GLC5        0.0000 
     38 CA         25.2550   36.7950   89.5650 C.3       6 GLP5        0.0000 
     39 CA         31.4530   34.7230   83.9675 C.3       3 GLC5        0.0000 
     40 CA         32.3130   34.9400   81.9810 C.3       9 GLL5        0.0000 
     41 CA         30.6680   33.4930   81.9400 C.3       3 GLC5        0.0000 
     42 CA         29.0230   32.0460   81.8990 C.3       6 GLP5        0.0000 
     43 CA         27.8550   41.9600   82.0695 C.3       3 GLC5        0.0000 
     44 CA         28.0190   40.8030   83.5440 C.3       9 GLL5        0.0000 
     45 CA         27.6910   43.1170   80.5950 C.3       6 GLP5        0.0000 
     46 CA         26.4830   40.3465   81.9790 C.3       3 GLC5        0.0000 
     47 CA         15.8900   37.4475   84.8210 C.3       3 GLC5        0.0000 
     48 CA         17.4900   38.2460   85.1150 C.3       9 GLL5        0.0000 
     49 CA         14.2900   36.6490   84.5270 C.3       6 GLP5        0.0000 
     50 CA         16.5580   36.9865   83.4465 C.3       3 GLC5        0.0000 
     51 CA         17.9920   38.1070   83.7680 C.3       9 GLL5        0.0000 
     52 CA         15.1240   35.8660   83.1250 C.3       6 GLP5        0.0000 
     53 CA         18.3890   39.4840   82.1880 C.3       3 GLC5        0.0000 
     54 CA         18.7860   40.8610   80.6080 C.3       6 GLP5        0.0000 
     55 CA         19.8075   39.1365   82.2790 C.3       3 GLC5        0.0000 
     56 CA         19.3690   37.7400   83.6390 C.3       9 GLL5        0.0000 
     57 CA         20.2460   40.5330   80.9190 C.3       6 GLP5        0.0000 
     58 CA         29.1020   37.4555   80.9160 C.3       3 GLC5        0.0000 
     59 CA         28.3280   36.5210   82.3500 C.3       9 GLL5        0.0000 
     60 CA         29.2400   38.6690   79.5580 C.3       6 GLP5        0.0000 
     61 CA         28.3350   35.8817   84.1362 C.3       3 GLC5        0.0000 
     62 CA         28.9752   38.4742   81.2723 C.3       3 GLC5        0.0000 
     63 CA         29.9423   38.0362   81.1515 C.3       3 GLC5        0.0000 
     64 CA         30.5460   38.0680   82.9760 C.3       9 GLL5        0.0000 
     65 CA         24.2995   38.6936   88.4941 C.3       3 GLC5        0.0000 
     66 CA         25.8310   40.2690   87.6430 C.3       9 GLL5        0.0000 
     67 CA         24.1160   37.7270   89.9420 C.3       6 GLP5        0.0000 
     68 CA         25.2097   37.2432   87.0392 C.3       3 GLC5        0.0000 
     69 CA         24.7910   38.3500   85.6920 C.3       9 GLL5        0.0000 
     70 CA         24.8980   36.0350   88.2970 C.3       6 GLP5        0.0000 
     71 CA         27.9213   37.6572   86.7625 C.3       3 GLC5        0.0000 
     72 CA         26.2520   38.5530   85.8710 C.3       9 GLL5        0.0000 
     73 CA         19.1152   37.7312   88.1782 C.3       3 GLC5        0.0000 
     74 CA         19.6180   37.6870   86.1920 C.3       9 GLL5        0.0000 
     75 CA         19.3020   37.5910   90.0860 C.3       6 GLP5        0.0000 
     76 CA         17.8610   40.1917   84.2688 C.3       3 GLC5        0.0000 
     77 CA         17.9810   42.2070   84.0960 C.3       6 GLP5        0.0000 
     78 CA         18.9017   36.6318   82.2142 C.3       3 GLC5        0.0000 
     79 CA         19.1230   35.3400   80.7250 C.3       6 GLP5        0.0000 
     80 CA         18.9017   35.6497   84.5743 C.3       3 GLC5        0.0000 
     81 CA         18.0350   33.6650   84.9150 C.3       6 GLP5        0.0000 
@<TRIPOS>BOND
@<TRIPOS>SUBSTRUCTURE
     1 ALC1       22 GROUP        1 X    ALC  0     ROOT ALC X 1
     2 SEC2        1 GROUP        1 X    SEC  0     **** SEC X 2
     3 GLC5        4 GROUP        1 X    GLC  0     **** GLC X 6
     4 ALP1       24 GROUP        1 Y    ALP  0     ROOT ALP Y 8
     5 SEP2        3 GROUP        1 Y    SEP  0     **** SEP Y 9
     6 GLP5        6 GROUP        1 Y    GLP  0     **** GLP Y 13
     7 ALL1       23 GROUP        1 Z    ALL  0     ROOT ALL Z 15
     8 SEL2        2 GROUP        1 Z    SEL  0     **** SEL Z 16
     9 GLL5        5 GROUP        1 Z    GLL  0     **** GLL Z 20
@<TRIPOS>SET

