#    Name: 3bym_AM0_1_ligand
#    Modification time : Mon Mar 24 20:13:31 2014

@<TRIPOS>MOLECULE
3bym_AM0_1_ligand
   58    62     1     0     0
SMALL
NO_CHARGES


@<TRIPOS>ATOM
      1 N3         25.0650   34.8940   81.7620 N.ar      1 AM01        0.0000 
      2 C7         23.7580   34.9420   82.1330 C.ar      1 AM01        0.0000 
      3 N4         23.3400   35.7460   83.1420 N.ar      1 AM01        0.0000 
      4 C8         24.2580   36.5810   83.8560 C.ar      1 AM01        0.0000 
      5 N5         25.5940   36.4960   83.4510 N.ar      1 AM01        0.0000 
      6 C10        25.9740   35.6700   82.4240 C.ar      1 AM01        0.0000 
      7 N2         27.3060   35.6270   82.0250 N.pl3     1 AM01        0.0000 
      8 C11        29.6000   35.9630   82.1980 C.ar      1 AM01        0.0000 
      9 C13        28.3280   36.5210   82.3500 C.ar      1 AM01        0.0000 
     10 C14        28.1480   37.8810   82.8230 C.ar      1 AM01        0.0000 
     11 C15        29.2730   38.6780   83.1500 C.ar      1 AM01        0.0000 
     12 C16        30.5460   38.0680   82.9760 C.ar      1 AM01        0.0000 
     13 C17        30.7430   36.7390   82.5140 C.ar      1 AM01        0.0000 
     14 O1         31.6050   38.8850   83.2770 O.3       1 AM01        0.0000 
     15 O2         32.0480   36.2840   82.4220 O.3       1 AM01        0.0000 
     16 C9         32.1140   38.6530   84.5860 C.3       1 AM01        0.0000 
     17 C1         25.8310   40.2690   87.6430 C.ar      1 AM01        0.0000 
     18 C2         24.3930   40.0980   87.4960 C.ar      1 AM01        0.0000 
     19 C3         23.8540   39.1370   86.5230 C.ar      1 AM01        0.0000 
     20 C4         24.7910   38.3500   85.6920 C.ar      1 AM01        0.0000 
     21 C5         26.2520   38.5530   85.8710 C.ar      1 AM01        0.0000 
     22 C6         26.7810   39.5040   86.8410 C.ar      1 AM01        0.0000 
     23 N6         22.5730   38.7250   86.1420 N.2       1 AM01        0.0000 
     24 C12        22.6550   37.7910   85.1880 C.2       1 AM01        0.0000 
     25 N7         23.9360   37.5280   84.8760 N.pl3     1 AM01        0.0000 
     26 N1         21.4660   37.1380   84.5920 N.pl3     1 AM01        0.0000 
     27 O3         29.2130   39.9900   83.6540 O.3       1 AM01        0.0000 
     28 C18        32.3130   34.9400   81.9810 C.3       1 AM01        0.0000 
     29 C19        28.0190   40.8030   83.5440 C.3       1 AM01        0.0000 
     30 C20        18.2390   38.0560   86.3490 C.ar      1 AM01        0.0000 
     31 C21        17.4900   38.2460   85.1150 C.ar      1 AM01        0.0000 
     32 C22        17.9920   38.1070   83.7680 C.ar      1 AM01        0.0000 
     33 C23        19.3690   37.7400   83.6390 C.ar      1 AM01        0.0000 
     34 C24        20.1680   37.5290   84.8280 C.ar      1 AM01        0.0000 
     35 C25        19.6180   37.6870   86.1920 C.ar      1 AM01        0.0000 
     36 H          23.0600   34.3447   81.6278 H         1 AM01        0.0000 
     37 H          27.5864   34.7995   81.3838 H         1 AM01        0.0000 
     38 H          29.7142   35.0076   81.8636 H         1 AM01        0.0000 
     39 H          27.2058   38.2493   82.9149 H         1 AM01        0.0000 
     40 H          26.1855   40.9396   88.3229 H         1 AM01        0.0000 
     41 H          23.7584   40.6383   88.0613 H         1 AM01        0.0000 
     42 H          26.8884   38.0100   85.2976 H         1 AM01        0.0000 
     43 H          27.7585   39.6284   86.9535 H         1 AM01        0.0000 
     44 H          21.6709   36.3312   83.9563 H         1 AM01        0.0000 
     45 H          17.8200   38.1747   87.2263 H         1 AM01        0.0000 
     46 H          16.4710   38.5141   85.2209 H         1 AM01        0.0000 
     47 H          17.4126   38.2581   82.9844 H         1 AM01        0.0000 
     48 H          19.7881   37.6270   82.7278 H         1 AM01        0.0000 
     49 H          20.2129   37.5349   86.9801 H         1 AM01        0.0000 
     50 H          32.4360   37.7129   84.6980 H         1 AM01        0.0000 
     51 H          32.8850   39.2540   84.7966 H         1 AM01        0.0000 
     52 H          31.4194   38.8105   85.2879 H         1 AM01        0.0000 
     53 H          33.2929   34.7412   81.9638 H         1 AM01        0.0000 
     54 H          31.8868   34.2618   82.5797 H         1 AM01        0.0000 
     55 H          31.9645   34.7765   81.0581 H         1 AM01        0.0000 
     56 H          28.1466   41.7073   83.9513 H         1 AM01        0.0000 
     57 H          27.7535   40.9458   82.5905 H         1 AM01        0.0000 
     58 H          27.2386   40.3811   84.0056 H         1 AM01        0.0000 
@<TRIPOS>BOND
     1    2    1 ar   
     2    6    1 ar   
     3    3    2 ar   
     4   36    2 1    
     5    4    3 ar   
     6    5    4 ar   
     7   25    4 1    
     8    6    5 ar   
     9    7    6 1    
    10    9    7 1    
    11   37    7 1    
    12    9    8 ar   
    13   13    8 ar   
    14   38    8 1    
    15   10    9 ar   
    16   11   10 ar   
    17   39   10 1    
    18   12   11 ar   
    19   27   11 1    
    20   13   12 ar   
    21   14   12 1    
    22   15   13 1    
    23   16   14 1    
    24   28   15 1    
    25   50   16 1    
    26   51   16 1    
    27   52   16 1    
    28   18   17 ar   
    29   22   17 ar   
    30   40   17 1    
    31   19   18 ar   
    32   41   18 1    
    33   20   19 ar   
    34   23   19 1    
    35   21   20 ar   
    36   25   20 1    
    37   22   21 ar   
    38   42   21 1    
    39   43   22 1    
    40   24   23 2    
    41   25   24 1    
    42   26   24 1    
    43   34   26 1    
    44   44   26 1    
    45   29   27 1    
    46   53   28 1    
    47   54   28 1    
    48   55   28 1    
    49   56   29 1    
    50   57   29 1    
    51   58   29 1    
    52   31   30 ar   
    53   35   30 ar   
    54   45   30 1    
    55   32   31 ar   
    56   46   31 1    
    57   33   32 ar   
    58   47   32 1    
    59   34   33 ar   
    60   48   33 1    
    61   35   34 ar   
    62   49   35 1    
@<TRIPOS>SUBSTRUCTURE
     1 AM01        1 GROUP   
@<TRIPOS>SET

