#    Name: 4a87_NAR_1_INTS_M
#    Modification time : Tue Mar 25 05:15:41 2014

@<TRIPOS>MOLECULE
4a87_NAR_1_INTS_M
   42     0     9     0     0
SMALL
NO_CHARGES


@<TRIPOS>ATOM
      1 CA          5.5855    7.1340    6.2190 C.3       3 GLC5        0.0000 
      2 CA          5.9740    6.3620    8.1000 C.3       9 GLL5        0.0000 
      3 CA          5.1970    7.9060    4.3380 C.3       6 GLP5        0.0000 
      4 CA          7.0875    7.9890    8.8110 C.3       3 GLC5        0.0000 
      5 CA          8.2010    9.6160    9.5220 C.3       6 GLP5        0.0000 
      6 CA          2.8405    5.6880    8.4585 C.3       3 GLC5        0.0000 
      7 CA          4.9130    6.0570    8.9470 C.3       9 GLL5        0.0000 
      8 CA          0.7680    5.3190    7.9700 C.3       6 GLP5        0.0000 
      9 CA          4.3345    6.5155   10.8510 C.3       3 GLC5        0.0000 
     10 CA          3.7560    6.9740   12.7550 C.3       6 GLP5        0.0000 
     11 CA          4.4170    2.8175    8.7440 C.3       3 GLC5        0.0000 
     12 CA          5.9080    3.9300    9.4260 C.3       9 GLL5        0.0000 
     13 CA          2.9260    1.7050    8.0620 C.3       6 GLP5        0.0000 
     14 CA          5.5030    4.2030    7.2105 C.3       3 GLC5        0.0000 
     15 CA          6.9630    4.2370    8.5610 C.3       9 GLL5        0.0000 
     16 CA          4.0430    4.1690    5.8600 C.3       6 GLP5        0.0000 
     17 CA          7.7990   -0.2810   10.6160 C.3       3 GLC5        0.0000 
     18 CA          7.0940    1.7190    9.9480 C.3       9 GLL5        0.0000 
     19 CA          8.5040   -2.2810   11.2840 C.3       6 GLP5        0.0000 
     20 CA          9.8170    3.4240    8.2170 C.3       3 GLC5        0.0000 
     21 CA          8.3160    2.5580    9.5440 C.3       9 GLL5        0.0000 
     22 CA         11.3180    4.2900    6.8900 C.3       6 GLP5        0.0000 
     23 CA          8.4340    4.3450   10.2965 C.3       3 GLC5        0.0000 
     24 CA          8.5520    6.1320   11.0490 C.3       6 GLP5        0.0000 
     25 N           3.9180    1.0930   11.1405 N.am      2 SEC2        0.0000 
     26 N           4.9430    2.2640   10.8450 N.am      8 SEL2        0.0000 
     27 N           2.8930   -0.0780   11.4360 N.am      5 SEP2        0.0000 
     28 O          13.8965   -0.9260    8.2405 O.2       1 ALC1        0.0000 
     29 O          12.6270   -0.9490    8.4930 O.2       7 ALL1        0.0000 
     30 O          15.1660   -0.9030    7.9880 O.2       4 ALP1        0.0000 
     31 CA          4.8730    5.0759    7.1670 C.3       3 GLC5        0.0000 
     32 CA          7.0120    5.4550    7.9020 C.3       9 GLL5        0.0000 
     33 CA          7.1275    6.0574    9.7615 C.3       3 GLC5        0.0000 
     34 CA          7.4938    5.1077   10.0213 C.3       3 GLC5        0.0000 
     35 CA          7.9040    0.8798    8.2930 C.3       3 GLC5        0.0000 
     36 CA          8.1030   -0.3790    6.8400 C.3       6 GLP5        0.0000 
     37 CA          8.8275    0.4955    7.7652 C.3       3 GLC5        0.0000 
     38 CA          9.6320    1.0840    8.0720 C.3       9 GLL5        0.0000 
     39 CA          9.6245   -0.1603    7.5747 C.3       3 GLC5        0.0000 
     40 CA         10.6880    0.2090    7.8160 C.3       9 GLL5        0.0000 
     41 CA         10.8575    0.0826    6.3939 C.3       3 GLC5        0.0000 
     42 CA         11.3260   -0.4060    4.5970 C.3       6 GLP5        0.0000 
@<TRIPOS>BOND
@<TRIPOS>SUBSTRUCTURE
     1 ALC1       28 GROUP        1 X    ALC  0     ROOT ALC X 1
     2 SEC2       25 GROUP        1 X    SEC  0     **** SEC X 2
     3 GLC5        1 GROUP        1 X    GLC  0     **** GLC X 6
     4 ALP1       30 GROUP        1 Y    ALP  0     ROOT ALP Y 8
     5 SEP2       27 GROUP        1 Y    SEP  0     **** SEP Y 9
     6 GLP5        3 GROUP        1 Y    GLP  0     **** GLP Y 13
     7 ALL1       29 GROUP        1 Z    ALL  0     ROOT ALL Z 15
     8 SEL2       26 GROUP        1 Z    SEL  0     **** SEL Z 16
     9 GLL5        2 GROUP        1 Z    GLL  0     **** GLL Z 20
@<TRIPOS>SET

