#    Name: 4a87_NAR_1_ligand
#    Modification time : Tue Mar 25 05:15:41 2014

@<TRIPOS>MOLECULE
4a87_NAR_1_ligand
   31    33     1     0     0
SMALL
NO_CHARGES


@<TRIPOS>ATOM
      1 C1          7.0120    5.4550    7.9020 C.ar      1 NAR1161     0.0000 
      2 C2          5.9740    6.3620    8.1000 C.ar      1 NAR1161     0.0000 
      3 C3          4.9130    6.0570    8.9470 C.ar      1 NAR1161     0.0000 
      4 C4          4.8690    4.8310    9.6120 C.ar      1 NAR1161     0.0000 
      5 C5          5.9080    3.9300    9.4260 C.ar      1 NAR1161     0.0000 
      6 C6          6.9630    4.2370    8.5610 C.ar      1 NAR1161     0.0000 
      7 C7          5.8970    2.6150   10.1360 C.2       1 NAR1161     0.0000 
      8 C8          7.0940    1.7190    9.9480 C.3       1 NAR1161     0.0000 
      9 C9          8.3160    2.5580    9.5440 C.3       1 NAR1161     0.0000 
     10 O1          7.9930    3.3540    8.3940 O.3       1 NAR1161     0.0000 
     11 O2          4.9430    2.2640   10.8450 O.2       1 NAR1161     0.0000 
     12 C10         9.4720    1.6560    9.3090 C.ar      1 NAR1161     0.0000 
     13 C11        10.3870    1.3500   10.3170 C.ar      1 NAR1161     0.0000 
     14 C12        11.4480    0.4800   10.0630 C.ar      1 NAR1161     0.0000 
     15 C13        11.6040   -0.0920    8.8030 C.ar      1 NAR1161     0.0000 
     16 C14        10.6880    0.2090    7.8160 C.ar      1 NAR1161     0.0000 
     17 C15         9.6320    1.0840    8.0720 C.ar      1 NAR1161     0.0000 
     18 O3         12.6270   -0.9490    8.4930 O.3       1 NAR1161     0.0000 
     19 O4          5.9850    7.5630    7.4640 O.3       1 NAR1161     0.0000 
     20 O5          3.8060    4.5550   10.4360 O.co2     1 NAR1161     0.0000 
     21 H           7.7896    5.6850    7.2851 H         1 NAR1161     0.0000 
     22 H           4.1538    6.7399    9.0853 H         1 NAR1161     0.0000 
     23 H           6.8945    0.9918    9.1663 H         1 NAR1161     0.0000 
     24 H           7.3174    1.1984   10.8747 H         1 NAR1161     0.0000 
     25 H           8.5431    3.2017   10.3999 H         1 NAR1161     0.0000 
     26 H          10.2791    1.7673   11.2508 H         1 NAR1161     0.0000 
     27 H          12.1191    0.2604   10.8128 H         1 NAR1161     0.0000 
     28 H          10.7790   -0.2135    6.8777 H         1 NAR1161     0.0000 
     29 H           8.9627    1.2991    7.3088 H         1 NAR1161     0.0000 
     30 H          13.4393   -0.3694    8.4279 H         1 NAR1161     0.0000 
     31 H           5.1337    8.0095    7.7397 H         1 NAR1161     0.0000 
@<TRIPOS>BOND
     1    2    1 ar   
     2    6    1 ar   
     3   21    1 1    
     4    3    2 ar   
     5   19    2 1    
     6    4    3 ar   
     7   22    3 1    
     8    5    4 ar   
     9   20    4 ar   
    10    6    5 ar   
    11    7    5 1    
    12   10    6 1    
    13    8    7 1    
    14   11    7 2    
    15    9    8 1    
    16   23    8 1    
    17   24    8 1    
    18   10    9 1    
    19   12    9 1    
    20   25    9 1    
    21   13   12 ar   
    22   17   12 ar   
    23   14   13 ar   
    24   26   13 1    
    25   15   14 ar   
    26   27   14 1    
    27   16   15 ar   
    28   18   15 1    
    29   17   16 ar   
    30   28   16 1    
    31   29   17 1    
    32   30   18 1    
    33   31   19 1    
@<TRIPOS>SUBSTRUCTURE
     1 NAR1161     1 GROUP   
@<TRIPOS>SET

