#    Name: 1QRQ_3_CAVITY_N1_6.mol2
#    Modification time : Tue Mar 11 04:21:32 2014

@<TRIPOS>MOLECULE
1QRQ_3_CAVITY_N1_6.mol2
   69     0     6     0     0
SMALL
NO_CHARGES


@<TRIPOS>ATOM
      1 O         107.4759   48.5428   82.2073 O.2       2 ALA2        0.0000 
      2 O         103.7994   49.6088   84.5731 O.2       2 ALA2        0.0000 
      3 O         104.7161   50.4370   83.7224 O.2       2 ALA2        0.0000 
      4 N         104.1544   48.3920   83.7711 N.2       2 ALA2        0.0000 
      5 O         105.0711   49.2202   82.9204 O.2       2 ALA2        0.0000 
      6 CA        107.0691   44.4634   91.0217 C.3       5 GLY6        0.0000 
      7 CZ        107.9858   45.2916   90.1710 C.ar      4 PHE5        0.0000 
      8 CA        107.4242   43.2466   90.2196 C.3       5 GLY6        0.0000 
      9 N         108.3409   44.0748   89.3689 N.2       2 ALA2        0.0000 
     10 CZ        110.3711   53.3720   87.3839 C.ar      4 PHE5        0.0000 
     11 CZ        109.8095   51.3270   87.4325 C.ar      4 PHE5        0.0000 
     12 CZ        110.7262   52.1552   86.5818 C.ar      4 PHE5        0.0000 
     13 OG        106.4978   46.7972   90.0333 O.2       1 SER1        0.0000 
     14 CZ        107.4145   47.6255   89.1826 C.ar      4 PHE5        0.0000 
     15 CZ        111.0813   50.9384   85.7798 C.ar      4 PHE5        0.0000 
     16 N         105.9362   44.7522   90.0820 N.2       2 ALA2        0.0000 
     17 CZ        106.8529   45.5804   89.2313 C.ar      4 PHE5        0.0000 
     18 N         106.2913   43.5354   89.2799 N.2       2 ALA2        0.0000 
     19 CA        107.2080   44.3636   88.4292 C.3       5 GLY6        0.0000 
     20 CZ        108.6765   51.6157   86.4928 C.ar      4 PHE5        0.0000 
     21 CZ        109.5932   52.4440   85.6421 C.ar      4 PHE5        0.0000 
     22 N         104.4481   46.2578   89.9443 N.2       2 ALA2        0.0000 
     23 O         105.3648   47.0860   89.0936 O.2       2 ALA2        0.0000 
     24 OG        106.2815   47.9142   88.2429 O.2       1 SER1        0.0000 
     25 CZ        107.1982   48.7425   87.3922 C.ar      4 PHE5        0.0000 
     26 CZ        108.1149   49.5707   86.5415 C.ar      4 PHE5        0.0000 
     27 CZ        109.0316   50.3989   85.6908 C.ar      4 PHE5        0.0000 
     28 O         109.9483   51.2272   84.8401 O.2       2 ALA2        0.0000 
     29 N         104.8032   45.0409   89.1423 N.2       2 ALA2        0.0000 
     30 CZ        105.7199   45.8692   88.2916 C.ar      4 PHE5        0.0000 
     31 CZ        106.6366   46.6974   87.4409 C.ar      4 PHE5        0.0000 
     32 CZ        108.4700   48.3539   85.7395 C.ar      4 PHE5        0.0000 
     33 CZ        109.3867   49.1821   84.8888 C.ar      4 PHE5        0.0000 
     34 CZ        110.3034   50.0103   84.0380 C.ar      4 PHE5        0.0000 
     35 O         111.2201   50.8386   83.1873 O.2       2 ALA2        0.0000 
     36 CA        105.1583   43.8241   88.3402 C.3       5 GLY6        0.0000 
     37 CA        106.0750   44.6524   87.4895 C.3       5 GLY6        0.0000 
     38 CZ        109.7418   47.9653   84.0867 C.ar      4 PHE5        0.0000 
     39 O         110.6585   48.7935   83.2360 O.2       2 ALA2        0.0000 
     40 DU        111.5752   49.6218   82.3853 H         6 CUB7        0.0000 
     41 O         111.0136   47.5767   82.4340 O.2       2 ALA2        0.0000 
     42 O         108.7637   46.2197   91.9127 O.2       2 ALA2        0.0000 
     43 CA        108.2021   44.1746   91.9614 C.3       5 GLY6        0.0000 
     44 OG        107.2757   47.7253   91.7751 O.2       1 SER1        0.0000 
     45 CA        106.7140   45.6802   91.8237 C.3       5 GLY6        0.0000 
     46 CZ        107.6307   46.5085   90.9730 C.ar      4 PHE5        0.0000 
     47 O         108.4603   52.7327   84.7024 O.2       2 ALA2        0.0000 
     48 CA        105.1486   48.2030   87.3032 C.3       5 GLY6        0.0000 
     49 CZ        106.0653   49.0312   86.4525 C.ar      4 PHE5        0.0000 
     50 CZ        106.9820   49.8595   85.6018 C.ar      4 PHE5        0.0000 
     51 O         107.8987   50.6877   84.7511 O.2       2 ALA2        0.0000 
     52 CA        103.6703   45.3297   88.2026 C.3       5 GLY6        0.0000 
     53 CA        104.5870   46.1580   87.3519 C.3       5 GLY6        0.0000 
     54 OG        105.5037   46.9862   86.5012 O.2       1 SER1        0.0000 
     55 OG        106.4204   47.8144   85.6505 O.2       1 SER1        0.0000 
     56 OG        107.3370   48.6427   84.7998 O.2       1 SER1        0.0000 
     57 O         108.2537   49.4709   83.9491 O.2       2 ALA2        0.0000 
     58 CA        104.0254   44.1129   87.4006 C.3       5 GLY6        0.0000 
     59 OG        104.9420   44.9411   86.5498 O.2       1 SER1        0.0000 
     60 OG        108.6088   48.2541   83.1470 O.2       1 SER1        0.0000 
     61 O         109.5255   49.0823   82.2963 O.2       2 ALA2        0.0000 
     62 O         110.4422   49.9105   81.4456 O.2       2 ALA2        0.0000 
     63 CZ        109.8806   47.8655   81.4943 C.ar      4 PHE5        0.0000 
     64 CZ        104.9323   49.3200   85.5128 C.ar      4 PHE5        0.0000 
     65 CZ        105.8490   50.1482   84.6621 C.ar      4 PHE5        0.0000 
     66 CA        103.4540   46.4467   86.4122 C.3       5 GLY6        0.0000 
     67 OD1       104.3707   47.2750   85.5615 O.3       3 ASP3        0.0000 
     68 OG        105.2874   48.1032   84.7108 O.2       1 SER1        0.0000 
     69 OG        106.2041   48.9314   83.8601 O.2       1 SER1        0.0000 
@<TRIPOS>BOND
@<TRIPOS>SUBSTRUCTURE
     1 SER1       13 GROUP   
     2 ALA2        1 GROUP   
     3 ASP3       67 GROUP   
     4 PHE5        7 GROUP   
     5 GLY6        6 GROUP   
     6 CUB7       40 GROUP   
@<TRIPOS>SET

