#    Name: 1qrq_NDP_3_INTS_M
#    Modification time : Mon Mar 24 23:52:31 2014

@<TRIPOS>MOLECULE
1qrq_NDP_3_INTS_M
  122     0    12     0     0
SMALL
NO_CHARGES


@<TRIPOS>ATOM
      1 N         105.9925   49.1040   95.2725 N.am      2 SEC2        0.0000 
      2 N         106.8040   48.4950   94.2600 N.am     10 SEL2        0.0000 
      3 N         105.1810   49.7130   96.2850 N.am      6 SEP2        0.0000 
      4 N         108.0490   49.3535   94.1765 N.am      2 SEC2        0.0000 
      5 N         109.2940   50.2120   94.0930 N.am      6 SEP2        0.0000 
      6 CA        107.2680   43.8965   93.9595 C.3       4 GLC5        0.0000 
      7 CA        108.3210   45.0360   94.9400 C.3      12 GLL5        0.0000 
      8 CA        106.2150   42.7570   92.9790 C.3       8 GLP5        0.0000 
      9 CA        110.3465   46.6125   96.4175 C.3       4 GLC5        0.0000 
     10 CA        109.8070   44.8810   95.3630 C.3      12 GLL5        0.0000 
     11 CA        110.8860   48.3440   97.4720 C.3       8 GLP5        0.0000 
     12 CA        109.0340   41.6325   95.1045 C.3       4 GLC5        0.0000 
     13 CA        110.2890   43.3960   95.3440 C.3      12 GLL5        0.0000 
     14 CA        107.7790   39.8690   94.8650 C.3       8 GLP5        0.0000 
     15 N         110.9130   43.9850   92.8915 N.am      2 SEC2        0.0000 
     16 N         110.8740   43.0870   94.1060 N.am     10 SEL2        0.0000 
     17 N         110.9520   44.8830   91.6770 N.am      6 SEP2        0.0000 
     18 CA        110.6725   46.3430   97.5005 C.3       4 GLC5        0.0000 
     19 CA        110.4590   44.3420   97.5290 C.3      12 GLL5        0.0000 
     20 CA        112.0550   45.2200   98.8250 C.3       4 GLC5        0.0000 
     21 CA        113.6510   46.0980  100.1210 C.3       8 GLP5        0.0000 
     22 N         106.0480   42.3285   98.7690 N.am      2 SEC2        0.0000 
     23 N         107.3980   42.9650   98.9810 N.am     10 SEL2        0.0000 
     24 N         104.6980   41.6920   98.5570 N.am      6 SEP2        0.0000 
     25 CA        108.7205   43.1905  103.3925 C.3       4 GLC5        0.0000 
     26 CA        107.9780   42.9150  101.4360 C.3      12 GLL5        0.0000 
     27 CA        109.4630   43.4660  105.3490 C.3       8 GLP5        0.0000 
     28 CA        107.2580   44.4770  102.6085 C.3       4 GLC5        0.0000 
     29 CA        106.5380   46.0390  103.7810 C.3       8 GLP5        0.0000 
     30 O         106.7770   42.0190  103.0290 O.2       1 ALC1        0.0000 
     31 O         106.8000   42.4250  101.8230 O.2       9 ALL1        0.0000 
     32 O         106.7540   41.6130  104.2350 O.2       5 ALP1        0.0000 
     33 O         105.4925   42.8160  100.9765 O.2       1 ALC1        0.0000 
     34 O         104.1850   43.2070  100.1300 O.2       5 ALP1        0.0000 
     35 CA        109.8155   45.5100  101.8945 C.3       4 GLC5        0.0000 
     36 CA        110.2110   43.7010  101.8030 C.3      12 GLL5        0.0000 
     37 CA        109.4200   47.3190  101.9860 C.3       8 GLP5        0.0000 
     38 CA        109.8370   43.5835  103.5760 C.3       4 GLC5        0.0000 
     39 CA        111.4820   42.2770  101.4505 C.3       4 GLC5        0.0000 
     40 CA        112.7530   40.8530  101.0980 C.3       8 GLP5        0.0000 
     41 N         112.0410   43.7955  100.2870 N.am      2 SEC2        0.0000 
     42 N         110.5050   43.9570  100.5350 N.am     10 SEL2        0.0000 
     43 N         113.5770   43.6340  100.0390 N.am      6 SEP2        0.0000 
     44 N         110.8290   42.5545   99.7215 N.am      2 SEC2        0.0000 
     45 N         111.1530   41.1520   98.9080 N.am      6 SEP2        0.0000 
     46 CA        109.4300   45.4910  100.8475 C.3       4 GLC5        0.0000 
     47 CA        109.4400   43.6630   99.7090 C.3      12 GLL5        0.0000 
     48 CA        109.4880   41.6495   99.7765 C.3       4 GLC5        0.0000 
     49 CA        109.5360   39.6360   99.8440 C.3       8 GLP5        0.0000 
     50 NZ        109.7725   45.1485   91.2365 N.4       3 LYC4        0.0000 
     51 NZ        108.5930   45.4140   90.7960 N.4      11 LYL4        0.0000 
     52 NZ        111.8290   45.8710   91.5590 N.4       7 LYP4        0.0000 
     53 N         110.0065   46.2435   90.9800 N.am      2 SEC2        0.0000 
     54 N         108.5930   45.4140   90.7960 N.am     10 SEL2        0.0000 
     55 N         111.4200   47.0730   91.1640 N.am      6 SEP2        0.0000 
     56 N         109.7725   45.1485   91.2365 N.am      2 SEC2        0.0000 
     57 N         107.1235   48.9645   90.3750 N.am      2 SEC2        0.0000 
     58 N         107.4800   47.7030   90.3610 N.am     10 SEL2        0.0000 
     59 N         106.7670   50.2260   90.3890 N.am      6 SEP2        0.0000 
     60 CA        107.8575   46.4230   88.6120 C.3       4 GLC5        0.0000 
     61 CA        106.1760   45.9350   89.4100 C.3      12 GLL5        0.0000 
     62 CA        109.5390   46.9110   87.8140 C.3       8 GLP5        0.0000 
     63 CA        102.8970   45.1720   89.0485 C.3       4 GLC5        0.0000 
     64 CA        105.0120   45.2050   88.7960 C.3      12 GLL5        0.0000 
     65 CA        100.7820   45.1390   89.3010 C.3       8 GLP5        0.0000 
     66 N         106.7195   42.4415   87.1040 N.am      2 SEC2        0.0000 
     67 N         105.4240   43.0530   87.8440 N.am     10 SEL2        0.0000 
     68 N         108.0150   41.8300   86.3640 N.am      6 SEP2        0.0000 
     69 CA        105.8345   44.2130   84.7370 C.3       4 GLC5        0.0000 
     70 CA        104.7000   44.9330   86.4030 C.3      12 GLL5        0.0000 
     71 CA        106.9690   43.4930   83.0710 C.3       8 GLP5        0.0000 
     72 O         102.9555   44.2715   85.0010 O.2       1 ALC1        0.0000 
     73 O         103.7240   43.9640   85.9950 O.2       9 ALL1        0.0000 
     74 O         102.1870   44.5790   84.0070 O.2       5 ALP1        0.0000 
     75 CA        103.4825   47.7110   87.6225 C.3       4 GLC5        0.0000 
     76 CA        104.0880   46.2610   86.8630 C.3      12 GLL5        0.0000 
     77 CA        102.8770   49.1610   88.3820 C.3       8 GLP5        0.0000 
     78 N         105.7100   52.0030   82.3385 N.am      2 SEC2        0.0000 
     79 N         105.0760   50.8610   82.9290 N.am     10 SEL2        0.0000 
     80 N         106.3440   53.1450   81.7480 N.am      6 SEP2        0.0000 
     81 N         106.4890   51.1685   82.4945 N.am      2 SEC2        0.0000 
     82 N         107.9020   51.4760   82.0600 N.am      6 SEP2        0.0000 
     83 O         102.6790   50.4630   82.1495 O.2       1 ALC1        0.0000 
     84 O         103.3650   49.3300   82.7720 O.2       9 ALL1        0.0000 
     85 O         101.9930   51.5960   81.5270 O.2       5 ALP1        0.0000 
     86 O         102.3320   48.5180   83.2890 O.2       1 ALC1        0.0000 
     87 O         101.2990   47.7060   83.8060 O.2       5 ALP1        0.0000 
     88 CA        107.4560   45.9790   86.4775 C.3       4 GLC5        0.0000 
     89 CA        106.1980   47.7960   86.8060 C.3      12 GLL5        0.0000 
     90 CA        108.7140   44.1620   86.1490 C.3       8 GLP5        0.0000 
     91 CA        104.5375   48.4785   87.5940 C.3       4 GLC5        0.0000 
     92 NZ        114.2125   43.7345   98.1550 N.4       3 LYC4        0.0000 
     93 NZ        114.8480   43.8350   96.2710 N.4      11 LYL4        0.0000 
     94 NZ        113.5770   43.6340  100.0390 N.4       7 LYP4        0.0000 
     95 NZ        113.6445   42.7075   98.6185 N.4       3 LYC4        0.0000 
     96 NZ        113.7120   41.7810   97.1980 N.4      11 LYL4        0.0000 
     97 N         113.6445   42.7075   98.6185 N.am      2 SEC2        0.0000 
     98 N         113.7120   41.7810   97.1980 N.am     10 SEL2        0.0000 
     99 N         114.4640   41.0520   98.5425 N.am      2 SEC2        0.0000 
    100 N         115.2160   40.3230   99.8870 N.am      6 SEP2        0.0000 
    101 N         113.1420   40.5440   96.7415 N.am      2 SEC2        0.0000 
    102 N         112.5720   39.3070   96.2850 N.am      6 SEP2        0.0000 
    103 N         112.4325   41.4665   98.0530 N.am      2 SEC2        0.0000 
    104 N         114.7145   41.5900   94.1225 N.am      2 SEC2        0.0000 
    105 N         113.5310   42.3070   94.7990 N.am     10 SEL2        0.0000 
    106 N         115.8980   40.8730   93.4460 N.am      6 SEP2        0.0000 
    107 N         113.0515   40.8070   95.5420 N.am      2 SEC2        0.0000 
    108 CA        107.5987   44.9205   99.3825 C.3       4 GLC5        0.0000 
    109 CA        106.3740   46.4320   98.8840 C.3       8 GLP5        0.0000 
    110 CA        108.0877   41.3060  100.1492 C.3       4 GLC5        0.0000 
    111 CA        108.2070   43.1550  100.0530 C.3      12 GLL5        0.0000 
    112 CA        108.0830   39.5770   99.5540 C.3       8 GLP5        0.0000 
    113 CA        106.9165   44.4195   86.5740 C.3       4 GLC5        0.0000 
    114 CA        105.5380   44.4210   87.5950 C.3      12 GLL5        0.0000 
    115 CA        104.3123   43.0515   87.6606 C.3       4 GLC5        0.0000 
    116 CA        103.6370   41.2300   88.0220 C.3       8 GLP5        0.0000 
    117 CA        102.4415   45.5415   86.7380 C.3       4 GLC5        0.0000 
    118 CA        100.4890   45.4860   86.8430 C.3       8 GLP5        0.0000 
    119 CA        104.3013   47.5080   83.1070 C.3       4 GLC5        0.0000 
    120 CA        104.3450   48.0810   85.1620 C.3      12 GLL5        0.0000 
    121 CA        103.8750   46.4130   81.3410 C.3       8 GLP5        0.0000 
    122 CA        103.8022   48.8820   86.6275 C.3       4 GLC5        0.0000 
@<TRIPOS>BOND
@<TRIPOS>SUBSTRUCTURE
     1 ALC1       30 GROUP        1 X    ALC  0     ROOT ALC X 1
     2 SEC2        1 GROUP        1 X    SEC  0     **** SEC X 2
     3 LYC4       50 GROUP        1 X    LYC  0     **** LYC X 4
     4 GLC5        6 GROUP        1 X    GLC  0     **** GLC X 6
     5 ALP1       32 GROUP        1 Y    ALP  0     ROOT ALP Y 8
     6 SEP2        3 GROUP        1 Y    SEP  0     **** SEP Y 9
     7 LYP4       52 GROUP        1 Y    LYP  0     **** LYP Y 11
     8 GLP5        8 GROUP        1 Y    GLP  0     **** GLP Y 13
     9 ALL1       31 GROUP        1 Z    ALL  0     ROOT ALL Z 15
    10 SEL2        2 GROUP        1 Z    SEL  0     **** SEL Z 16
    11 LYL4       51 GROUP        1 Z    LYL  0     **** LYL Z 18
    12 GLL5        7 GROUP        1 Z    GLL  0     **** GLL Z 20
@<TRIPOS>SET

