#    Name: 1qrq_NDP_3_ligand
#    Modification time : Mon Mar 24 23:52:31 2014

@<TRIPOS>MOLECULE
1qrq_NDP_3_ligand
   74    78     1     0     0
SMALL
NO_CHARGES


@<TRIPOS>ATOM
      1 PA        106.8910   47.0260   94.0860 P.3       1 NDP1002     0.0000 
      2 O1A       105.6330   46.2890   94.3700 O.co2     1 NDP1002     0.0000 
      3 O2A       106.8040   48.4950   94.2600 O.co2     1 NDP1002     0.0000 
      4 O5B       108.0950   46.4910   94.9970 O.3       1 NDP1002     0.0000 
      5 C5B       108.3210   45.0360   94.9400 C.3       1 NDP1002     0.0000 
      6 C4B       109.8070   44.8810   95.3630 C.3       1 NDP1002     0.0000 
      7 O4B       109.8640   45.3350   96.7240 O.3       1 NDP1002     0.0000 
      8 C3B       110.2890   43.3960   95.3440 C.3       1 NDP1002     0.0000 
      9 O3B       110.8740   43.0870   94.1060 O.3       1 NDP1002     0.0000 
     10 C2B       111.1990   43.4010   96.6470 C.3       1 NDP1002     0.0000 
     11 O2B       112.5250   43.8650   96.5120 O.3       1 NDP1002     0.0000 
     12 C1B       110.4590   44.3420   97.5290 C.3       1 NDP1002     0.0000 
     13 N9A       109.3970   43.7870   98.3510 N.pl3     1 NDP1002     0.0000 
     14 C8A       108.1350   43.3560   97.9820 C.2       1 NDP1002     0.0000 
     15 N7A       107.3980   42.9650   98.9810 N.2       1 NDP1002     0.0000 
     16 C5A       108.2070   43.1550  100.0530 C.ar      1 NDP1002     0.0000 
     17 C6A       107.9780   42.9150  101.4360 C.ar      1 NDP1002     0.0000 
     18 N6A       106.8000   42.4250  101.8230 N.pl3     1 NDP1002     0.0000 
     19 N1A       109.0100   43.2000  102.3110 N.ar      1 NDP1002     0.0000 
     20 C2A       110.2110   43.7010  101.8030 C.ar      1 NDP1002     0.0000 
     21 N3A       110.5050   43.9570  100.5350 N.ar      1 NDP1002     0.0000 
     22 C4A       109.4400   43.6630   99.7090 C.ar      1 NDP1002     0.0000 
     23 O3        107.5210   46.6570   92.7810 O.3       1 NDP1002     0.0000 
     24 PN        107.7090   46.5520   91.2300 P.3       1 NDP1002     0.0000 
     25 O1N       108.5930   45.4140   90.7960 O.co2     1 NDP1002     0.0000 
     26 O2N       107.4800   47.7030   90.3610 O.co2     1 NDP1002     0.0000 
     27 O5D       106.1370   46.1700   90.8440 O.3       1 NDP1002     0.0000 
     28 C5D       106.1760   45.9350   89.4100 C.3       1 NDP1002     0.0000 
     29 C4D       105.0120   45.2050   88.7960 C.3       1 NDP1002     0.0000 
     30 O4D       104.0340   46.1800   88.3360 O.3       1 NDP1002     0.0000 
     31 C3D       105.5380   44.4210   87.5950 C.3       1 NDP1002     0.0000 
     32 O3D       105.4240   43.0530   87.8440 O.3       1 NDP1002     0.0000 
     33 C2D       104.7000   44.9330   86.4030 C.3       1 NDP1002     0.0000 
     34 O2D       103.7240   43.9640   85.9950 O.3       1 NDP1002     0.0000 
     35 C1D       104.0880   46.2610   86.8630 C.3       1 NDP1002     0.0000 
     36 N1N       104.9250   47.4230   86.2990 N.pl3     1 NDP1002     0.0000 
     37 C2N       104.3450   48.0810   85.1620 C.2       1 NDP1002     0.0000 
     38 C3N       105.1100   49.1250   84.5840 C.2       1 NDP1002     0.0000 
     39 C7N       104.5000   49.8620   83.3290 C.2       1 NDP1002     0.0000 
     40 O7N       105.0760   50.8610   82.9290 O.2       1 NDP1002     0.0000 
     41 N7N       103.3650   49.3300   82.7720 N.am      1 NDP1002     0.0000 
     42 C4N       106.4120   49.5630   85.0570 C.3       1 NDP1002     0.0000 
     43 C5N       106.8680   48.8110   86.2010 C.2       1 NDP1002     0.0000 
     44 C6N       106.1980   47.7960   86.8060 C.2       1 NDP1002     0.0000 
     45 P2B       113.7880   42.7990   96.1210 P.3       1 NDP1002     0.0000 
     46 O1X       114.8480   43.8350   96.2710 O.co2     1 NDP1002     0.0000 
     47 O2X       113.7120   41.7810   97.1980 O.co2     1 NDP1002     0.0000 
     48 O3X       113.5310   42.3070   94.7990 O.co2     1 NDP1002     0.0000 
     49 H         108.2140   44.6618   93.9504 H         1 NDP1002     0.0000 
     50 H         107.7166   44.5182   95.6451 H         1 NDP1002     0.0000 
     51 H         110.4141   45.4608   94.7314 H         1 NDP1002     0.0000 
     52 H         109.4108   42.8214   95.5998 H         1 NDP1002     0.0000 
     53 H         111.1130   42.4230   97.0811 H         1 NDP1002     0.0000 
     54 H         111.1938   44.8415   98.1912 H         1 NDP1002     0.0000 
     55 H         107.8533   43.3609   97.0178 H         1 NDP1002     0.0000 
     56 H         106.8172   41.8074  102.6093 H         1 NDP1002     0.0000 
     57 H         106.0052   42.7191  101.2921 H         1 NDP1002     0.0000 
     58 H         110.9764   43.8949  102.5543 H         1 NDP1002     0.0000 
     59 H         107.1162   45.3718   89.1411 H         1 NDP1002     0.0000 
     60 H         106.2928   46.9165   88.8656 H         1 NDP1002     0.0000 
     61 H         104.5997   44.5316   89.4970 H         1 NDP1002     0.0000 
     62 H         106.5547   44.7503   87.4360 H         1 NDP1002     0.0000 
     63 H         105.4054   45.1613   85.6078 H         1 NDP1002     0.0000 
     64 H         103.0921   46.3061   86.4531 H         1 NDP1002     0.0000 
     65 H         103.4601   47.8139   84.8085 H         1 NDP1002     0.0000 
     66 H         103.0009   49.8087   81.9731 H         1 NDP1002     0.0000 
     67 H         103.0009   48.5100   83.2136 H         1 NDP1002     0.0000 
     68 H         106.3697   50.6472   85.3094 H         1 NDP1002     0.0000 
     69 H         107.1541   49.4810   84.2302 H         1 NDP1002     0.0000 
     70 H         107.8217   49.1035   86.5823 H         1 NDP1002     0.0000 
     71 H         106.5768   47.2946   87.6090 H         1 NDP1002     0.0000 
     72 H         111.8127   42.8193   94.3231 H         1 NDP1002     0.0000 
     73 H         104.7161   42.7336   87.2141 H         1 NDP1002     0.0000 
     74 H         103.5766   44.1393   85.0216 H         1 NDP1002     0.0000 
@<TRIPOS>BOND
     1    2    1 ar   
     2    3    1 ar   
     3    4    1 1    
     4   23    1 1    
     5    5    4 1    
     6    6    5 1    
     7   49    5 1    
     8   50    5 1    
     9    7    6 1    
    10    8    6 1    
    11   51    6 1    
    12   12    7 1    
    13    9    8 1    
    14   10    8 1    
    15   52    8 1    
    16   72    9 1    
    17   11   10 1    
    18   12   10 1    
    19   53   10 1    
    20   45   11 1    
    21   13   12 1    
    22   54   12 1    
    23   14   13 1    
    24   22   13 1    
    25   15   14 2    
    26   55   14 1    
    27   16   15 1    
    28   17   16 ar   
    29   22   16 ar   
    30   18   17 1    
    31   19   17 ar   
    32   56   18 1    
    33   57   18 1    
    34   20   19 ar   
    35   21   20 ar   
    36   58   20 1    
    37   22   21 ar   
    38   24   23 1    
    39   25   24 ar   
    40   26   24 ar   
    41   27   24 1    
    42   28   27 1    
    43   29   28 1    
    44   59   28 1    
    45   60   28 1    
    46   30   29 1    
    47   31   29 1    
    48   61   29 1    
    49   35   30 1    
    50   32   31 1    
    51   33   31 1    
    52   62   31 1    
    53   73   32 1    
    54   34   33 1    
    55   35   33 1    
    56   63   33 1    
    57   74   34 1    
    58   36   35 1    
    59   64   35 1    
    60   37   36 1    
    61   44   36 1    
    62   38   37 2    
    63   65   37 1    
    64   39   38 1    
    65   42   38 1    
    66   40   39 2    
    67   41   39 am   
    68   66   41 1    
    69   67   41 1    
    70   43   42 1    
    71   68   42 1    
    72   69   42 1    
    73   44   43 2    
    74   70   43 1    
    75   71   44 1    
    76   46   45 ar   
    77   47   45 ar   
    78   48   45 ar   
@<TRIPOS>SUBSTRUCTURE
     1 NDP1002     1 GROUP   
@<TRIPOS>SET

