#    Name: 1PG2_1_CAVITY_N1_ALL.mol2
#    Modification time : Tue Mar 11 00:29:58 2014

@<TRIPOS>MOLECULE
1PG2_1_CAVITY_N1_ALL.mol2
   92     0     5     0     0
SMALL
NO_CHARGES


@<TRIPOS>ATOM
      1 CA         17.0947    9.7054   22.0900 C.3       4 GLY6        0.0000 
      2 CA         17.2568   15.0437   31.7324 C.3       4 GLY6        0.0000 
      3 O          16.4205   16.2728   31.5327 O.2       1 ALA2        0.0000 
      4 CA         16.8277   14.5334   30.3887 C.3       4 GLY6        0.0000 
      5 CZ         15.9914   15.7625   30.1890 C.ar      3 PHE5        0.0000 
      6 N          16.3986   14.0231   29.0450 N.2       1 ALA2        0.0000 
      7 DU         15.5622   15.2521   28.8453 H         5 CUB7        0.0000 
      8 CZ         14.7259   16.4812   28.6457 C.ar      3 PHE5        0.0000 
      9 CA         15.9695   13.5127   27.7014 C.3       4 GLY6        0.0000 
     10 DU         15.1331   14.7418   27.5017 H         5 CUB7        0.0000 
     11 NZ         14.2967   15.9709   27.3020 N.2       2 LYS4        0.0000 
     12 CA         15.5404   13.0024   26.3577 C.3       4 GLY6        0.0000 
     13 NZ         14.7040   14.2315   26.1580 N.2       2 LYS4        0.0000 
     14 NZ         13.8676   15.4606   25.9583 N.2       2 LYS4        0.0000 
     15 N          15.1113   12.4921   25.0141 N.2       1 ALA2        0.0000 
     16 NZ         14.2749   13.7212   24.8144 N.2       2 LYS4        0.0000 
     17 NZ         13.4385   14.9502   24.6147 N.2       2 LYS4        0.0000 
     18 N          16.3549    9.5236   24.0698 N.2       1 ALA2        0.0000 
     19 N          15.5185   10.7527   23.8701 N.2       1 ALA2        0.0000 
     20 N          14.8224   15.0704   30.8252 N.2       1 ALA2        0.0000 
     21 CZ         13.9861   16.2995   30.6255 C.ar      3 PHE5        0.0000 
     22 O          15.2297   13.3310   29.6812 O.2       1 ALA2        0.0000 
     23 N          14.3933   14.5601   29.4815 N.2       1 ALA2        0.0000 
     24 N          13.5570   15.7891   29.2818 N.2       1 ALA2        0.0000 
     25 CZ         12.7206   17.0182   29.0821 C.ar      3 PHE5        0.0000 
     26 CA         14.8006   12.8207   28.3375 C.3       4 GLY6        0.0000 
     27 DU         13.9642   14.0497   28.1378 H         5 CUB7        0.0000 
     28 N          13.1278   15.2788   27.9381 N.2       1 ALA2        0.0000 
     29 CA         12.2915   16.5079   27.7385 C.3       4 GLY6        0.0000 
     30 CA         14.3715   12.3103   26.9939 C.3       4 GLY6        0.0000 
     31 DU         13.5351   13.5394   26.7942 H         5 CUB7        0.0000 
     32 NZ         12.6987   14.7685   26.5945 N.2       2 LYS4        0.0000 
     33 CA         13.9423   11.8000   25.6502 C.3       4 GLY6        0.0000 
     34 DU         13.1060   13.0291   25.4505 H         5 CUB7        0.0000 
     35 NZ         12.2696   14.2582   25.2508 N.2       2 LYS4        0.0000 
     36 N          14.3496   10.0606   24.5062 N.2       1 ALA2        0.0000 
     37 N          13.5132   11.2897   24.3066 N.2       1 ALA2        0.0000 
     38 N          12.6769   12.5188   24.1069 N.2       1 ALA2        0.0000 
     39 N          13.2244   13.8680   30.1177 N.2       1 ALA2        0.0000 
     40 CA         13.6317   12.1286   28.9737 C.3       4 GLY6        0.0000 
     41 NZ         12.7953   13.3577   28.7740 N.2       2 LYS4        0.0000 
     42 N          11.9589   14.5867   28.5743 N.2       1 ALA2        0.0000 
     43 CA         13.2026   11.6183   27.6300 C.3       4 GLY6        0.0000 
     44 NZ         12.3662   12.8473   27.4303 N.2       2 LYS4        0.0000 
     45 NZ         11.5298   14.0764   27.2306 N.2       2 LYS4        0.0000 
     46 CA         12.7734   11.1079   26.2864 C.3       4 GLY6        0.0000 
     47 NZ         11.9371   12.3370   26.0867 N.2       2 LYS4        0.0000 
     48 NZ         11.1007   13.5661   25.8870 N.2       2 LYS4        0.0000 
     49 CA         13.1807    9.3686   25.1424 C.3       4 GLY6        0.0000 
     50 CA         12.3443   10.5976   24.9427 C.3       4 GLY6        0.0000 
     51 CA         11.5080   11.8267   24.7430 C.3       4 GLY6        0.0000 
     52 CA         11.6264   12.6656   29.4102 C.3       4 GLY6        0.0000 
     53 NZ         12.0337   10.9262   28.2662 N.2       2 LYS4        0.0000 
     54 N          12.4409    9.1868   27.1222 N.2       1 ALA2        0.0000 
     55 NZ         11.6045   10.4159   26.9225 N.2       2 LYS4        0.0000 
     56 CZ         23.6052   15.3539   29.5871 C.ar      3 PHE5        0.0000 
     57 CA         22.0290   16.4012   31.3673 C.3       4 GLY6        0.0000 
     58 CZ         22.4363   14.6618   30.2233 C.ar      3 PHE5        0.0000 
     59 CA         21.5999   15.8909   30.0236 C.3       4 GLY6        0.0000 
     60 CA         20.7636   17.1199   29.8239 C.3       4 GLY6        0.0000 
     61 CA         19.9272   18.3490   29.6242 C.3       4 GLY6        0.0000 
     62 CZ         19.0908   19.5781   29.4245 C.ar      3 PHE5        0.0000 
     63 DU         21.1708   15.3805   28.6799 H         5 CUB7        0.0000 
     64 N          19.6165   18.6776   32.9477 N.2       1 ALA2        0.0000 
     65 CA         20.8601   15.7091   32.0034 C.3       4 GLY6        0.0000 
     66 N          20.0238   16.9382   31.8037 N.2       1 ALA2        0.0000 
     67 N          19.1874   18.1673   31.6040 N.2       1 ALA2        0.0000 
     68 CA         20.4310   15.1988   30.6598 C.3       4 GLY6        0.0000 
     69 CA         19.5947   16.4279   30.4601 C.3       4 GLY6        0.0000 
     70 DU         18.7583   17.6569   30.2604 H         5 CUB7        0.0000 
     71 CZ         17.9219   18.8860   30.0607 C.ar      3 PHE5        0.0000 
     72 N          20.0019   14.6885   29.3161 N.2       1 ALA2        0.0000 
     73 DU         19.1655   15.9175   29.1164 H         5 CUB7        0.0000 
     74 DU         18.3292   17.1466   28.9167 H         5 CUB7        0.0000 
     75 CZ         17.4928   18.3757   28.7170 C.ar      3 PHE5        0.0000 
     76 DU         17.9000   16.6363   27.5730 H         5 CUB7        0.0000 
     77 N          18.8549   16.2461   32.4399 N.2       1 ALA2        0.0000 
     78 CA         18.4257   15.7358   31.0962 C.3       4 GLY6        0.0000 
     79 CA         17.5894   16.9649   30.8965 C.3       4 GLY6        0.0000 
     80 DU         17.9966   15.2255   29.7525 H         5 CUB7        0.0000 
     81 DU         17.1603   16.4545   29.5529 H         5 CUB7        0.0000 
     82 CZ         16.3239   17.6836   29.3532 C.ar      3 PHE5        0.0000 
     83 N          17.5675   14.7151   28.4089 N.2       1 ALA2        0.0000 
     84 DU         16.7311   15.9442   28.2092 H         5 CUB7        0.0000 
     85 CZ         15.8948   17.1733   28.0095 C.ar      3 PHE5        0.0000 
     86 DU         16.3020   15.4339   26.8655 H         5 CUB7        0.0000 
     87 NZ         15.4657   16.6629   26.6658 N.2       2 LYS4        0.0000 
     88 N          16.7093   13.6945   25.7216 N.2       1 ALA2        0.0000 
     89 NZ         15.8729   14.9236   25.5219 N.2       2 LYS4        0.0000 
     90 N          17.1165   11.9551   24.5776 N.2       1 ALA2        0.0000 
     91 N          16.2802   13.1842   24.3779 N.2       1 ALA2        0.0000 
     92 NZ         15.4438   14.4132   24.1782 N.2       2 LYS4        0.0000 
@<TRIPOS>BOND
@<TRIPOS>SUBSTRUCTURE
     1 ALA2        3 GROUP   
     2 LYS4       11 GROUP   
     3 PHE5        5 GROUP   
     4 GLY6        1 GROUP   
     5 CUB7        7 GROUP   
@<TRIPOS>SET

