#    Name: 1pg2_ADN_1_INTS_M
#    Modification time : Mon Mar 24 21:22:33 2014

@<TRIPOS>MOLECULE
1pg2_ADN_1_INTS_M
   46     0     9     0     0
SMALL
NO_CHARGES


@<TRIPOS>ATOM
      1 O          12.0990    9.6140   25.8175 O.2       1 ALC1        0.0000 
      2 O          13.2130   10.1430   25.2090 O.2       7 ALL1        0.0000 
      3 O          10.9850    9.0850   26.4260 O.2       4 ALP1        0.0000 
      4 CA         10.7590   14.2000   24.0260 C.3       3 GLC5        0.0000 
      5 CA         11.9980   13.7380   25.4660 C.3       9 GLL5        0.0000 
      6 CA          9.5200   14.6620   22.5860 C.3       6 GLP5        0.0000 
      7 N           9.7150   15.0825   26.1215 N.am      2 SEC2        0.0000 
      8 N          10.6000   13.9950   25.6530 N.am      8 SEL2        0.0000 
      9 N           8.8300   16.1700   26.5900 N.am      5 SEP2        0.0000 
     10 O           9.9755   13.4975   26.7380 O.2       1 ALC1        0.0000 
     11 O          10.6000   13.9950   25.6530 O.2       7 ALL1        0.0000 
     12 O           9.3510   13.0000   27.8230 O.2       4 ALP1        0.0000 
     13 CA         11.2810   15.8805   26.7635 C.3       3 GLC5        0.0000 
     14 CA         12.8900   14.5550   26.3670 C.3       9 GLL5        0.0000 
     15 CA          9.6720   17.2060   27.1600 C.3       6 GLP5        0.0000 
     16 O          12.6040   16.8455   25.9010 O.2       1 ALC1        0.0000 
     17 O          12.4100   15.8450   26.6790 O.2       7 ALL1        0.0000 
     18 O          12.7980   17.8460   25.1230 O.2       4 ALP1        0.0000 
     19 CA         14.3650   11.8600   27.7090 C.3       3 GLC5        0.0000 
     20 CA         13.1200   13.6060   27.5660 C.3       9 GLL5        0.0000 
     21 CA         15.6100   10.1140   27.8520 C.3       6 GLP5        0.0000 
     22 CA         15.1625   17.2365   31.7755 C.3       3 GLC5        0.0000 
     23 CA         16.1040   15.4210   30.9910 C.3       9 GLL5        0.0000 
     24 CA         14.2210   19.0520   32.5600 C.3       6 GLP5        0.0000 
     25 N          15.1975   16.6620   32.9940 N.am      2 SEC2        0.0000 
     26 N          15.0910   15.7650   31.8730 N.am      8 SEL2        0.0000 
     27 N          15.3040   17.5590   34.1150 N.am      5 SEP2        0.0000 
     28 CA         14.9430   14.0530   32.2070 C.3       3 GLC5        0.0000 
     29 CA         13.7580   15.5170   31.5560 C.3       9 GLL5        0.0000 
     30 CA         16.1280   12.5890   32.8580 C.3       6 GLP5        0.0000 
     31 CA         12.4835   15.6300   33.2570 C.3       3 GLC5        0.0000 
     32 CA         11.2090   15.7430   34.9580 C.3       6 GLP5        0.0000 
     33 CA         11.8365   15.9770   31.3245 C.3       3 GLC5        0.0000 
     34 CA          9.9150   16.4370   31.0930 C.3       6 GLP5        0.0000 
     35 CA         13.9895   17.2845   32.0580 C.3       3 GLC5        0.0000 
     36 CA         14.1255   15.2490   33.5770 C.3       3 GLC5        0.0000 
     37 CA         14.4930   14.9810   35.5980 C.3       6 GLP5        0.0000 
     38 N          11.8030   15.2010   30.2555 N.am      2 SEC2        0.0000 
     39 N          13.3940   14.9220   30.3540 N.am      8 SEL2        0.0000 
     40 N          10.2120   15.4800   30.1570 N.am      5 SEP2        0.0000 
     41 CA         14.1202   11.0023   26.5895 C.3       3 GLC5        0.0000 
     42 CA         12.2730   12.2860   25.8880 C.3       9 GLL5        0.0000 
     43 CA         10.6546   12.0781   24.7167 C.3       3 GLC5        0.0000 
     44 CA          8.9950   11.3420   24.0370 C.3       6 GLP5        0.0000 
     45 CA         15.6651   13.7186   31.3901 C.3       3 GLC5        0.0000 
     46 CA         15.8310   14.8120   29.7500 C.3       9 GLL5        0.0000 
@<TRIPOS>BOND
@<TRIPOS>SUBSTRUCTURE
     1 ALC1        1 GROUP        1 X    ALC  0     ROOT ALC X 1
     2 SEC2        7 GROUP        1 X    SEC  0     **** SEC X 2
     3 GLC5        4 GROUP        1 X    GLC  0     **** GLC X 6
     4 ALP1        3 GROUP        1 Y    ALP  0     ROOT ALP Y 8
     5 SEP2        9 GROUP        1 Y    SEP  0     **** SEP Y 9
     6 GLP5        6 GROUP        1 Y    GLP  0     **** GLP Y 13
     7 ALL1        2 GROUP        1 Z    ALL  0     ROOT ALL Z 15
     8 SEL2        8 GROUP        1 Z    SEL  0     **** SEL Z 16
     9 GLL5        5 GROUP        1 Z    GLL  0     **** GLL Z 20
@<TRIPOS>SET

