#    Name: 1pg2_ADN_1_ligand
#    Modification time : Mon Mar 24 21:22:33 2014

@<TRIPOS>MOLECULE
1pg2_ADN_1_ligand
   32    34     1     0     0
SMALL
NO_CHARGES


@<TRIPOS>ATOM
      1 O5'        13.2130   10.1430   25.2090 O.3       1 ADN552      0.0000 
      2 C5'        12.9880   11.4950   24.7660 C.3       1 ADN552      0.0000 
      3 C4'        12.2730   12.2860   25.8880 C.3       1 ADN552      0.0000 
      4 O4'        13.2120   12.3370   26.9480 O.3       1 ADN552      0.0000 
      5 C3'        11.9980   13.7380   25.4660 C.3       1 ADN552      0.0000 
      6 O3'        10.6000   13.9950   25.6530 O.3       1 ADN552      0.0000 
      7 C2'        12.8900   14.5550   26.3670 C.3       1 ADN552      0.0000 
      8 O2'        12.4100   15.8450   26.6790 O.3       1 ADN552      0.0000 
      9 C1'        13.1200   13.6060   27.5660 C.3       1 ADN552      0.0000 
     10 N9         14.3780   13.9990   28.2370 N.pl3     1 ADN552      0.0000 
     11 C8         15.6810   13.8860   27.8090 C.2       1 ADN552      0.0000 
     12 N7         16.5710   14.3580   28.6780 N.2       1 ADN552      0.0000 
     13 C5         15.8310   14.8120   29.7500 C.ar      1 ADN552      0.0000 
     14 C6         16.1040   15.4210   30.9910 C.ar      1 ADN552      0.0000 
     15 N6         17.3710   15.6850   31.3550 N.pl3     1 ADN552      0.0000 
     16 N1         15.0910   15.7650   31.8730 N.ar      1 ADN552      0.0000 
     17 C2         13.7580   15.5170   31.5560 C.ar      1 ADN552      0.0000 
     18 N3         13.3940   14.9220   30.3540 N.ar      1 ADN552      0.0000 
     19 C4         14.4370   14.5800   29.4740 C.ar      1 ADN552      0.0000 
     20 H          12.3514   11.5317   23.8815 H         1 ADN552      0.0000 
     21 H          13.9230   12.0108   24.5453 H         1 ADN552      0.0000 
     22 H          11.3893   11.8042   26.1512 H         1 ADN552      0.0000 
     23 H          12.3160   13.8398   24.4606 H         1 ADN552      0.0000 
     24 H          13.8763   14.5911   25.8484 H         1 ADN552      0.0000 
     25 H          12.2865   13.6925   28.2001 H         1 ADN552      0.0000 
     26 H          15.9122   13.4838   26.9250 H         1 ADN552      0.0000 
     27 H          18.0812   15.4121   30.7061 H         1 ADN552      0.0000 
     28 H          17.4901   16.1307   32.2422 H         1 ADN552      0.0000 
     29 H          13.0182   15.7837   32.2355 H         1 ADN552      0.0000 
     30 H          12.3455    9.8562   25.6154 H         1 ADN552      0.0000 
     31 H          10.3691   13.5519   26.5192 H         1 ADN552      0.0000 
     32 H          12.7102   16.4232   25.9204 H         1 ADN552      0.0000 
@<TRIPOS>BOND
     1    2    1 1    
     2   30    1 1    
     3    3    2 1    
     4   20    2 1    
     5   21    2 1    
     6    4    3 1    
     7    5    3 1    
     8   22    3 1    
     9    9    4 1    
    10    6    5 1    
    11    7    5 1    
    12   23    5 1    
    13   31    6 1    
    14    8    7 1    
    15    9    7 1    
    16   24    7 1    
    17   32    8 1    
    18   10    9 1    
    19   25    9 1    
    20   11   10 1    
    21   19   10 1    
    22   12   11 2    
    23   26   11 1    
    24   13   12 1    
    25   14   13 ar   
    26   19   13 ar   
    27   15   14 1    
    28   16   14 ar   
    29   27   15 1    
    30   28   15 1    
    31   17   16 ar   
    32   18   17 ar   
    33   29   17 1    
    34   19   18 ar   
@<TRIPOS>SUBSTRUCTURE
     1 ADN552      1 GROUP   
@<TRIPOS>SET

