#    Name: 4o9k_CMK_2_INTS_M
#    Modification time : Tue Mar 25 13:33:44 2014

@<TRIPOS>MOLECULE
4o9k_CMK_2_INTS_M
   85     0    12     0     0
SMALL
NO_CHARGES


@<TRIPOS>ATOM
      1 N           9.4640    1.1945   12.4365 N.am      2 SEC2        0.0000 
      2 N          10.5400    1.2430   11.4970 N.am     10 SEL2        0.0000 
      3 N           8.3880    1.1460   13.3760 N.am      6 SEP2        0.0000 
      4 CA         14.0945    0.4070   11.6180 C.3       4 GLC5        0.0000 
      5 CA         12.8180    1.6360   10.8440 C.3      12 GLL5        0.0000 
      6 CA         15.3710   -0.8220   12.3920 C.3       8 GLP5        0.0000 
      7 CA         13.3905    1.6480    8.1570 C.3       4 GLC5        0.0000 
      8 CA         12.7190    0.6900    9.8500 C.3      12 GLL5        0.0000 
      9 CA         14.0620    2.6060    6.4640 C.3       8 GLP5        0.0000 
     10 CA         13.5225   -0.5785   10.8990 C.3       4 GLC5        0.0000 
     11 CA         14.3260   -1.8470   11.9480 C.3       8 GLP5        0.0000 
     12 N           8.9050    0.3975   11.9015 N.am      2 SEC2        0.0000 
     13 N           9.4220   -0.3510   10.4270 N.am     10 SEL2        0.0000 
     14 O          10.7335    3.1230   13.4970 O.2       1 ALC1        0.0000 
     15 O          11.7790    2.8480   12.5900 O.2       9 ALL1        0.0000 
     16 O           9.6880    3.3980   14.4040 O.2       5 ALP1        0.0000 
     17 O          13.2115    3.2865   12.7060 O.2       1 ALC1        0.0000 
     18 O          14.6440    3.7250   12.8220 O.2       5 ALP1        0.0000 
     19 CA          9.3920   -0.9090    8.1655 C.3       4 GLC5        0.0000 
     20 CA         11.4670   -1.0120    8.6410 C.3      12 GLL5        0.0000 
     21 CA          7.3170   -0.8060    7.6900 C.3       8 GLP5        0.0000 
     22 CA         12.8965   -1.4295   10.2945 C.3       4 GLC5        0.0000 
     23 CA         10.9140    1.3515    7.7510 C.3       4 GLC5        0.0000 
     24 CA         11.9500   -0.5140    7.2780 C.3      12 GLL5        0.0000 
     25 CA          9.8780    3.2170    8.2240 C.3       8 GLP5        0.0000 
     26 CA         13.0060    1.0460    6.8710 C.3       4 GLC5        0.0000 
     27 CA          9.8170   -0.2245    6.8700 C.3       4 GLC5        0.0000 
     28 CA          7.6840    0.0650    6.4620 C.3       8 GLP5        0.0000 
     29 N           9.7455   -0.2405    6.1070 N.am      2 SEC2        0.0000 
     30 N          10.9410    0.1940    6.6060 N.am     10 SEL2        0.0000 
     31 N           8.5500   -0.6750    5.6080 N.am      6 SEP2        0.0000 
     32 O          11.3465   -0.5025    5.1275 O.2       1 ALC1        0.0000 
     33 O          10.9410    0.1940    6.6060 O.2       9 ALL1        0.0000 
     34 O          11.7520   -1.1990    3.6490 O.2       5 ALP1        0.0000 
     35 O          11.2315    0.5955    5.3845 O.2       1 ALC1        0.0000 
     36 O          11.5220    0.9970    4.1630 O.2       5 ALP1        0.0000 
     37 N          12.7310   -2.7205    4.8955 N.am      2 SEC2        0.0000 
     38 N          11.3250   -2.4740    5.8990 N.am     10 SEL2        0.0000 
     39 N          14.1370   -2.9670    3.8920 N.am      6 SEP2        0.0000 
     40 O          11.5385   -1.8365    4.7740 O.2       1 ALC1        0.0000 
     41 O          11.3250   -2.4740    5.8990 O.2       9 ALL1        0.0000 
     42 CA         14.2840   -2.3245    9.9630 C.3       4 GLC5        0.0000 
     43 CA         14.2420   -2.8020    7.9780 C.3      12 GLL5        0.0000 
     44 NZ         14.9190   -2.2390    4.7310 N.4       3 LYC4        0.0000 
     45 NZ         15.7010   -1.5110    5.5700 N.4      11 LYL4        0.0000 
     46 NZ         14.2360   -4.0910    3.2040 N.4       7 LYP4        0.0000 
     47 N          15.1855   -0.2105    5.1245 N.am      2 SEC2        0.0000 
     48 N          15.7010   -1.5110    5.5700 N.am     10 SEL2        0.0000 
     49 N          14.6700    1.0900    4.6790 N.am      6 SEP2        0.0000 
     50 N          14.9190   -2.2390    4.7310 N.am      2 SEC2        0.0000 
     51 N          18.0590   -0.2340    8.2310 N.am      2 SEC2        0.0000 
     52 N          16.7610    0.0000    7.3940 N.am     10 SEL2        0.0000 
     53 N          19.3570   -0.4680    9.0680 N.am      6 SEP2        0.0000 
     54 CA         21.3530   -4.4025   10.2015 C.3       4 GLC5        0.0000 
     55 CA         20.4190   -5.4750    8.6700 C.3      12 GLL5        0.0000 
     56 CA         22.2870   -3.3300   11.7330 C.3       8 GLP5        0.0000 
     57 N          16.0995   -4.8760    4.7410 N.am      2 SEC2        0.0000 
     58 N          16.8740   -4.9650    6.1950 N.am     10 SEL2        0.0000 
     59 N          15.3250   -4.7870    3.2870 N.am      6 SEP2        0.0000 
     60 NZ         18.4150   -3.9990    3.2975 N.4       3 LYC4        0.0000 
     61 NZ         17.8950   -4.0420    4.5720 N.4      11 LYL4        0.0000 
     62 NZ         18.8650   -4.5120    0.8470 N.4       7 LYP4        0.0000 
     63 NZ         16.6100   -4.4145    3.9295 N.4       3 LYC4        0.0000 
     64 N          18.4150   -3.9990    3.2975 N.am      2 SEC2        0.0000 
     65 N          17.8950   -4.0420    4.5720 N.am     10 SEL2        0.0000 
     66 N          18.9350   -3.9560    2.0230 N.am      6 SEP2        0.0000 
     67 N          16.6100   -4.4145    3.9295 N.am      2 SEC2        0.0000 
     68 N          20.3835   -1.6285    8.6670 N.am      2 SEC2        0.0000 
     69 N          21.4100   -2.7890    8.2660 N.am     10 SEL2        0.0000 
     70 CA         18.7570   -6.4960   10.5510 C.3       4 GLC5        0.0000 
     71 CA         19.6700   -6.7980    8.6450 C.3      12 GLL5        0.0000 
     72 CA         17.8440   -6.1940   12.4570 C.3       8 GLP5        0.0000 
     73 N          20.9240   -7.8380   10.6835 N.am      2 SEC2        0.0000 
     74 N          19.9620   -7.5840    9.8370 N.am     10 SEL2        0.0000 
     75 N          21.8860   -8.0920   11.5300 N.am      6 SEP2        0.0000 
     76 N          23.3060   -5.3140    8.6185 N.am      2 SEC2        0.0000 
     77 N          21.8400   -5.6920    8.5480 N.am     10 SEL2        0.0000 
     78 N          24.7720   -4.9360    8.6890 N.am      6 SEP2        0.0000 
     79 O          22.0255   -6.6555    7.5695 O.2       1 ALC1        0.0000 
     80 O          21.8400   -5.6920    8.5480 O.2       9 ALL1        0.0000 
     81 O          22.2110   -7.6190    6.5910 O.2       5 ALP1        0.0000 
     82 CA         11.3232    2.1900    9.2855 C.3       4 GLC5        0.0000 
     83 CA         21.9093   -3.3478    4.8978 C.3       4 GLC5        0.0000 
     84 CA         20.6350   -2.7160    6.0100 C.3      12 GLL5        0.0000 
     85 CA         22.9650   -3.5340    3.2190 C.3       8 GLP5        0.0000 
@<TRIPOS>BOND
@<TRIPOS>SUBSTRUCTURE
     1 ALC1       14 GROUP        1 X    ALC  0     ROOT ALC X 1
     2 SEC2        1 GROUP        1 X    SEC  0     **** SEC X 2
     3 LYC4       44 GROUP        1 X    LYC  0     **** LYC X 4
     4 GLC5        4 GROUP        1 X    GLC  0     **** GLC X 6
     5 ALP1       16 GROUP        1 Y    ALP  0     ROOT ALP Y 8
     6 SEP2        3 GROUP        1 Y    SEP  0     **** SEP Y 9
     7 LYP4       46 GROUP        1 Y    LYP  0     **** LYP Y 11
     8 GLP5        6 GROUP        1 Y    GLP  0     **** GLP Y 13
     9 ALL1       15 GROUP        1 Z    ALL  0     ROOT ALL Z 15
    10 SEL2        2 GROUP        1 Z    SEL  0     **** SEL Z 16
    11 LYL4       45 GROUP        1 Z    LYL  0     **** LYL Z 18
    12 GLL5        5 GROUP        1 Z    GLL  0     **** GLL Z 20
@<TRIPOS>SET

