#    Name: 4o9k_CMK_2_ligand
#    Modification time : Tue Mar 25 13:33:44 2014

@<TRIPOS>MOLECULE
4o9k_CMK_2_ligand
   60    62     1     0     0
SMALL
NO_CHARGES


@<TRIPOS>ATOM
      1 N1C        11.5380    0.0040    9.6990 N.am      1 CMK402      0.0000 
      2 C2C        10.4760    0.2640   10.5570 C.2       1 CMK402      0.0000 
      3 N3C        10.5400    1.2430   11.4970 N.2       1 CMK402      0.0000 
      4 C4C        11.6860    1.9220   11.6300 C.2       1 CMK402      0.0000 
      5 C5C        12.8180    1.6360   10.8440 C.2       1 CMK402      0.0000 
      6 C6C        12.7190    0.6900    9.8500 C.2       1 CMK402      0.0000 
      7 O2C         9.4220   -0.3510   10.4270 O.2       1 CMK402      0.0000 
      8 N4C        11.7790    2.8480   12.5900 N.pl3     1 CMK402      0.0000 
      9 C1'        11.4670   -1.0120    8.6410 C.3       1 CMK402      0.0000 
     10 C2'        11.9500   -0.5140    7.2780 C.3       1 CMK402      0.0000 
     11 O2'        10.9410    0.1940    6.6060 O.3       1 CMK402      0.0000 
     12 C3'        12.3640   -1.8180    6.6270 C.3       1 CMK402      0.0000 
     13 C4'        12.7600   -2.6930    7.7960 C.3       1 CMK402      0.0000 
     14 O4'        12.3870   -2.0340    8.9880 O.3       1 CMK402      0.0000 
     15 O3'        11.3250   -2.4740    5.8990 O.3       1 CMK402      0.0000 
     16 C5'        14.2420   -2.8020    7.9780 C.3       1 CMK402      0.0000 
     17 O5'        14.8650   -1.5390    7.9310 O.3       1 CMK402      0.0000 
     18 PA         16.1720   -1.3040    6.9630 P.3       1 CMK402      0.0000 
     19 O1A        15.7010   -1.5110    5.5700 O.co2     1 CMK402      0.0000 
     20 O2A        16.7610    0.0000    7.3940 O.co2     1 CMK402      0.0000 
     21 O6         18.8340   -3.8080    7.8310 O.3       1 CMK402      0.0000 
     22 C2         18.2190   -3.0940    6.7590 C.3       1 CMK402      0.0000 
     23 O2         17.1430   -2.4590    7.4230 O.3       1 CMK402      0.0000 
     24 C3         19.2020   -2.1560    6.1010 C.3       1 CMK402      0.0000 
     25 C4         20.6350   -2.7160    6.0100 C.3       1 CMK402      0.0000 
     26 O4         21.5790   -1.6440    6.1100 O.3       1 CMK402      0.0000 
     27 C5         21.0720   -3.6070    7.1430 C.3       1 CMK402      0.0000 
     28 C6         19.9860   -4.6020    7.5000 C.3       1 CMK402      0.0000 
     29 C7         20.4190   -5.4750    8.6700 C.3       1 CMK402      0.0000 
     30 C1         17.6260   -4.0890    5.7700 C.2       1 CMK402      0.0000 
     31 O1X        16.8740   -4.9650    6.1950 O.co2     1 CMK402      0.0000 
     32 O1Y        17.8950   -4.0420    4.5720 O.co2     1 CMK402      0.0000 
     33 O5         21.4100   -2.7890    8.2660 O.3       1 CMK402      0.0000 
     34 C8         19.6700   -6.7980    8.6450 C.3       1 CMK402      0.0000 
     35 O8         19.9620   -7.5840    9.8370 O.3       1 CMK402      0.0000 
     36 O7         21.8400   -5.6920    8.5480 O.3       1 CMK402      0.0000 
     37 H          13.6935    2.1314   11.0204 H         1 CMK402      0.0000 
     38 H          13.5156    0.5001    9.2311 H         1 CMK402      0.0000 
     39 H          10.9506    3.0110   13.1259 H         1 CMK402      0.0000 
     40 H          12.6686    3.2945   12.6860 H         1 CMK402      0.0000 
     41 H          10.4889   -1.4047    8.5379 H         1 CMK402      0.0000 
     42 H          12.8438    0.0537    7.4649 H         1 CMK402      0.0000 
     43 H          13.2436   -1.6478    6.0443 H         1 CMK402      0.0000 
     44 H          12.3321   -3.6447    7.7294 H         1 CMK402      0.0000 
     45 H          14.6347   -3.4787    7.1915 H         1 CMK402      0.0000 
     46 H          14.4316   -3.3133    8.9441 H         1 CMK402      0.0000 
     47 H          19.2361   -1.2057    6.6594 H         1 CMK402      0.0000 
     48 H          18.8580   -1.9167    5.0810 H         1 CMK402      0.0000 
     49 H          20.7722   -3.2324    5.0851 H         1 CMK402      0.0000 
     50 H          21.9463   -4.1661    6.8081 H         1 CMK402      0.0000 
     51 H          19.7969   -5.2143    6.6435 H         1 CMK402      0.0000 
     52 H          20.1870   -4.9561    9.5804 H         1 CMK402      0.0000 
     53 H          19.9623   -7.3424    7.7373 H         1 CMK402      0.0000 
     54 H          18.5954   -6.5843    8.5720 H         1 CMK402      0.0000 
     55 H          11.3348    0.4234    5.7159 H         1 CMK402      0.0000 
     56 H          11.3327   -2.0463    4.9951 H         1 CMK402      0.0000 
     57 H          21.9186   -1.6851    7.0497 H         1 CMK402      0.0000 
     58 H          21.6844   -3.4319    8.9811 H         1 CMK402      0.0000 
     59 H          19.3507   -7.2228   10.5412 H         1 CMK402      0.0000 
     60 H          21.9350   -6.3919    7.8401 H         1 CMK402      0.0000 
@<TRIPOS>BOND
     1    2    1 am   
     2    6    1 1    
     3    9    1 1    
     4    3    2 1    
     5    7    2 2    
     6    4    3 2    
     7    5    4 1    
     8    8    4 1    
     9    6    5 2    
    10   37    5 1    
    11   38    6 1    
    12   39    8 1    
    13   40    8 1    
    14   10    9 1    
    15   14    9 1    
    16   41    9 1    
    17   11   10 1    
    18   12   10 1    
    19   42   10 1    
    20   55   11 1    
    21   13   12 1    
    22   15   12 1    
    23   43   12 1    
    24   14   13 1    
    25   16   13 1    
    26   44   13 1    
    27   56   15 1    
    28   17   16 1    
    29   45   16 1    
    30   46   16 1    
    31   18   17 1    
    32   19   18 ar   
    33   20   18 ar   
    34   23   18 1    
    35   22   21 1    
    36   28   21 1    
    37   23   22 1    
    38   24   22 1    
    39   30   22 1    
    40   25   24 1    
    41   47   24 1    
    42   48   24 1    
    43   26   25 1    
    44   27   25 1    
    45   49   25 1    
    46   57   26 1    
    47   28   27 1    
    48   33   27 1    
    49   50   27 1    
    50   29   28 1    
    51   51   28 1    
    52   34   29 1    
    53   36   29 1    
    54   52   29 1    
    55   31   30 ar   
    56   32   30 ar   
    57   58   33 1    
    58   35   34 1    
    59   53   34 1    
    60   54   34 1    
    61   59   35 1    
    62   60   36 1    
@<TRIPOS>SUBSTRUCTURE
     1 CMK402      1 GROUP   
@<TRIPOS>SET

