#    Name: 1wc1_TAT_2_INTS_M
#    Modification time : Tue Mar 25 08:55:03 2014

@<TRIPOS>MOLECULE
1wc1_TAT_2_INTS_M
   61     0    12     0     0
SMALL
NO_CHARGES


@<TRIPOS>ATOM
      1 Zn         34.1850   46.9615   89.5540 Zn        3 ZIC7        0.0000 
      2 Zn         33.9460   47.5380   88.5720 Zn       11 ZIL7        0.0000 
      3 Zn         34.4240   46.3850   90.5360 Zn        7 ZIP7        0.0000 
      4 N          34.8445   47.7150   87.5370 N.am      2 SEC2        0.0000 
      5 N          33.9460   47.5380   88.5720 N.am     10 SEL2        0.0000 
      6 N          35.7430   47.8920   86.5020 N.am      6 SEP2        0.0000 
      7 N          33.3570   48.0860   85.7330 N.am      2 SEC2        0.0000 
      8 N          32.7870   48.9750   86.8840 N.am     10 SEL2        0.0000 
      9 N          33.9270   47.1970   84.5820 N.am      6 SEP2        0.0000 
     10 N          34.4395   49.8555   88.8015 N.am      2 SEC2        0.0000 
     11 N          32.7840   49.5790   89.2590 N.am     10 SEL2        0.0000 
     12 N          36.0950   50.1320   88.3440 N.am      6 SEP2        0.0000 
     13 Zn         32.4860   44.9160   91.0240 Zn        3 ZIC7        0.0000 
     14 Zn         32.6050   45.9090   90.2720 Zn       11 ZIL7        0.0000 
     15 Zn         32.3670   43.9230   91.7760 Zn        7 ZIP7        0.0000 
     16 Zn         33.5145   46.1470   90.4040 Zn        3 ZIC7        0.0000 
     17 CA         33.5895   43.0180   86.3860 C.3       4 GLC5        0.0000 
     18 CA         32.1130   42.6890   87.4980 C.3      12 GLL5        0.0000 
     19 CA         35.0660   43.3470   85.2740 C.3       8 GLP5        0.0000 
     20 CA         32.4885   40.7780   88.3480 C.3       4 GLC5        0.0000 
     21 CA         32.8640   38.8670   89.1980 C.3       8 GLP5        0.0000 
     22 CA         33.9355   42.6700   88.2640 C.3       4 GLC5        0.0000 
     23 CA         35.7580   42.6510   89.0300 C.3       8 GLP5        0.0000 
     24 Zn         31.7700   43.6485   90.9700 Zn        3 ZIC7        0.0000 
     25 Zn         31.1730   43.3740   90.1640 Zn       11 ZIL7        0.0000 
     26 CA         27.4780   44.0775   87.1015 C.3       4 GLC5        0.0000 
     27 CA         28.2930   44.0140   88.9810 C.3      12 GLL5        0.0000 
     28 CA         26.6630   44.1410   85.2220 C.3       8 GLP5        0.0000 
     29 CA         25.4520   42.2805   89.4255 C.3       4 GLC5        0.0000 
     30 CA         27.4590   43.0960   89.8260 C.3      12 GLL5        0.0000 
     31 CA         23.4450   41.4650   89.0250 C.3       8 GLP5        0.0000 
     32 CA         28.8175   39.9445   92.1935 C.3       4 GLC5        0.0000 
     33 CA         27.5150   41.1620   91.1030 C.3      12 GLL5        0.0000 
     34 CA         30.1200   38.7270   93.2840 C.3       8 GLP5        0.0000 
     35 CA         25.8080   39.1455   89.1400 C.3       4 GLC5        0.0000 
     36 CA         27.0770   40.7480   89.6980 C.3      12 GLL5        0.0000 
     37 CA         24.5390   37.5430   88.5820 C.3       8 GLP5        0.0000 
     38 CA         25.2610   41.1065   89.3615 C.3       4 GLC5        0.0000 
     39 O          30.7365   34.7890   87.5035 O.2       1 ALC1        0.0000 
     40 O          30.7780   36.3040   87.8100 O.2       9 ALL1        0.0000 
     41 O          30.6950   33.2740   87.1970 O.2       5 ALP1        0.0000 
     42 N          29.7180   34.7365   89.9615 N.am      2 SEC2        0.0000 
     43 N          29.3600   36.0640   89.6880 N.am     10 SEL2        0.0000 
     44 N          30.0760   33.4090   90.2350 N.am      6 SEP2        0.0000 
     45 CA         29.2565   37.6865   91.9085 C.3       4 GLC5        0.0000 
     46 CA         28.3930   36.6460   90.5330 C.3      12 GLL5        0.0000 
     47 CA         28.7555   35.0415   91.5520 C.3       4 GLC5        0.0000 
     48 CA         29.1180   33.4370   92.5710 C.3       8 GLP5        0.0000 
     49 CA         27.6150   36.1165   92.5435 C.3       4 GLC5        0.0000 
     50 CA         26.8370   35.5870   94.5540 C.3       8 GLP5        0.0000 
     51 CA         27.5340   35.5445   89.6720 C.3       4 GLC5        0.0000 
     52 CA         26.6750   34.4430   88.8110 C.3       8 GLP5        0.0000 
     53 CA         29.2610   38.6540   91.3435 C.3       4 GLC5        0.0000 
     54 CA         28.4020   38.5810   89.4030 C.3      12 GLL5        0.0000 
     55 CA         28.3295   36.0600   87.8040 C.3       4 GLC5        0.0000 
     56 CA         29.3850   38.1510   88.4680 C.3      12 GLL5        0.0000 
     57 CA         27.0320   34.6260   87.0630 C.3       8 GLP5        0.0000 
     58 CA         30.9393   38.4523   89.0860 C.3       4 GLC5        0.0000 
     59 CA         27.9637   38.1412   87.4150 C.3       4 GLC5        0.0000 
     60 CA         29.8690   36.8370   88.6220 C.3      12 GLL5        0.0000 
     61 CA         26.9130   38.2450   85.8560 C.3       8 GLP5        0.0000 
@<TRIPOS>BOND
@<TRIPOS>SUBSTRUCTURE
     1 ALC1       39 GROUP        1 X    ALC  0     ROOT ALC X 1
     2 SEC2        4 GROUP        1 X    SEC  0     **** SEC X 2
     3 ZIC7        1 GROUP        1 X    ZIC  0     **** ZIC X 5
     4 GLC5       17 GROUP        1 X    GLC  0     **** GLC X 6
     5 ALP1       41 GROUP        1 Y    ALP  0     ROOT ALP Y 8
     6 SEP2        6 GROUP        1 Y    SEP  0     **** SEP Y 9
     7 ZIP7        3 GROUP        1 Y    ZIP  0     **** ZIP Y 12
     8 GLP5       19 GROUP        1 Y    GLP  0     **** GLP Y 13
     9 ALL1       40 GROUP        1 Z    ALL  0     ROOT ALL Z 15
    10 SEL2        5 GROUP        1 Z    SEL  0     **** SEL Z 16
    11 ZIL7        2 GROUP        1 Z    ZIL  0     **** ZIL Z 19
    12 GLL5       18 GROUP        1 Z    GLL  0     **** GLL Z 20
@<TRIPOS>SET

