#    Name: 1wc1_TAT_2_ligand
#    Modification time : Tue Mar 25 08:55:03 2014

@<TRIPOS>MOLECULE
1wc1_TAT_2_ligand
   43    45     1     0     0
SMALL
NO_CHARGES


@<TRIPOS>ATOM
      1 PG         32.7790   48.4310   88.3130 P.3       1 TAT1500     0.0000 
      2 O1G        33.9460   47.5380   88.5720 O.co2     1 TAT1500     0.0000 
      3 O2G        32.7870   48.9750   86.8840 O.co2     1 TAT1500     0.0000 
      4 O3G        32.7840   49.5790   89.2590 O.co2     1 TAT1500     0.0000 
      5 PB         31.3430   46.2890   89.4510 P.3       1 TAT1500     0.0000 
      6 O1B        32.6050   45.9090   90.2720 O.co2     1 TAT1500     0.0000 
      7 O2B        30.1460   46.4710   90.4160 O.co2     1 TAT1500     0.0000 
      8 O3B        31.4790   47.6550   88.6300 O.3       1 TAT1500     0.0000 
      9 PA         30.8640   43.6610   88.6910 P.3       1 TAT1500     0.0000 
     10 S1A        32.1130   42.6890   87.4980 S.3       1 TAT1500     0.0000 
     11 O2A        31.1730   43.3740   90.1640 O.2       1 TAT1500     0.0000 
     12 O3A        31.0090   45.1790   88.3650 O.3       1 TAT1500     0.0000 
     13 O5'        29.3900   43.2840   88.3640 O.3       1 TAT1500     0.0000 
     14 C5'        28.2930   44.0140   88.9810 C.3       1 TAT1500     0.0000 
     15 C4'        27.4590   43.0960   89.8260 C.3       1 TAT1500     0.0000 
     16 O4'        26.9390   42.0010   88.9580 O.3       1 TAT1500     0.0000 
     17 C3'        28.2900   42.3830   90.8940 C.3       1 TAT1500     0.0000 
     18 O3'        28.4300   43.1780   92.0830 O.3       1 TAT1500     0.0000 
     19 C2'        27.5150   41.1620   91.1030 C.3       1 TAT1500     0.0000 
     20 O2'        26.4060   41.4760   91.9440 O.3       1 TAT1500     0.0000 
     21 C1'        27.0770   40.7480   89.6980 C.3       1 TAT1500     0.0000 
     22 N9         28.0930   39.8580   89.0260 N.pl3     1 TAT1500     0.0000 
     23 C8         28.8710   40.1210   87.9450 C.2       1 TAT1500     0.0000 
     24 N7         29.6700   39.0920   87.5820 N.2       1 TAT1500     0.0000 
     25 C5         29.3850   38.1510   88.4680 C.ar      1 TAT1500     0.0000 
     26 C6         29.8690   36.8370   88.6220 C.ar      1 TAT1500     0.0000 
     27 N6         30.7780   36.3040   87.8100 N.pl3     1 TAT1500     0.0000 
     28 N1         29.3600   36.0640   89.6880 N.ar      1 TAT1500     0.0000 
     29 C2         28.3930   36.6460   90.5330 C.ar      1 TAT1500     0.0000 
     30 N3         27.8720   37.8670   90.4550 N.ar      1 TAT1500     0.0000 
     31 C4         28.4020   38.5810   89.4030 C.ar      1 TAT1500     0.0000 
     32 H          27.6512   44.4687   88.2138 H         1 TAT1500     0.0000 
     33 H          28.6766   44.8261   89.6141 H         1 TAT1500     0.0000 
     34 H          26.6589   43.6037   90.2801 H         1 TAT1500     0.0000 
     35 H          29.2283   42.1334   90.4415 H         1 TAT1500     0.0000 
     36 H          28.1396   40.4049   91.4994 H         1 TAT1500     0.0000 
     37 H          26.1345   40.2565   89.7673 H         1 TAT1500     0.0000 
     38 H          28.8530   40.9960   87.4632 H         1 TAT1500     0.0000 
     39 H          31.4065   36.9462   87.3712 H         1 TAT1500     0.0000 
     40 H          30.7509   35.3092   87.7117 H         1 TAT1500     0.0000 
     41 H          28.0504   35.9937   91.3368 H         1 TAT1500     0.0000 
     42 H          29.0166   42.6387   92.6872 H         1 TAT1500     0.0000 
     43 H          26.5996   42.3917   92.2963 H         1 TAT1500     0.0000 
@<TRIPOS>BOND
     1    2    1 ar   
     2    3    1 ar   
     3    4    1 ar   
     4    8    1 1    
     5    6    5 ar   
     6    7    5 ar   
     7    8    5 1    
     8   12    5 1    
     9   10    9 1    
    10   11    9 2    
    11   12    9 1    
    12   13    9 1    
    13   14   13 1    
    14   15   14 1    
    15   32   14 1    
    16   33   14 1    
    17   16   15 1    
    18   17   15 1    
    19   34   15 1    
    20   21   16 1    
    21   18   17 1    
    22   19   17 1    
    23   35   17 1    
    24   42   18 1    
    25   20   19 1    
    26   21   19 1    
    27   36   19 1    
    28   43   20 1    
    29   22   21 1    
    30   37   21 1    
    31   23   22 1    
    32   31   22 1    
    33   24   23 2    
    34   38   23 1    
    35   25   24 1    
    36   26   25 ar   
    37   31   25 ar   
    38   27   26 1    
    39   28   26 ar   
    40   39   27 1    
    41   40   27 1    
    42   29   28 ar   
    43   30   29 ar   
    44   41   29 1    
    45   31   30 ar   
@<TRIPOS>SUBSTRUCTURE
     1 TAT1500     1 GROUP   
@<TRIPOS>SET

