#    Name: 2AC7_2_CAVITY_N1_6.mol2
#    Modification time : Tue Mar 11 01:17:03 2014

@<TRIPOS>MOLECULE
2AC7_2_CAVITY_N1_6.mol2
   97     0     6     0     0
SMALL
NO_CHARGES


@<TRIPOS>ATOM
      1 CA         46.5108   17.8773  -11.8447 C.3       5 GLY6        0.0000 
      2 NZ         45.1349   17.6996  -12.4150 N.2       3 LYS4        0.0000 
      3 N          45.2797   18.9897  -13.1665 N.2       2 ALA2        0.0000 
      4 N          45.4245   20.2798  -13.9179 N.2       2 ALA2        0.0000 
      5 NZ         43.7590   17.5218  -12.9853 N.2       3 LYS4        0.0000 
      6 N          43.9038   18.8119  -13.7368 N.2       2 ALA2        0.0000 
      7 CA         47.1624   17.5093   -9.3568 C.3       5 GLY6        0.0000 
      8 CA         47.3072   18.7994  -10.1082 C.3       5 GLY6        0.0000 
      9 CA         47.4520   20.0895  -10.8596 C.3       5 GLY6        0.0000 
     10 NZ         45.9313   18.6216  -10.6785 N.2       3 LYS4        0.0000 
     11 CA         46.0761   19.9118  -11.4299 C.3       5 GLY6        0.0000 
     12 CA         46.2209   21.2019  -12.1814 C.3       5 GLY6        0.0000 
     13 NZ         44.5554   18.4439  -11.2488 N.2       3 LYS4        0.0000 
     14 DU         44.7002   19.7340  -12.0002 H         6 CUB7        0.0000 
     15 DU         44.8450   21.0241  -12.7517 H         6 CUB7        0.0000 
     16 NZ         43.0347   16.9760  -11.0676 N.2       3 LYS4        0.0000 
     17 NZ         43.1795   18.2661  -11.8191 N.2       3 LYS4        0.0000 
     18 DU         43.3242   19.5562  -12.5705 H         6 CUB7        0.0000 
     19 DU         43.4690   20.8464  -13.3220 H         6 CUB7        0.0000 
     20 NZ         41.6587   16.7983  -11.6379 N.2       3 LYS4        0.0000 
     21 CA         41.8035   18.0884  -12.3894 C.3       5 GLY6        0.0000 
     22 CA         48.1036   19.7215   -8.3717 C.3       5 GLY6        0.0000 
     23 CA         48.2484   21.0116   -9.1231 C.3       5 GLY6        0.0000 
     24 CA         46.5829   18.2536   -8.1905 C.3       5 GLY6        0.0000 
     25 DU         46.7277   19.5437   -8.9420 H         6 CUB7        0.0000 
     26 CA         46.8725   20.8338   -9.6934 C.3       5 GLY6        0.0000 
     27 O          44.9174   15.4957   -7.2579 O.2       2 ALA2        0.0000 
     28 NZ         45.0622   16.7858   -8.0094 N.2       3 LYS4        0.0000 
     29 CZ         45.2070   18.0759   -8.7608 C.ar      4 PHE5        0.0000 
     30 CZ         45.3518   19.3660   -9.5123 C.ar      4 PHE5        0.0000 
     31 N          45.4966   20.6561  -10.2637 N.2       2 ALA2        0.0000 
     32 N          45.6413   21.9462  -11.0151 N.2       2 ALA2        0.0000 
     33 NZ         43.6863   16.6080   -8.5797 N.2       3 LYS4        0.0000 
     34 CZ         43.8310   17.8981   -9.3311 C.ar      4 PHE5        0.0000 
     35 CZ         43.9758   19.1882  -10.0826 C.ar      4 PHE5        0.0000 
     36 CZ         44.1206   20.4783  -10.8340 C.ar      4 PHE5        0.0000 
     37 CZ         44.2654   21.7684  -11.5854 C.ar      4 PHE5        0.0000 
     38 NZ         42.3103   16.4303   -9.1500 N.2       3 LYS4        0.0000 
     39 CZ         42.4551   17.7204   -9.9014 C.ar      4 PHE5        0.0000 
     40 CZ         42.7447   20.3006  -11.4043 C.ar      4 PHE5        0.0000 
     41 CZ         42.8895   21.5907  -12.1557 C.ar      4 PHE5        0.0000 
     42 OG         40.6448   13.6723   -8.2174 O.2       1 SER1        0.0000 
     43 NZ         40.7896   14.9624   -8.9688 N.2       3 LYS4        0.0000 
     44 NZ         40.9344   16.2525   -9.7203 N.2       3 LYS4        0.0000 
     45 CZ         41.0792   17.5426  -10.4717 C.ar      4 PHE5        0.0000 
     46 CA         47.5241   20.4658   -7.2054 C.3       5 GLY6        0.0000 
     47 N          47.6689   21.7559   -7.9569 N.2       2 ALA2        0.0000 
     48 N          45.8586   17.7078   -6.2729 N.2       2 ALA2        0.0000 
     49 CZ         46.0034   18.9980   -7.0243 C.ar      4 PHE5        0.0000 
     50 CZ         46.1481   20.2881   -7.7757 C.ar      4 PHE5        0.0000 
     51 N          44.1931   14.9499   -5.3403 N.2       2 ALA2        0.0000 
     52 N          44.3379   16.2400   -6.0917 N.2       2 ALA2        0.0000 
     53 CZ         44.4826   17.5301   -6.8431 C.ar      4 PHE5        0.0000 
     54 CZ         44.7722   20.1103   -8.3460 C.ar      4 PHE5        0.0000 
     55 OG         42.8171   14.7721   -5.9106 O.2       1 SER1        0.0000 
     56 CZ         42.9619   16.0622   -6.6620 C.ar      4 PHE5        0.0000 
     57 CZ         43.6859   22.5128  -10.4192 C.ar      4 PHE5        0.0000 
     58 OG         41.4412   14.5944   -6.4809 O.2       1 SER1        0.0000 
     59 NZ         41.5860   15.8845   -7.2323 N.2       3 LYS4        0.0000 
     60 CZ         41.7308   17.1746   -7.9837 C.ar      4 PHE5        0.0000 
     61 OG         40.0653   14.4166   -7.0512 O.2       1 SER1        0.0000 
     62 CA         40.2101   15.7067   -7.8026 C.3       5 GLY6        0.0000 
     63 CA         40.3549   16.9968   -8.5540 C.3       5 GLY6        0.0000 
     64 DU         38.6894   14.2389   -7.6214 H         6 CUB7        0.0000 
     65 CA         38.8342   15.5290   -8.3729 C.3       5 GLY6        0.0000 
     66 CA         46.7997   19.9200   -5.2878 C.3       5 GLY6        0.0000 
     67 CA         44.9895   15.8720   -3.6037 C.3       5 GLY6        0.0000 
     68 CA         45.1342   17.1621   -4.3552 C.3       5 GLY6        0.0000 
     69 CA         45.2790   18.4522   -5.1066 C.3       5 GLY6        0.0000 
     70 CZ         45.4238   19.7423   -5.8581 C.ar      4 PHE5        0.0000 
     71 N          43.6135   15.6942   -4.1740 N.2       2 ALA2        0.0000 
     72 CZ         43.7583   16.9843   -4.9255 C.ar      4 PHE5        0.0000 
     73 CZ         43.9031   18.2744   -5.6769 C.ar      4 PHE5        0.0000 
     74 OG         42.2376   15.5165   -4.7443 O.2       1 SER1        0.0000 
     75 CZ         42.3824   16.8066   -5.4958 C.ar      4 PHE5        0.0000 
     76 O          40.8617   15.3387   -5.3146 O.2       2 ALA2        0.0000 
     77 CZ         41.0065   16.6288   -6.0661 C.ar      4 PHE5        0.0000 
     78 O          39.6305   16.4511   -6.6364 O.2       2 ALA2        0.0000 
     79 N          39.7753   17.7412   -7.3878 N.2       2 ALA2        0.0000 
     80 O          44.4099   16.6163   -2.4375 O.2       2 ALA2        0.0000 
     81 CA         44.5547   17.9064   -3.1889 C.3       5 GLY6        0.0000 
     82 N          42.8892   15.1484   -2.2564 N.2       2 ALA2        0.0000 
     83 DU         43.0340   16.4385   -3.0078 H         6 CUB7        0.0000 
     84 CA         43.1788   17.7286   -3.7592 C.3       5 GLY6        0.0000 
     85 CA         43.3236   19.0188   -4.5107 C.3       5 GLY6        0.0000 
     86 O          41.5133   14.9707   -2.8267 O.2       2 ALA2        0.0000 
     87 O          41.6581   16.2608   -3.5781 O.2       2 ALA2        0.0000 
     88 CZ         41.8029   17.5509   -4.3295 C.ar      4 PHE5        0.0000 
     89 CZ         41.9476   18.8410   -5.0810 C.ar      4 PHE5        0.0000 
     90 O          40.4269   17.3731   -4.8998 O.2       2 ALA2        0.0000 
     91 CA         43.8304   17.3606   -1.2713 C.3       5 GLY6        0.0000 
     92 NZ         42.3097   15.8928   -1.0901 N.2       3 LYS4        0.0000 
     93 NZ         42.4544   17.1829   -1.8416 N.2       3 LYS4        0.0000 
     94 CA         42.5992   18.4730   -2.5930 C.3       5 GLY6        0.0000 
     95 O          40.9337   15.7150   -1.6604 O.2       2 ALA2        0.0000 
     96 CA         41.0785   17.0051   -2.4119 C.3       5 GLY6        0.0000 
     97 CA         41.2233   18.2952   -3.1633 C.3       5 GLY6        0.0000 
@<TRIPOS>BOND
@<TRIPOS>SUBSTRUCTURE
     1 SER1       42 GROUP   
     2 ALA2        3 GROUP   
     3 LYS4        2 GROUP   
     4 PHE5       29 GROUP   
     5 GLY6        1 GROUP   
     6 CUB7       14 GROUP   
@<TRIPOS>SET

