#    Name: 2ac7_ADN_2_INTS_M
#    Modification time : Mon Mar 24 18:59:00 2014

@<TRIPOS>MOLECULE
2ac7_ADN_2_INTS_M
   45     0     9     0     0
SMALL
NO_CHARGES


@<TRIPOS>ATOM
      1 CA         40.9635   20.2970   -3.7970 C.3       3 GLC5        0.0000 
      2 CA         41.5010   18.2430   -4.2100 C.3       9 GLL5        0.0000 
      3 CA         40.4260   22.3510   -3.3840 C.3       6 GLP5        0.0000 
      4 CA         41.9910   18.9480   -5.8255 C.3       3 GLC5        0.0000 
      5 CA         42.4810   19.6530   -7.4410 C.3       6 GLP5        0.0000 
      6 CA         40.9440   18.0500   -1.2245 C.3       3 GLC5        0.0000 
      7 CA         42.6130   17.3220   -2.1220 C.3       9 GLL5        0.0000 
      8 CA         39.2750   18.7780   -0.3270 C.3       6 GLP5        0.0000 
      9 CA         43.9375   18.4540   -1.3785 C.3       3 GLC5        0.0000 
     10 CA         45.2620   19.5860   -0.6350 C.3       6 GLP5        0.0000 
     11 O          43.3835   16.3505    0.1010 O.2       1 ALC1        0.0000 
     12 O          42.1450   16.7500   -0.9020 O.2       7 ALL1        0.0000 
     13 O          44.6220   15.9510    1.1040 O.2       4 ALP1        0.0000 
     14 O          42.6010   17.0975    0.2850 O.2       1 ALC1        0.0000 
     15 O          43.0570   17.4450    1.4720 O.2       4 ALP1        0.0000 
     16 CA         44.6415   18.3740   -2.3740 C.3       3 GLC5        0.0000 
     17 CA         43.8850   16.6600   -2.6740 C.3       9 GLL5        0.0000 
     18 CA         45.3980   20.0880   -2.0740 C.3       6 GLP5        0.0000 
     19 N          45.6920   16.7995   -1.2910 N.am      2 SEC2        0.0000 
     20 N          44.5960   15.9540   -1.6810 N.am      8 SEL2        0.0000 
     21 N          46.7880   17.6450   -0.9010 N.am      5 SEP2        0.0000 
     22 O          44.6090   15.9525   -0.2885 O.2       1 ALC1        0.0000 
     23 O          44.5960   15.9540   -1.6810 O.2       7 ALL1        0.0000 
     24 O          45.4590   16.4740  -10.0905 O.2       1 ALC1        0.0000 
     25 O          45.7030   17.5170   -9.0480 O.2       7 ALL1        0.0000 
     26 O          45.2150   15.4310  -11.1330 O.2       4 ALP1        0.0000 
     27 CA         47.5310   19.0920   -5.7880 C.3       3 GLC5        0.0000 
     28 CA         45.6720   18.9570   -5.8170 C.3       9 GLL5        0.0000 
     29 CA         49.3900   19.2270   -5.7590 C.3       6 GLP5        0.0000 
     30 CA         46.6760   17.7670   -4.3780 C.3       3 GLC5        0.0000 
     31 CA         47.6800   16.5770   -2.9390 C.3       6 GLP5        0.0000 
     32 CA         45.5350   19.5225   -3.9455 C.3       3 GLC5        0.0000 
     33 CA         46.1415   16.7895   -4.2805 C.3       3 GLC5        0.0000 
     34 CA         44.6030   17.0020   -5.6220 C.3       9 GLL5        0.0000 
     35 CA         40.1425   18.4360   -2.8527 C.3       3 GLC5        0.0000 
     36 CA         41.5830   17.0910   -3.2170 C.3       9 GLL5        0.0000 
     37 CA         38.7430   19.2050   -1.9920 C.3       6 GLP5        0.0000 
     38 CA         42.7250   19.2620   -3.2067 C.3       3 GLC5        0.0000 
     39 CA         43.9080   20.8570   -2.7000 C.3       6 GLP5        0.0000 
     40 CA         45.6655   16.3735   -3.0770 C.3       3 GLC5        0.0000 
     41 CA         45.5983   14.8972   -6.0735 C.3       3 GLC5        0.0000 
     42 CA         46.5030   12.9400   -5.8550 C.3       6 GLP5        0.0000 
     43 CA         46.3477   15.7635   -8.2858 C.3       3 GLC5        0.0000 
     44 CA         44.7840   16.7070   -6.9620 C.3       9 GLL5        0.0000 
     45 CA         47.5730   14.3370   -9.2220 C.3       6 GLP5        0.0000 
@<TRIPOS>BOND
@<TRIPOS>SUBSTRUCTURE
     1 ALC1       11 GROUP        1 X    ALC  0     ROOT ALC X 1
     2 SEC2       19 GROUP        1 X    SEC  0     **** SEC X 2
     3 GLC5        1 GROUP        1 X    GLC  0     **** GLC X 6
     4 ALP1       13 GROUP        1 Y    ALP  0     ROOT ALP Y 8
     5 SEP2       21 GROUP        1 Y    SEP  0     **** SEP Y 9
     6 GLP5        3 GROUP        1 Y    GLP  0     **** GLP Y 13
     7 ALL1       12 GROUP        1 Z    ALL  0     ROOT ALL Z 15
     8 SEL2       20 GROUP        1 Z    SEL  0     **** SEL Z 16
     9 GLL5        2 GROUP        1 Z    GLL  0     **** GLL Z 20
@<TRIPOS>SET

