#    Name: 2ac7_ADN_2_ligand
#    Modification time : Mon Mar 24 18:59:00 2014

@<TRIPOS>MOLECULE
2ac7_ADN_2_ligand
   32    34     1     0     0
SMALL
NO_CHARGES


@<TRIPOS>ATOM
      1 O5'        40.6390   17.8910   -5.2990 O.3       1 ADN1215     0.0000 
      2 C5'        41.5010   18.2430   -4.2100 C.3       1 ADN1215     0.0000 
      3 C4'        41.5830   17.0910   -3.2170 C.3       1 ADN1215     0.0000 
      4 O4'        42.0110   15.8670   -3.8710 O.3       1 ADN1215     0.0000 
      5 C3'        42.6130   17.3220   -2.1220 C.3       1 ADN1215     0.0000 
      6 O3'        42.1450   16.7500   -0.9020 O.3       1 ADN1215     0.0000 
      7 C2'        43.8850   16.6600   -2.6740 C.3       1 ADN1215     0.0000 
      8 O2'        44.5960   15.9540   -1.6810 O.3       1 ADN1215     0.0000 
      9 C1'        43.4170   15.6800   -3.7560 C.3       1 ADN1215     0.0000 
     10 N9         43.9200   15.9250   -5.1050 N.pl3     1 ADN1215     0.0000 
     11 C8         43.7140   15.0580   -6.1570 C.2       1 ADN1215     0.0000 
     12 N7         44.2260   15.4730   -7.2810 N.2       1 ADN1215     0.0000 
     13 C5         44.7840   16.7070   -6.9620 C.ar      1 ADN1215     0.0000 
     14 C6         45.4610   17.6730   -7.7370 C.ar      1 ADN1215     0.0000 
     15 N6         45.7030   17.5170   -9.0480 N.pl3     1 ADN1215     0.0000 
     16 N1         45.9010   18.8090   -7.1310 N.ar      1 ADN1215     0.0000 
     17 C2         45.6720   18.9570   -5.8170 C.ar      1 ADN1215     0.0000 
     18 N3         45.0340   18.1230   -4.9920 N.ar      1 ADN1215     0.0000 
     19 C4         44.6030   17.0020   -5.6220 C.ar      1 ADN1215     0.0000 
     20 H          41.1323   19.1258   -3.6731 H         1 ADN1215     0.0000 
     21 H          42.5184   18.4633   -4.5562 H         1 ADN1215     0.0000 
     22 H          40.6263   16.9404   -2.7517 H         1 ADN1215     0.0000 
     23 H          42.7856   18.3741   -2.0617 H         1 ADN1215     0.0000 
     24 H          44.4702   17.4157   -3.1572 H         1 ADN1215     0.0000 
     25 H          43.6225   14.6821   -3.4412 H         1 ADN1215     0.0000 
     26 H          43.2127   14.1993   -6.0286 H         1 ADN1215     0.0000 
     27 H          46.2058   18.2576   -9.4938 H         1 ADN1215     0.0000 
     28 H          45.3589   16.6741   -9.4617 H         1 ADN1215     0.0000 
     29 H          46.0599   19.8834   -5.3645 H         1 ADN1215     0.0000 
     30 H          41.1494   17.2091   -5.8230 H         1 ADN1215     0.0000 
     31 H          42.6765   17.2003   -0.1845 H         1 ADN1215     0.0000 
     32 H          44.2159   16.2746   -0.8134 H         1 ADN1215     0.0000 
@<TRIPOS>BOND
     1    2    1 1    
     2   30    1 1    
     3    3    2 1    
     4   20    2 1    
     5   21    2 1    
     6    4    3 1    
     7    5    3 1    
     8   22    3 1    
     9    9    4 1    
    10    6    5 1    
    11    7    5 1    
    12   23    5 1    
    13   31    6 1    
    14    8    7 1    
    15    9    7 1    
    16   24    7 1    
    17   32    8 1    
    18   10    9 1    
    19   25    9 1    
    20   11   10 1    
    21   19   10 1    
    22   12   11 2    
    23   26   11 1    
    24   13   12 1    
    25   14   13 ar   
    26   19   13 ar   
    27   15   14 1    
    28   16   14 ar   
    29   27   15 1    
    30   28   15 1    
    31   17   16 ar   
    32   18   17 ar   
    33   29   17 1    
    34   19   18 ar   
@<TRIPOS>SUBSTRUCTURE
     1 ADN1215     1 GROUP   
@<TRIPOS>SET

