#    Name: 3pff_ADP_1_INTS_M
#    Modification time : Tue Mar 25 06:29:27 2014

@<TRIPOS>MOLECULE
3pff_ADP_1_INTS_M
   67     0    15     0     0
SMALL
NO_CHARGES


@<TRIPOS>ATOM
      1 NZ         30.7330   46.9510   57.7810 N.4       3 LYC4        0.0000 
      2 NZ         29.8210   48.0130   57.6390 N.4      13 LYL4        0.0000 
      3 NZ         32.8360   46.1000   57.3710 N.4       8 LYP4        0.0000 
      4 N          28.7560   47.3935   58.2905 N.am      2 SEC2        0.0000 
      5 N          29.8210   48.0130   57.6390 N.am     12 SEL2        0.0000 
      6 N          27.6910   46.7740   58.9420 N.am      7 SEP2        0.0000 
      7 N          30.7330   46.9510   57.7810 N.am      2 SEC2        0.0000 
      8 N          31.6450   45.8890   57.9230 N.am      7 SEP2        0.0000 
      9 Zn         30.6450   51.1925   56.9380 Zn        4 ZIC7        0.0000 
     10 Zn         29.9050   50.4660   57.2780 Zn       14 ZIL7        0.0000 
     11 Zn         31.3850   51.9190   56.5980 Zn        9 ZIP7        0.0000 
     12 N          28.5410   48.8375   60.4460 N.am      2 SEC2        0.0000 
     13 N          29.0050   49.6260   59.4680 N.am     12 SEL2        0.0000 
     14 N          28.0770   48.0490   61.4240 N.am      7 SEP2        0.0000 
     15 Zn         31.8230   51.7865   57.5365 Zn        4 ZIC7        0.0000 
     16 Zn         32.2610   51.6540   58.4750 Zn       14 ZIL7        0.0000 
     17 NZ         35.0465   49.0840   59.1380 N.4       3 LYC4        0.0000 
     18 NZ         33.8930   49.7340   59.0980 N.4      13 LYL4        0.0000 
     19 NZ         36.2000   48.4340   59.1780 N.4       8 LYP4        0.0000 
     20 N          35.0465   49.0840   59.1380 N.am      2 SEC2        0.0000 
     21 N          33.8930   49.7340   59.0980 N.am     12 SEL2        0.0000 
     22 N          36.2000   48.4340   59.1780 N.am      7 SEP2        0.0000 
     23 N          32.3095   48.2790   57.9695 N.am      2 SEC2        0.0000 
     24 N          31.4240   49.2350   58.9260 N.am     12 SEL2        0.0000 
     25 N          33.1950   47.3230   57.0130 N.am      7 SEP2        0.0000 
     26 CA         29.5290   50.0865   61.9200 C.3       5 GLC5        0.0000 
     27 CA         31.1600   51.3090   61.2310 C.3      15 GLL5        0.0000 
     28 CA         27.8980   48.8640   62.6090 C.3      10 GLP5        0.0000 
     29 CA         31.2335   49.2095   61.9255 C.3       5 GLC5        0.0000 
     30 CA         31.3070   47.1100   62.6200 C.3      10 GLP5        0.0000 
     31 CA         32.8995   54.2045   59.6905 C.3       5 GLC5        0.0000 
     32 CA         32.2710   53.5600   61.2700 C.3      15 GLL5        0.0000 
     33 CA         33.5280   54.8490   58.1110 C.3      10 GLP5        0.0000 
     34 CA         33.5845   55.1205   60.6055 C.3       5 GLC5        0.0000 
     35 CA         33.1970   54.2080   62.2740 C.3      15 GLL5        0.0000 
     36 CA         33.9720   56.0330   58.9370 C.3      10 GLP5        0.0000 
     37 CA         35.1770   54.6275   61.8035 C.3       5 GLC5        0.0000 
     38 CA         37.1570   55.0470   61.3330 C.3      10 GLP5        0.0000 
     39 O          32.8005   56.4525   62.6585 O.2       1 ALC1        0.0000 
     40 O          32.4900   55.2800   62.9000 O.2      11 ALL1        0.0000 
     41 O          33.1110   57.6250   62.4170 O.2       6 ALP1        0.0000 
     42 CA         39.7745   52.1200   65.2900 C.3       5 GLC5        0.0000 
     43 CA         38.3790   52.2280   63.6050 C.3      15 GLL5        0.0000 
     44 CA         41.1700   52.0120   66.9750 C.3      10 GLP5        0.0000 
     45 CA         40.1880   53.4675   63.4895 C.3       5 GLC5        0.0000 
     46 CA         41.9970   54.7070   63.3740 C.3      10 GLP5        0.0000 
     47 CA         38.2445   53.2645   62.0130 C.3       5 GLC5        0.0000 
     48 CA         38.1100   54.3010   60.4210 C.3      10 GLP5        0.0000 
     49 O          40.7395   51.3805   63.8080 O.2       1 ALC1        0.0000 
     50 O          39.3910   51.4590   63.1390 O.2      11 ALL1        0.0000 
     51 O          42.0880   51.3020   64.4770 O.2       6 ALP1        0.0000 
     52 N          39.7295   53.7050   65.2655 N.am      2 SEC2        0.0000 
     53 N          38.5900   53.1900   64.5260 N.am     12 SEL2        0.0000 
     54 N          40.8690   54.2200   66.0050 N.am      7 SEP2        0.0000 
     55 CA         37.8340   51.9030   65.3690 C.3       5 GLC5        0.0000 
     56 CA         37.5860   53.9560   64.9860 C.3      15 GLL5        0.0000 
     57 CA         38.0820   49.8500   65.7520 C.3      10 GLP5        0.0000 
     58 CA         39.4340   54.7630   65.3055 C.3       5 GLC5        0.0000 
     59 CA         41.2820   55.5700   65.6250 C.3      10 GLP5        0.0000 
     60 CA         37.3715   54.5015   63.1595 C.3       5 GLC5        0.0000 
     61 CA         29.9231   52.9211   61.2866 C.3       5 GLC5        0.0000 
     62 CA         31.5590   52.5000   62.0820 C.3      15 GLL5        0.0000 
     63 CA         28.0310   53.1100   61.1100 C.3      10 GLP5        0.0000 
     64 CA         36.8167   53.7572   62.3612 C.3       5 GLC5        0.0000 
     65 CA         36.9960   52.0320   63.1130 C.3      15 GLL5        0.0000 
     66 CA         37.4521   51.1833   64.6322 C.3       5 GLC5        0.0000 
     67 CA         35.9570   52.9030   63.6660 C.3      15 GLL5        0.0000 
@<TRIPOS>BOND
@<TRIPOS>SUBSTRUCTURE
     1 ALC1       39 GROUP        1 X    ALC  0     ROOT ALC X 1
     2 SEC2        4 GROUP        1 X    SEC  0     **** SEC X 2
     3 LYC4        1 GROUP        1 X    LYC  0     **** LYC X 4
     4 ZIC7        9 GROUP        1 X    ZIC  0     **** ZIC X 5
     5 GLC5       26 GROUP        1 X    GLC  0     **** GLC X 6
     6 ALP1       41 GROUP        1 Y    ALP  0     ROOT ALP Y 8
     7 SEP2        6 GROUP        1 Y    SEP  0     **** SEP Y 9
     8 LYP4        3 GROUP        1 Y    LYP  0     **** LYP Y 11
     9 ZIP7       11 GROUP        1 Y    ZIP  0     **** ZIP Y 12
    10 GLP5       28 GROUP        1 Y    GLP  0     **** GLP Y 13
    11 ALL1       40 GROUP        1 Z    ALL  0     ROOT ALL Z 15
    12 SEL2        5 GROUP        1 Z    SEL  0     **** SEL Z 16
    13 LYL4        2 GROUP        1 Z    LYL  0     **** LYL Z 18
    14 ZIL7       10 GROUP        1 Z    ZIL  0     **** ZIL Z 19
    15 GLL5       27 GROUP        1 Z    GLL  0     **** GLL Z 20
@<TRIPOS>SET

