#    Name: 3pff_ADP_1_ligand
#    Modification time : Tue Mar 25 06:29:27 2014

@<TRIPOS>MOLECULE
3pff_ADP_1_ligand
   39    41     1     0     0
SMALL
NO_CHARGES


@<TRIPOS>ATOM
      1 PB         29.9360   49.3660   58.2860 P.3       1 ADP833      0.0000 
      2 O1B        29.8210   48.0130   57.6390 O.co2     1 ADP833      0.0000 
      3 O2B        29.9050   50.4660   57.2780 O.co2     1 ADP833      0.0000 
      4 O3B        29.0050   49.6260   59.4680 O.co2     1 ADP833      0.0000 
      5 PA         32.5390   50.3790   59.2090 P.3       1 ADP833      0.0000 
      6 O1A        32.2610   51.6540   58.4750 O.co2     1 ADP833      0.0000 
      7 O2A        33.8930   49.7340   59.0980 O.co2     1 ADP833      0.0000 
      8 O3A        31.4240   49.2350   58.9260 O.3       1 ADP833      0.0000 
      9 O5'        32.3570   50.7090   60.7690 O.3       1 ADP833      0.0000 
     10 C5'        31.1600   51.3090   61.2310 C.3       1 ADP833      0.0000 
     11 C4'        31.5590   52.5000   62.0820 C.3       1 ADP833      0.0000 
     12 O4'        32.5000   52.0910   63.0800 O.3       1 ADP833      0.0000 
     13 C3'        32.2710   53.5600   61.2700 C.3       1 ADP833      0.0000 
     14 O3'        31.3820   54.5190   60.7040 O.3       1 ADP833      0.0000 
     15 C2'        33.1970   54.2080   62.2740 C.3       1 ADP833      0.0000 
     16 O2'        32.4900   55.2800   62.9000 O.3       1 ADP833      0.0000 
     17 C1'        33.4670   53.1240   63.3010 C.3       1 ADP833      0.0000 
     18 N9         34.8110   52.5380   63.0690 N.pl3     1 ADP833      0.0000 
     19 C8         35.0750   51.5240   62.2150 C.2       1 ADP833      0.0000 
     20 N7         36.3950   51.2080   62.2340 N.2       1 ADP833      0.0000 
     21 C5         36.9960   52.0320   63.1130 C.ar      1 ADP833      0.0000 
     22 C6         38.3790   52.2280   63.6050 C.ar      1 ADP833      0.0000 
     23 N6         39.3910   51.4590   63.1390 N.pl3     1 ADP833      0.0000 
     24 N1         38.5900   53.1900   64.5260 N.ar      1 ADP833      0.0000 
     25 C2         37.5860   53.9560   64.9860 C.ar      1 ADP833      0.0000 
     26 N3         36.3100   53.8310   64.5830 N.ar      1 ADP833      0.0000 
     27 C4         35.9570   52.9030   63.6660 C.ar      1 ADP833      0.0000 
     28 H          30.5739   50.6331   61.8499 H         1 ADP833      0.0000 
     29 H          30.5398   51.6707   60.4138 H         1 ADP833      0.0000 
     30 H          30.6927   52.9333   62.5298 H         1 ADP833      0.0000 
     31 H          32.8804   53.0655   60.5394 H         1 ADP833      0.0000 
     32 H          34.0816   54.4905   61.8114 H         1 ADP833      0.0000 
     33 H          33.3953   53.5290   64.2697 H         1 ADP833      0.0000 
     34 H          34.4067   51.0759   61.6568 H         1 ADP833      0.0000 
     35 H          40.2919   51.6276   63.5390 H         1 ADP833      0.0000 
     36 H          39.1479   50.7905   62.4361 H         1 ADP833      0.0000 
     37 H          37.8149   54.7057   65.7121 H         1 ADP833      0.0000 
     38 H          31.4004   55.2935   61.3363 H         1 ADP833      0.0000 
     39 H          33.1624   56.0143   62.9923 H         1 ADP833      0.0000 
@<TRIPOS>BOND
     1    2    1 ar   
     2    3    1 ar   
     3    4    1 ar   
     4    8    1 1    
     5    6    5 ar   
     6    7    5 ar   
     7    8    5 1    
     8    9    5 1    
     9   10    9 1    
    10   11   10 1    
    11   28   10 1    
    12   29   10 1    
    13   12   11 1    
    14   13   11 1    
    15   30   11 1    
    16   17   12 1    
    17   14   13 1    
    18   15   13 1    
    19   31   13 1    
    20   38   14 1    
    21   16   15 1    
    22   17   15 1    
    23   32   15 1    
    24   39   16 1    
    25   18   17 1    
    26   33   17 1    
    27   19   18 1    
    28   27   18 1    
    29   20   19 2    
    30   34   19 1    
    31   21   20 1    
    32   22   21 ar   
    33   27   21 ar   
    34   23   22 1    
    35   24   22 ar   
    36   35   23 1    
    37   36   23 1    
    38   25   24 ar   
    39   26   25 ar   
    40   37   25 1    
    41   27   26 ar   
@<TRIPOS>SUBSTRUCTURE
     1 ADP833      1 GROUP   
@<TRIPOS>SET

