#    Name: 4mih_FAD_6_INTS_M
#    Modification time : Tue Apr  8 00:21:53 2014

@<TRIPOS>MOLECULE
4mih_FAD_6_INTS_M
  126     0     9     0     0
SMALL
NO_CHARGES


@<TRIPOS>ATOM
      1 N          25.8465  -92.8465  -62.8875 N.am      2 SEC2        0.0000 
      2 N          26.9520  -93.9220  -62.9580 N.am      8 SEL2        0.0000 
      3 N          24.7410  -91.7710  -62.8170 N.am      5 SEP2        0.0000 
      4 CA         31.0710  -93.2740  -61.6290 C.3       3 GLC5        0.0000 
      5 CA         29.5640  -93.0550  -60.3270 C.3       9 GLL5        0.0000 
      6 CA         32.5780  -93.4930  -62.9310 C.3       6 GLP5        0.0000 
      7 CA         29.7155  -94.0140  -57.4190 C.3       3 GLC5        0.0000 
      8 CA         29.0690  -92.7010  -58.9400 C.3       9 GLL5        0.0000 
      9 CA         30.3620  -95.3270  -55.8980 C.3       6 GLP5        0.0000 
     10 CA         27.6050  -94.3355  -59.3465 C.3       3 GLC5        0.0000 
     11 CA         26.1410  -95.9700  -59.7530 C.3       6 GLP5        0.0000 
     12 O          27.1845  -92.1270  -56.7425 O.2       1 ALC1        0.0000 
     13 O          27.2330  -91.5390  -58.0810 O.2       7 ALL1        0.0000 
     14 O          27.1360  -92.7150  -55.4040 O.2       4 ALP1        0.0000 
     15 O          27.8360  -90.0890  -56.3870 O.2       1 ALC1        0.0000 
     16 O          28.6300  -89.6340  -57.2500 O.2       7 ALL1        0.0000 
     17 O          27.0420  -90.5440  -55.5240 O.2       4 ALP1        0.0000 
     18 CA         30.1970  -93.4145  -56.5795 C.3       3 GLC5        0.0000 
     19 CA         30.0320  -91.5020  -57.2610 C.3       9 GLL5        0.0000 
     20 CA         31.6230  -92.7260  -58.2330 C.3       3 GLC5        0.0000 
     21 CA         33.2140  -93.9500  -59.2050 C.3       6 GLP5        0.0000 
     22 CA         32.2275  -89.4740  -53.8285 C.3       3 GLC5        0.0000 
     23 CA         33.8470  -90.5830  -54.3840 C.3       9 GLL5        0.0000 
     24 CA         30.6080  -88.3650  -53.2730 C.3       6 GLP5        0.0000 
     25 CA         34.8235  -91.7405  -52.9415 C.3       3 GLC5        0.0000 
     26 CA         35.8000  -92.8980  -51.4990 C.3       6 GLP5        0.0000 
     27 CA         35.8825  -91.0580  -55.0435 C.3       3 GLC5        0.0000 
     28 CA         37.9180  -91.5330  -55.7030 C.3       6 GLP5        0.0000 
     29 O          36.1985  -90.3940  -53.4050 O.2       1 ALC1        0.0000 
     30 O          35.1070  -90.1270  -54.3880 O.2       7 ALL1        0.0000 
     31 O          37.2900  -90.6610  -52.4220 O.2       4 ALP1        0.0000 
     32 N          34.0490  -90.9320  -51.9780 N.am      2 SEC2        0.0000 
     33 N          33.2840  -91.0610  -53.2160 N.am      8 SEL2        0.0000 
     34 N          34.8140  -90.8030  -50.7400 N.am      5 SEP2        0.0000 
     35 CA         30.1225  -92.0675  -52.7190 C.3       3 GLC5        0.0000 
     36 CA         32.0050  -91.5740  -53.2270 C.3       9 GLL5        0.0000 
     37 CA         28.2400  -92.5610  -52.2110 C.3       6 GLP5        0.0000 
     38 CA         31.3065  -89.9695  -53.2500 C.3       3 GLC5        0.0000 
     39 CA         32.6785  -90.3110  -51.5960 C.3       3 GLC5        0.0000 
     40 CA         33.3520  -89.0480  -49.9650 C.3       6 GLP5        0.0000 
     41 CA         33.9025  -92.2360  -52.3630 C.3       3 GLC5        0.0000 
     42 CA         33.0480  -92.5800  -54.9110 C.3       3 GLC5        0.0000 
     43 CA         34.0910  -93.5860  -56.5950 C.3       6 GLP5        0.0000 
     44 N          30.2410  -90.9895  -53.5475 N.am      2 SEC2        0.0000 
     45 N          31.2760  -91.6100  -54.4030 N.am      8 SEL2        0.0000 
     46 N          29.2060  -90.3690  -52.6920 N.am      5 SEP2        0.0000 
     47 CA         31.0915  -93.2365  -55.7240 C.3       3 GLC5        0.0000 
     48 CA         31.8210  -91.1460  -55.5500 C.3       9 GLL5        0.0000 
     49 N          25.3230  -96.2860  -70.2605 N.am      2 SEC2        0.0000 
     50 N          24.8190  -95.2120  -71.0920 N.am      8 SEL2        0.0000 
     51 N          25.8270  -97.3600  -69.4290 N.am      5 SEP2        0.0000 
     52 N          26.1815  -98.1200  -71.5370 N.am      2 SEC2        0.0000 
     53 N          24.9460  -97.2220  -72.0260 N.am      8 SEL2        0.0000 
     54 N          27.4170  -99.0180  -71.0480 N.am      5 SEP2        0.0000 
     55 N          25.3865  -97.2910  -70.7275 N.am      2 SEC2        0.0000 
     56 O          22.7845  -97.1365  -73.1730 O.2       1 ALC1        0.0000 
     57 O          23.1890  -95.9830  -72.6790 O.2       7 ALL1        0.0000 
     58 O          22.3800  -98.2900  -73.6670 O.2       4 ALP1        0.0000 
     59 N          20.6740  -95.7495  -73.2905 N.am      2 SEC2        0.0000 
     60 N          21.4780  -94.6170  -73.2300 N.am      8 SEL2        0.0000 
     61 N          19.8700  -96.8820  -73.3510 N.am      5 SEP2        0.0000 
     62 N          20.8255  -92.4910  -71.2330 N.am      2 SEC2        0.0000 
     63 N          22.3010  -92.6170  -71.5890 N.am      8 SEL2        0.0000 
     64 N          19.3500  -92.3650  -70.8770 N.am      5 SEP2        0.0000 
     65 CA         20.6235  -91.4010  -71.9830 C.3       3 GLC5        0.0000 
     66 CA         22.1020  -90.4420  -70.6300 C.3       9 GLL5        0.0000 
     67 CA         19.1450  -92.3600  -73.3360 C.3       6 GLP5        0.0000 
     68 CA         21.3550  -86.3205  -69.2565 C.3       3 GLC5        0.0000 
     69 CA         21.8130  -88.1690  -69.6520 C.3       9 GLL5        0.0000 
     70 CA         20.8970  -84.4720  -68.8610 C.3       6 GLP5        0.0000 
     71 CA         21.9825  -86.6375  -71.2065 C.3       3 GLC5        0.0000 
     72 CA         22.1520  -85.1060  -72.7610 C.3       6 GLP5        0.0000 
     73 CA         24.8910  -86.8580  -67.3850 C.3       3 GLC5        0.0000 
     74 CA         24.2750  -88.6400  -68.0750 C.3       9 GLL5        0.0000 
     75 CA         25.5070  -85.0760  -66.6950 C.3       6 GLP5        0.0000 
     76 CA         25.7880  -89.5000  -67.1995 C.3       3 GLC5        0.0000 
     77 CA         27.3010  -90.3600  -66.3240 C.3       6 GLP5        0.0000 
     78 CA         26.5960  -91.8615  -67.8370 C.3       3 GLC5        0.0000 
     79 CA         25.8910  -93.3630  -69.3500 C.3       9 GLL5        0.0000 
     80 CA         25.3170  -92.7430  -66.6790 C.3       3 GLC5        0.0000 
     81 CA         25.6380  -94.3100  -68.1870 C.3       9 GLL5        0.0000 
     82 CA         24.9960  -91.1760  -65.1710 C.3       6 GLP5        0.0000 
     83 CA         23.7675  -95.3025  -68.7720 C.3       3 GLC5        0.0000 
     84 CA         21.8970  -96.2950  -69.3570 C.3       6 GLP5        0.0000 
     85 CA         27.1210  -92.4625  -66.9155 C.3       3 GLC5        0.0000 
     86 CA         26.9410  -94.5650  -67.5070 C.3       9 GLL5        0.0000 
     87 N          29.1230  -95.3100  -68.5955 N.am      2 SEC2        0.0000 
     88 N          27.7600  -95.2890  -68.3930 N.am      8 SEL2        0.0000 
     89 N          30.4860  -95.3310  -68.7980 N.am      5 SEP2        0.0000 
     90 O          26.7935  -96.3245  -68.9110 O.2       1 ALC1        0.0000 
     91 O          27.7600  -95.2890  -68.3930 O.2       7 ALL1        0.0000 
     92 O          25.8270  -97.3600  -69.4290 O.2       4 ALP1        0.0000 
     93 CA         25.6580  -96.4760  -64.8470 C.3       3 GLC5        0.0000 
     94 CA         26.7230  -95.3800  -66.2510 C.3       9 GLL5        0.0000 
     95 CA         24.5930  -97.5720  -63.4430 C.3       6 GLP5        0.0000 
     96 CA         25.9750  -97.2545  -67.0990 C.3       3 GLC5        0.0000 
     97 CA         25.2270  -99.1290  -67.9470 C.3       6 GLP5        0.0000 
     98 CA         26.8320  -96.3265  -64.1060 C.3       3 GLC5        0.0000 
     99 CA         28.1000  -95.7180  -65.6810 C.3       9 GLL5        0.0000 
    100 CA         25.5640  -96.9350  -62.5310 C.3       6 GLP5        0.0000 
    101 N          27.9745  -98.3405  -61.9270 N.am      2 SEC2        0.0000 
    102 N          28.6950  -96.8990  -62.0800 N.am      8 SEL2        0.0000 
    103 N          27.2540  -99.7820  -61.7740 N.am      5 SEP2        0.0000 
    104 N          28.9660  -97.0175  -60.7105 N.am      2 SEC2        0.0000 
    105 N          29.2370  -97.1360  -59.3410 N.am      5 SEP2        0.0000 
    106 CA         31.2653  -93.4140  -59.4192 C.3       3 GLC5        0.0000 
    107 CA         26.8793  -92.1287  -59.6928 C.3       3 GLC5        0.0000 
    108 CA         25.0390  -92.2310  -60.4730 C.3       6 GLP5        0.0000 
    109 CA         27.7198  -89.2002  -58.3148 C.3       3 GLC5        0.0000 
    110 CA         28.3700  -91.3520  -58.8850 C.3       9 GLL5        0.0000 
    111 CA         26.5890  -87.4870  -58.1270 C.3       6 GLP5        0.0000 
    112 CA         29.9017  -89.5032  -56.1842 C.3       3 GLC5        0.0000 
    113 CA         29.3310  -90.4750  -58.1200 C.3       9 GLL5        0.0000 
    114 CA         30.1220  -88.0180  -54.6780 C.3       6 GLP5        0.0000 
    115 CA         31.2897  -89.4518  -55.1160 C.3       3 GLC5        0.0000 
    116 CA         33.3684  -92.2305  -55.9278 C.3       3 GLC5        0.0000 
    117 CA         33.0940  -90.6250  -55.5580 C.3       9 GLL5        0.0000 
    118 CA         24.5385  -90.7293  -67.1260 C.3       3 GLC5        0.0000 
    119 CA         23.7360  -89.6800  -69.0170 C.3       9 GLL5        0.0000 
    120 CA         21.5115  -90.7231  -69.0405 C.3       3 GLC5        0.0000 
    121 CA         20.1180  -92.0760  -68.6110 C.3       6 GLP5        0.0000 
    122 CA         22.5194  -92.2703  -69.0989 C.3       3 GLC5        0.0000 
    123 CA         24.4260  -90.8850  -69.1450 C.3       9 GLL5        0.0000 
    124 CA         21.1410  -93.2200  -68.4370 C.3       6 GLP5        0.0000 
    125 CA         25.4679  -88.7283  -69.4537 C.3       3 GLC5        0.0000 
    126 CA         26.7200  -87.4340  -70.0620 C.3       6 GLP5        0.0000 
@<TRIPOS>BOND
@<TRIPOS>SUBSTRUCTURE
     1 ALC1       12 GROUP        1 X    ALC  0     ROOT ALC X 1
     2 SEC2        1 GROUP        1 X    SEC  0     **** SEC X 2
     3 GLC5        4 GROUP        1 X    GLC  0     **** GLC X 6
     4 ALP1       14 GROUP        1 Y    ALP  0     ROOT ALP Y 8
     5 SEP2        3 GROUP        1 Y    SEP  0     **** SEP Y 9
     6 GLP5        6 GROUP        1 Y    GLP  0     **** GLP Y 13
     7 ALL1       13 GROUP        1 Z    ALL  0     ROOT ALL Z 15
     8 SEL2        2 GROUP        1 Z    SEL  0     **** SEL Z 16
     9 GLL5        5 GROUP        1 Z    GLL  0     **** GLL Z 20
@<TRIPOS>SET

