#    Name: 4mih_FAD_6_ligand
#    Modification time : Tue Apr  8 00:21:53 2014

@<TRIPOS>MOLECULE
4mih_FAD_6_ligand
   84    89     1     0     0
SMALL
NO_CHARGES


@<TRIPOS>ATOM
      1 PA         28.3880  -93.6140  -62.5670 P.3       1 FAD801      0.0000 
      2 O1A        28.8520  -92.2880  -63.0840 O.co2     1 FAD801      0.0000 
      3 O2A        26.9520  -93.9220  -62.9580 O.co2     1 FAD801      0.0000 
      4 O5B        28.4860  -93.6620  -60.9770 O.3       1 FAD801      0.0000 
      5 C5B        29.5640  -93.0550  -60.3270 C.3       1 FAD801      0.0000 
      6 C4B        29.0690  -92.7010  -58.9400 C.3       1 FAD801      0.0000 
      7 O4B        30.1690  -92.6350  -58.0660 O.3       1 FAD801      0.0000 
      8 C3B        28.3700  -91.3520  -58.8850 C.3       1 FAD801      0.0000 
      9 O3B        27.2330  -91.5390  -58.0810 O.3       1 FAD801      0.0000 
     10 C2B        29.3310  -90.4750  -58.1200 C.3       1 FAD801      0.0000 
     11 O2B        28.6300  -89.6340  -57.2500 O.3       1 FAD801      0.0000 
     12 C1B        30.0320  -91.5020  -57.2610 C.3       1 FAD801      0.0000 
     13 N9A        31.3470  -91.0600  -56.8310 N.pl3     1 FAD801      0.0000 
     14 C8A        32.3040  -90.5180  -57.6230 C.2       1 FAD801      0.0000 
     15 N7A        33.3610  -90.2590  -56.8300 N.2       1 FAD801      0.0000 
     16 C5A        33.0940  -90.6250  -55.5580 C.ar      1 FAD801      0.0000 
     17 C6A        33.8470  -90.5830  -54.3840 C.ar      1 FAD801      0.0000 
     18 N6A        35.1070  -90.1270  -54.3880 N.pl3     1 FAD801      0.0000 
     19 N1A        33.2840  -91.0610  -53.2160 N.ar      1 FAD801      0.0000 
     20 C2A        32.0050  -91.5740  -53.2270 C.ar      1 FAD801      0.0000 
     21 N3A        31.2760  -91.6100  -54.4030 N.ar      1 FAD801      0.0000 
     22 C4A        31.8210  -91.1460  -55.5500 C.ar      1 FAD801      0.0000 
     23 N1         24.8190  -95.2120  -71.0920 N.2       1 FAD801      0.0000 
     24 C2         24.3380  -96.1800  -71.9400 C.2       1 FAD801      0.0000 
     25 O2         24.9460  -97.2220  -72.0260 O.2       1 FAD801      0.0000 
     26 N3         23.1890  -95.9830  -72.6790 N.am      1 FAD801      0.0000 
     27 C4         22.4990  -94.7950  -72.5710 C.2       1 FAD801      0.0000 
     28 O4         21.4780  -94.6170  -73.2300 O.2       1 FAD801      0.0000 
     29 C4X        22.9760  -93.8090  -71.7120 C.2       1 FAD801      0.0000 
     30 N5         22.3010  -92.6170  -71.5890 N.2       1 FAD801      0.0000 
     31 C5X        22.7880  -91.6410  -70.7500 C.ar      1 FAD801      0.0000 
     32 C6         22.1020  -90.4420  -70.6300 C.ar      1 FAD801      0.0000 
     33 C7         22.5680  -89.4620  -69.7580 C.ar      1 FAD801      0.0000 
     34 C7M        21.8130  -88.1690  -69.6520 C.3       1 FAD801      0.0000 
     35 C8         23.7360  -89.6800  -69.0170 C.ar      1 FAD801      0.0000 
     36 C8M        24.2750  -88.6400  -68.0750 C.3       1 FAD801      0.0000 
     37 C9         24.4260  -90.8850  -69.1450 C.ar      1 FAD801      0.0000 
     38 C9A        23.9510  -91.8710  -70.0030 C.ar      1 FAD801      0.0000 
     39 N10        24.6270  -93.0770  -70.1160 N.pl3     1 FAD801      0.0000 
     40 C10        24.1410  -94.0280  -70.9760 C.2       1 FAD801      0.0000 
     41 C1'        25.8910  -93.3630  -69.3500 C.3       1 FAD801      0.0000 
     42 C2'        25.6380  -94.3100  -68.1870 C.3       1 FAD801      0.0000 
     43 O2'        24.7980  -93.7590  -67.2130 O.3       1 FAD801      0.0000 
     44 C3'        26.9410  -94.5650  -67.5070 C.3       1 FAD801      0.0000 
     45 O3'        27.7600  -95.2890  -68.3930 O.3       1 FAD801      0.0000 
     46 C4'        26.7230  -95.3800  -66.2510 C.3       1 FAD801      0.0000 
     47 O4'        25.9050  -94.6680  -65.3260 O.3       1 FAD801      0.0000 
     48 C5'        28.1000  -95.7180  -65.6810 C.3       1 FAD801      0.0000 
     49 O5'        27.9160  -96.2230  -64.3870 O.3       1 FAD801      0.0000 
     50 P          29.1310  -96.2350  -63.3630 P.3       1 FAD801      0.0000 
     51 O1P        28.6950  -96.8990  -62.0800 O.co2     1 FAD801      0.0000 
     52 O2P        30.3170  -96.9070  -64.0080 O.co2     1 FAD801      0.0000 
     53 O3P        29.4640  -94.6800  -63.1030 O.3       1 FAD801      0.0000 
     54 H          29.8839  -92.1372  -60.8123 H         1 FAD801      0.0000 
     55 H          30.4167  -93.7194  -60.2183 H         1 FAD801      0.0000 
     56 H          28.3682  -93.4577  -58.6160 H         1 FAD801      0.0000 
     57 H          28.2031  -90.9949  -59.8222 H         1 FAD801      0.0000 
     58 H          30.0025  -90.0336  -58.7512 H         1 FAD801      0.0000 
     59 H          29.4022  -91.7102  -56.4127 H         1 FAD801      0.0000 
     60 H          32.2367  -90.3539  -58.5605 H         1 FAD801      0.0000 
     61 H          35.3073  -89.3929  -55.0369 H         1 FAD801      0.0000 
     62 H          35.7342  -90.5616  -53.7417 H         1 FAD801      0.0000 
     63 H          31.5854  -91.9345  -52.3536 H         1 FAD801      0.0000 
     64 H          22.8484  -96.7237  -73.3103 H         1 FAD801      0.0000 
     65 H          21.2518  -90.2749  -71.1821 H         1 FAD801      0.0000 
     66 H          25.2857  -91.0429  -68.6044 H         1 FAD801      0.0000 
     67 H          26.3062  -92.4264  -68.9630 H         1 FAD801      0.0000 
     68 H          26.6330  -93.8110  -70.0194 H         1 FAD801      0.0000 
     69 H          25.2713  -95.2405  -68.5677 H         1 FAD801      0.0000 
     70 H          27.3848  -93.6263  -67.2357 H         1 FAD801      0.0000 
     71 H          26.2588  -96.3188  -66.5528 H         1 FAD801      0.0000 
     72 H          28.6945  -94.8024  -65.6945 H         1 FAD801      0.0000 
     73 H          28.5646  -96.4423  -66.3530 H         1 FAD801      0.0000 
     74 H          22.2396  -87.5422  -68.9999 H         1 FAD801      0.0000 
     75 H          21.7676  -87.6924  -70.5299 H         1 FAD801      0.0000 
     76 H          20.8714  -88.3126  -69.3475 H         1 FAD801      0.0000 
     77 H          25.1132  -88.9463  -67.6238 H         1 FAD801      0.0000 
     78 H          24.4923  -87.7866  -68.5489 H         1 FAD801      0.0000 
     79 H          23.6190  -88.4162  -67.3541 H         1 FAD801      0.0000 
     80 H          27.5628  -92.0358  -57.2782 H         1 FAD801      0.0000 
     81 H          27.7939  -90.1341  -57.0244 H         1 FAD801      0.0000 
     82 H          25.3691  -93.6747  -66.3965 H         1 FAD801      0.0000 
     83 H          27.3839  -96.2156  -68.3942 H         1 FAD801      0.0000 
     84 H          26.4938  -94.5010  -64.5352 H         1 FAD801      0.0000 
@<TRIPOS>BOND
     1    2    1 ar   
     2    3    1 ar   
     3    4    1 1    
     4   53    1 1    
     5    5    4 1    
     6    6    5 1    
     7   54    5 1    
     8   55    5 1    
     9    7    6 1    
    10    8    6 1    
    11   56    6 1    
    12   12    7 1    
    13    9    8 1    
    14   10    8 1    
    15   57    8 1    
    16   80    9 1    
    17   11   10 1    
    18   12   10 1    
    19   58   10 1    
    20   81   11 1    
    21   13   12 1    
    22   59   12 1    
    23   14   13 1    
    24   22   13 1    
    25   15   14 2    
    26   60   14 1    
    27   16   15 1    
    28   17   16 ar   
    29   22   16 ar   
    30   18   17 1    
    31   19   17 ar   
    32   61   18 1    
    33   62   18 1    
    34   20   19 ar   
    35   21   20 ar   
    36   63   20 1    
    37   22   21 ar   
    38   24   23 1    
    39   40   23 2    
    40   25   24 2    
    41   26   24 am   
    42   27   26 am   
    43   64   26 1    
    44   28   27 2    
    45   29   27 1    
    46   30   29 2    
    47   40   29 1    
    48   31   30 1    
    49   32   31 ar   
    50   38   31 ar   
    51   33   32 ar   
    52   65   32 1    
    53   34   33 1    
    54   35   33 ar   
    55   74   34 1    
    56   75   34 1    
    57   76   34 1    
    58   36   35 1    
    59   37   35 ar   
    60   77   36 1    
    61   78   36 1    
    62   79   36 1    
    63   38   37 ar   
    64   66   37 1    
    65   39   38 1    
    66   40   39 1    
    67   41   39 1    
    68   42   41 1    
    69   67   41 1    
    70   68   41 1    
    71   43   42 1    
    72   44   42 1    
    73   69   42 1    
    74   82   43 1    
    75   45   44 1    
    76   46   44 1    
    77   70   44 1    
    78   83   45 1    
    79   47   46 1    
    80   48   46 1    
    81   71   46 1    
    82   84   47 1    
    83   49   48 1    
    84   72   48 1    
    85   73   48 1    
    86   50   49 1    
    87   51   50 ar   
    88   52   50 ar   
    89   53   50 1    
@<TRIPOS>SUBSTRUCTURE
     1 FAD801      1 GROUP   
@<TRIPOS>SET

