#    Name: 4a2j_AS0_1_INTS_M
#    Modification time : Tue Mar 25 04:52:50 2014

@<TRIPOS>MOLECULE
4a2j_AS0_1_INTS_M
   92     0     9     0     0
SMALL
NO_CHARGES


@<TRIPOS>ATOM
      1 CA          9.8420    8.4100   13.0235 C.3       3 GLC5        0.0000 
      2 CA         11.4770    7.7430   12.6160 C.3       9 GLL5        0.0000 
      3 CA          8.2070    9.0770   13.4310 C.3       6 GLP5        0.0000 
      4 CA         11.1595    9.0495   11.0685 C.3       3 GLC5        0.0000 
      5 CA         10.8420   10.3560    9.5210 C.3       6 GLP5        0.0000 
      6 CA         12.4110    8.9790   13.3585 C.3       3 GLC5        0.0000 
      7 CA         13.3450   10.2150   14.1010 C.3       6 GLP5        0.0000 
      8 CA         12.7395    6.8465   13.1855 C.3       3 GLC5        0.0000 
      9 CA         14.0020    5.9500   13.7550 C.3       6 GLP5        0.0000 
     10 CA         10.9900    6.6640   14.2085 C.3       3 GLC5        0.0000 
     11 CA         10.5030    5.5850   15.8010 C.3       6 GLP5        0.0000 
     12 CA          9.1910    7.5360   12.5320 C.3       3 GLC5        0.0000 
     13 CA         10.1750    5.9950   11.6330 C.3       9 GLL5        0.0000 
     14 CA         12.0885    5.9725   12.6940 C.3       3 GLC5        0.0000 
     15 CA         10.3390    5.7900   13.7170 C.3       3 GLC5        0.0000 
     16 CA         10.5520    2.0940   11.9165 C.3       3 GLC5        0.0000 
     17 CA         11.6660    3.9490   11.6380 C.3       9 GLL5        0.0000 
     18 CA          9.4380    0.2390   12.1950 C.3       6 GLP5        0.0000 
     19 CA         13.9685    2.2945   10.9500 C.3       3 GLC5        0.0000 
     20 CA         12.6360    3.8950   10.4360 C.3       9 GLL5        0.0000 
     21 CA         15.3010    0.6940   11.4640 C.3       6 GLP5        0.0000 
     22 CA         16.1165    3.9305    5.5870 C.3       3 GLC5        0.0000 
     23 CA         14.3320    4.6720    6.3800 C.3       9 GLL5        0.0000 
     24 CA         17.9010    3.1890    4.7940 C.3       6 GLP5        0.0000 
     25 CA         16.1045    6.6610    4.1150 C.3       3 GLC5        0.0000 
     26 CA         14.0870    6.2590    4.5030 C.3       9 GLL5        0.0000 
     27 CA         18.1220    7.0630    3.7270 C.3       6 GLP5        0.0000 
     28 CA         14.2975    8.1480    5.1755 C.3       3 GLC5        0.0000 
     29 CA         14.5080   10.0370    5.8480 C.3       6 GLP5        0.0000 
     30 N          13.1605    8.0530    1.6095 N.am      2 SEC2        0.0000 
     31 N          13.9370    7.8740    2.9080 N.am      8 SEL2        0.0000 
     32 N          12.3840    8.2320    0.3110 N.am      5 SEP2        0.0000 
     33 CA         11.3770    9.1350    3.2310 C.3       3 GLC5        0.0000 
     34 CA         11.9100    7.4810    3.9900 C.3       9 GLL5        0.0000 
     35 CA         10.8440   10.7890    2.4720 C.3       6 GLP5        0.0000 
     36 CA         13.2090    8.7590    4.9190 C.3       3 GLC5        0.0000 
     37 CA          9.9565    1.3135    7.8135 C.3       3 GLC5        0.0000 
     38 CA         10.0910    2.9460    9.2420 C.3       9 GLL5        0.0000 
     39 CA          9.8220   -0.3190    6.3850 C.3       6 GLP5        0.0000 
     40 CA         11.0155    1.3365    9.2445 C.3       3 GLC5        0.0000 
     41 CA         11.9400   -0.2730    9.2470 C.3       6 GLP5        0.0000 
     42 CA          9.0615    1.5150   10.1725 C.3       3 GLC5        0.0000 
     43 CA          8.0320    0.0840   11.1030 C.3       6 GLP5        0.0000 
     44 CA          7.9955    2.8285    8.9350 C.3       3 GLC5        0.0000 
     45 CA          5.9000    2.7110    8.6280 C.3       6 GLP5        0.0000 
     46 CA          6.1600    1.9645    5.6730 C.3       3 GLC5        0.0000 
     47 CA          7.7730    2.6530    4.6490 C.3       9 GLL5        0.0000 
     48 CA          4.5470    1.2760    6.6970 C.3       6 GLP5        0.0000 
     49 O           3.9570    1.7080    2.4005 O.2       1 ALC1        0.0000 
     50 O           5.0410    1.2400    2.6110 O.2       7 ALL1        0.0000 
     51 O           2.8730    2.1760    2.1900 O.2       4 ALP1        0.0000 
     52 CA          8.5005    2.4865   12.5945 C.3       3 GLC5        0.0000 
     53 CA          7.9400    4.1880   11.6140 C.3       9 GLL5        0.0000 
     54 CA          9.0610    0.7850   13.5750 C.3       6 GLP5        0.0000 
     55 CA          7.1530    4.0290   13.6935 C.3       3 GLC5        0.0000 
     56 CA          6.3660    3.8700   15.7730 C.3       6 GLP5        0.0000 
     57 CA          5.9825    3.4715   11.5895 C.3       3 GLC5        0.0000 
     58 CA          4.0250    2.7550   11.5650 C.3       6 GLP5        0.0000 
     59 CA          6.9200    3.4495   10.1210 C.3       3 GLC5        0.0000 
     60 CA         10.9828    4.2840   13.4322 C.3       3 GLC5        0.0000 
     61 CA         10.3310    4.5530   11.1230 C.3       9 GLL5        0.0000 
     62 CA         10.9670    4.3170   15.4840 C.3       6 GLP5        0.0000 
     63 CA         13.0765    4.9360   12.3960 C.3       3 GLC5        0.0000 
     64 CA         12.7300    2.4390    9.0617 C.3       3 GLC5        0.0000 
     65 CA         13.1710    0.5630    8.2270 C.3       6 GLP5        0.0000 
     66 CA         13.1427    2.5925    8.0505 C.3       3 GLC5        0.0000 
     67 CA         12.3880    4.4200    7.9320 C.3       9 GLL5        0.0000 
     68 CA         15.3208    5.5760    8.3690 C.3       3 GLC5        0.0000 
     69 CA         13.8410    4.8240    7.8160 C.3       9 GLL5        0.0000 
     70 CA         16.5550    6.4040    9.6400 C.3       6 GLP5        0.0000 
     71 CA         13.9648    4.1486    3.9431 C.3       3 GLC5        0.0000 
     72 CA         13.9280    2.6020    2.6590 C.3       6 GLP5        0.0000 
     73 CA         11.3918    8.4775    5.7225 C.3       3 GLC5        0.0000 
     74 CA         11.1830    6.3870    4.7660 C.3       9 GLL5        0.0000 
     75 CA         11.2370   10.0210    7.0670 C.3       6 GLP5        0.0000 
     76 CA          9.8528    6.2355    3.5605 C.3       3 GLC5        0.0000 
     77 CA          8.1590    5.5370    2.7430 C.3       6 GLP5        0.0000 
     78 CA          9.4010    7.4447    7.9915 C.3       3 GLC5        0.0000 
     79 CA         10.0350    5.3200    7.2090 C.3       9 GLL5        0.0000 
     80 CA          8.9740    9.5720    8.0320 C.3       6 GLP5        0.0000 
     81 CA          8.8712    4.6947    4.3355 C.3       3 GLC5        0.0000 
     82 CA          9.2730    4.3400    6.3200 C.3       9 GLL5        0.0000 
     83 CA          8.3138    4.0635    3.7090 C.3       3 GLC5        0.0000 
     84 CA          9.1640    2.5270    4.7010 C.3       9 GLL5        0.0000 
     85 CA         10.0185    2.6593    3.4704 C.3       3 GLC5        0.0000 
     86 CA         11.3860    2.5190    2.0570 C.3       6 GLP5        0.0000 
     87 CA          6.4648    5.6275    6.1065 C.3       3 GLC5        0.0000 
     88 CA          7.1360    3.6490    5.4220 C.3       9 GLL5        0.0000 
     89 CA          5.4130    7.1910    6.3810 C.3       6 GLP5        0.0000 
     90 CA          7.8378    4.8005    4.2875 C.3       3 GLC5        0.0000 
     91 CA          7.8970    4.4790    6.2420 C.3       9 GLL5        0.0000 
     92 CA          6.8803    3.3701    7.2398 C.3       3 GLC5        0.0000 
@<TRIPOS>BOND
@<TRIPOS>SUBSTRUCTURE
     1 ALC1       49 GROUP        1 X    ALC  0     ROOT ALC X 1
     2 SEC2       30 GROUP        1 X    SEC  0     **** SEC X 2
     3 GLC5        1 GROUP        1 X    GLC  0     **** GLC X 6
     4 ALP1       51 GROUP        1 Y    ALP  0     ROOT ALP Y 8
     5 SEP2       32 GROUP        1 Y    SEP  0     **** SEP Y 9
     6 GLP5        3 GROUP        1 Y    GLP  0     **** GLP Y 13
     7 ALL1       50 GROUP        1 Z    ALL  0     ROOT ALL Z 15
     8 SEL2       31 GROUP        1 Z    SEL  0     **** SEL Z 16
     9 GLL5        2 GROUP        1 Z    GLL  0     **** GLL Z 20
@<TRIPOS>SET

