#    Name: 4a2j_AS0_1_ligand
#    Modification time : Tue Mar 25 04:52:50 2014

@<TRIPOS>MOLECULE
4a2j_AS0_1_ligand
   68    72     1     0     0
SMALL
NO_CHARGES


@<TRIPOS>ATOM
      1 C1         11.4770    7.7430   12.6160 C.3       1 AS01000     0.0000 
      2 C3         10.1750    5.9950   11.6330 C.3       1 AS01000     0.0000 
      3 C4         10.3310    4.5530   11.1230 C.3       1 AS01000     0.0000 
      4 C5         11.6660    3.9490   11.6380 C.3       1 AS01000     0.0000 
      5 C6         12.6360    3.8950   10.4360 C.3       1 AS01000     0.0000 
      6 O2         11.4270    6.6940   11.6380 O.3       1 AS01000     0.0000 
      7 C7         11.9420    4.7350    9.3570 C.3       1 AS01000     0.0000 
      8 C8         12.3880    4.4200    7.9320 C.3       1 AS01000     0.0000 
      9 C9         13.8410    4.8240    7.8160 C.3       1 AS01000     0.0000 
     10 C10        14.3320    4.6720    6.3800 C.3       1 AS01000     0.0000 
     11 C11        13.5000    5.5910    5.5230 C.2       1 AS01000     0.0000 
     12 C12        14.0870    6.2590    4.5030 C.2       1 AS01000     0.0000 
     13 C13        13.3700    7.2050    3.7550 C.2       1 AS01000     0.0000 
     14 O14        13.9370    7.8740    2.9080 O.2       1 AS01000     0.0000 
     15 C15        11.9100    7.4810    3.9900 C.3       1 AS01000     0.0000 
     16 C16        11.1830    6.3870    4.7660 C.3       1 AS01000     0.0000 
     17 C17        12.0590    5.7200    5.8240 C.2       1 AS01000     0.0000 
     18 C18        11.5310    5.1830    6.9500 C.2       1 AS01000     0.0000 
     19 C19        10.0350    5.3200    7.2090 C.3       1 AS01000     0.0000 
     20 C20         9.6210    5.3150    8.6930 C.3       1 AS01000     0.0000 
     21 C21        10.4420    4.3930    9.5920 C.3       1 AS01000     0.0000 
     22 C22        10.0910    2.9460    9.2420 C.3       1 AS01000     0.0000 
     23 C23         9.2730    4.3400    6.3200 C.ar      1 AS01000     0.0000 
     24 C24         9.8940    3.3650    5.5360 C.ar      1 AS01000     0.0000 
     25 C25         9.1640    2.5270    4.7010 C.ar      1 AS01000     0.0000 
     26 C26         7.7730    2.6530    4.6490 C.ar      1 AS01000     0.0000 
     27 C27         7.0010    1.7940    3.7300 C.2       1 AS01000     0.0000 
     28 N28         5.7450    2.0500    3.5290 N.2       1 AS01000     0.0000 
     29 O29         5.0410    1.2400    2.6110 O.3       1 AS01000     0.0000 
     30 C30         7.1360    3.6490    5.4220 C.ar      1 AS01000     0.0000 
     31 C31         7.8970    4.4790    6.2420 C.ar      1 AS01000     0.0000 
     32 O32         9.3060    3.7530   11.7210 O.3       1 AS01000     0.0000 
     33 C33         7.9400    4.1880   11.6140 C.3       1 AS01000     0.0000 
     34 H           9.7365    5.9422   12.6433 H         1 AS01000     0.0000 
     35 H           9.4344    6.4952   10.9872 H         1 AS01000     0.0000 
     36 H          11.4885    2.9588   11.9989 H         1 AS01000     0.0000 
     37 H          12.0709    4.5846   12.3959 H         1 AS01000     0.0000 
     38 H          12.7332    2.8933   10.1065 H         1 AS01000     0.0000 
     39 H          13.5566    4.3435   10.7058 H         1 AS01000     0.0000 
     40 H          12.0723    5.7655    9.5941 H         1 AS01000     0.0000 
     41 H          12.2949    3.3711    7.7680 H         1 AS01000     0.0000 
     42 H          14.4483    4.1961    8.4688 H         1 AS01000     0.0000 
     43 H          13.9572    5.8635    8.1244 H         1 AS01000     0.0000 
     44 H          14.1987    3.6514    6.0642 H         1 AS01000     0.0000 
     45 H          15.3692    4.9557    6.3264 H         1 AS01000     0.0000 
     46 H          15.0801    6.0848    4.2534 H         1 AS01000     0.0000 
     47 H          11.4012    7.6202    3.0175 H         1 AS01000     0.0000 
     48 H          11.8002    8.4348    4.5397 H         1 AS01000     0.0000 
     49 H          10.8284    5.6223    4.0611 H         1 AS01000     0.0000 
     50 H          10.2993    6.8204    5.2545 H         1 AS01000     0.0000 
     51 H           9.7593    6.3551    6.8084 H         1 AS01000     0.0000 
     52 H           8.5551    5.0263    8.7585 H         1 AS01000     0.0000 
     53 H           9.6895    6.3493    9.0795 H         1 AS01000     0.0000 
     54 H          10.9272    3.2659    5.5800 H         1 AS01000     0.0000 
     55 H           9.6372    1.8236    4.1286 H         1 AS01000     0.0000 
     56 H           7.5248    1.0247    3.2953 H         1 AS01000     0.0000 
     57 H           6.1201    3.7533    5.3737 H         1 AS01000     0.0000 
     58 H           7.4229    5.2112    6.8013 H         1 AS01000     0.0000 
     59 H          12.3553    8.2209   12.6035 H         1 AS01000     0.0000 
     60 H          10.7673    8.4300   12.4603 H         1 AS01000     0.0000 
     61 H          11.3472    7.3925   13.5435 H         1 AS01000     0.0000 
     62 H          10.1408    2.7795    8.2572 H         1 AS01000     0.0000 
     63 H          10.7121    2.2966    9.6808 H         1 AS01000     0.0000 
     64 H           9.1644    2.7078    9.5330 H         1 AS01000     0.0000 
     65 H           7.8025    5.0863   12.0312 H         1 AS01000     0.0000 
     66 H           7.6466    4.2596   10.6607 H         1 AS01000     0.0000 
     67 H           7.3121    3.5552   12.0672 H         1 AS01000     0.0000 
     68 H           4.4676    1.8745    2.0929 H         1 AS01000     0.0000 
@<TRIPOS>BOND
     1    6    1 1    
     2   59    1 1    
     3   60    1 1    
     4   61    1 1    
     5    3    2 1    
     6    6    2 1    
     7   34    2 1    
     8   35    2 1    
     9    4    3 1    
    10   21    3 1    
    11   32    3 1    
    12    5    4 1    
    13   36    4 1    
    14   37    4 1    
    15    7    5 1    
    16   38    5 1    
    17   39    5 1    
    18    8    7 1    
    19   21    7 1    
    20   40    7 1    
    21    9    8 1    
    22   18    8 1    
    23   41    8 1    
    24   10    9 1    
    25   42    9 1    
    26   43    9 1    
    27   11   10 1    
    28   44   10 1    
    29   45   10 1    
    30   12   11 2    
    31   17   11 1    
    32   13   12 1    
    33   46   12 1    
    34   14   13 2    
    35   15   13 1    
    36   16   15 1    
    37   47   15 1    
    38   48   15 1    
    39   17   16 1    
    40   49   16 1    
    41   50   16 1    
    42   18   17 2    
    43   19   18 1    
    44   20   19 1    
    45   23   19 1    
    46   51   19 1    
    47   21   20 1    
    48   52   20 1    
    49   53   20 1    
    50   22   21 1    
    51   62   22 1    
    52   63   22 1    
    53   64   22 1    
    54   24   23 ar   
    55   31   23 ar   
    56   25   24 ar   
    57   54   24 1    
    58   26   25 ar   
    59   55   25 1    
    60   27   26 1    
    61   30   26 ar   
    62   28   27 2    
    63   56   27 1    
    64   29   28 1    
    65   68   29 1    
    66   31   30 ar   
    67   57   30 1    
    68   58   31 1    
    69   33   32 1    
    70   65   33 1    
    71   66   33 1    
    72   67   33 1    
@<TRIPOS>SUBSTRUCTURE
     1 AS01000     1 GROUP   
@<TRIPOS>SET

