#    Name: 1Q1G_5_CAVITY_N1_6.mol2
#    Modification time : Tue Mar 11 02:30:40 2014

@<TRIPOS>MOLECULE
1Q1G_5_CAVITY_N1_6.mol2
   98     0     7     0     0
SMALL
NO_CHARGES


@<TRIPOS>ATOM
      1 CA         34.6452   40.3289   87.2162 C.3       6 GLY6        0.0000 
      2 CA         33.3334   38.2070   88.8826 C.3       6 GLY6        0.0000 
      3 CZ         33.3086   40.9650   86.9740 C.ar      5 PHE5        0.0000 
      4 CZ         32.6527   39.9041   87.8072 C.ar      5 PHE5        0.0000 
      5 N          35.1440   37.7834   87.0681 N.2       2 ALA2        0.0000 
      6 CA         33.8322   35.6616   88.7344 C.3       6 GLY6        0.0000 
      7 NZ         35.1192   40.5415   85.1595 N.2       4 LYS4        0.0000 
      8 O          34.4633   39.4805   85.9927 O.2       2 ALA2        0.0000 
      9 CA         33.8073   38.4196   86.8258 C.3       6 GLY6        0.0000 
     10 CA         33.1514   37.3586   87.6590 C.3       6 GLY6        0.0000 
     11 CA         32.4955   36.2977   88.4922 C.3       6 GLY6        0.0000 
     12 NZ         33.7825   41.1776   84.9172 N.2       4 LYS4        0.0000 
     13 CZ         33.1266   40.1166   85.7504 C.ar      5 PHE5        0.0000 
     14 CZ         32.4707   39.0557   86.5836 C.ar      5 PHE5        0.0000 
     15 CZ         31.1589   36.9338   88.2499 C.ar      5 PHE5        0.0000 
     16 CA         30.5029   35.8728   89.0831 C.3       6 GLY6        0.0000 
     17 NZ         35.0695   46.0575   81.3423 N.2       4 LYS4        0.0000 
     18 CZ         29.1663   36.5090   88.8408 C.ar      5 PHE5        0.0000 
     19 NZ         33.0769   45.6327   81.9332 N.2       4 LYS4        0.0000 
     20 CA         36.2738   39.0570   84.1782 C.3       6 GLY6        0.0000 
     21 N          34.9620   36.9351   85.8445 N.2       2 ALA2        0.0000 
     22 CA         34.3061   35.8741   86.6777 C.3       6 GLY6        0.0000 
     23 CA         33.6502   34.8132   87.5109 C.3       6 GLY6        0.0000 
     24 OG         35.5931   40.7540   83.1028 O.2       1 SER1        0.0000 
     25 CZ         34.9372   39.6931   83.9359 C.ar      5 PHE5        0.0000 
     26 CZ         34.2813   38.6321   84.7691 C.ar      5 PHE5        0.0000 
     27 CZ         33.6254   37.5712   85.6023 C.ar      5 PHE5        0.0000 
     28 CZ         32.9694   36.5102   86.4354 C.ar      5 PHE5        0.0000 
     29 N          32.3135   35.4493   87.2686 N.2       2 ALA2        0.0000 
     30 N          31.6576   34.3883   88.1018 N.2       2 ALA2        0.0000 
     31 CA         36.8801   45.6339   79.5278 C.3       6 GLY6        0.0000 
     32 OG         34.9123   42.4511   82.0273 O.2       1 SER1        0.0000 
     33 NZ         34.2564   41.3901   82.8605 N.2       4 LYS4        0.0000 
     34 CZ         33.6005   40.3292   83.6937 C.ar      5 PHE5        0.0000 
     35 CZ         31.6328   37.1464   86.1932 C.ar      5 PHE5        0.0000 
     36 N          30.9769   36.0854   87.0263 N.2       2 ALA2        0.0000 
     37 OG         34.8875   45.2091   80.1187 O.2       1 SER1        0.0000 
     38 NZ         34.2316   44.1482   80.9519 N.2       4 LYS4        0.0000 
     39 NZ         33.5757   43.0872   81.7851 N.2       4 LYS4        0.0000 
     40 NZ         32.9198   42.0263   82.6182 N.2       4 LYS4        0.0000 
     41 NZ         32.8949   44.7843   80.7096 N.2       4 LYS4        0.0000 
     42 CZ         32.2390   43.7233   81.5428 C.ar      5 PHE5        0.0000 
     43 O          39.3714   43.5133   78.7888 O.2       2 ALA2        0.0000 
     44 N          36.7478   39.2695   82.1214 N.2       2 ALA2        0.0000 
     45 CA         36.0919   38.2086   82.9546 C.3       6 GLY6        0.0000 
     46 CA         35.4359   37.1476   83.7878 C.3       6 GLY6        0.0000 
     47 CA         34.7800   36.0867   84.6210 C.3       6 GLY6        0.0000 
     48 N          34.1241   35.0257   85.4541 N.2       2 ALA2        0.0000 
     49 N          33.4682   33.9648   86.2873 N.2       2 ALA2        0.0000 
     50 OG         38.0348   44.1494   78.5465 O.2       1 SER1        0.0000 
     51 OG         35.4111   39.9056   81.8792 O.2       1 SER1        0.0000 
     52 CZ         34.7552   38.8447   82.7124 C.ar      5 PHE5        0.0000 
     53 CZ         34.0993   37.7838   83.5455 C.ar      5 PHE5        0.0000 
     54 CZ         33.4434   36.7228   84.3787 C.ar      5 PHE5        0.0000 
     55 CZ         32.7875   35.6619   85.2119 C.ar      5 PHE5        0.0000 
     56 O          36.6981   44.7855   78.3042 O.2       2 ALA2        0.0000 
     57 OG         34.7304   41.6027   80.8037 O.2       1 SER1        0.0000 
     58 OG         34.0745   40.5418   81.6369 O.2       1 SER1        0.0000 
     59 CZ         33.4185   39.4808   82.4701 C.ar      5 PHE5        0.0000 
     60 O          35.3614   45.4217   78.0620 O.2       2 ALA2        0.0000 
     61 O          34.0496   43.2998   79.7283 O.2       2 ALA2        0.0000 
     62 O          33.3937   42.2388   80.5615 O.2       2 ALA2        0.0000 
     63 OG         32.7378   41.1779   81.3947 O.2       1 SER1        0.0000 
     64 O          33.3689   44.9968   78.6529 O.2       2 ALA2        0.0000 
     65 O          32.7130   43.9359   79.4861 O.2       2 ALA2        0.0000 
     66 O          31.3763   44.5720   79.2438 O.2       2 ALA2        0.0000 
     67 CA         39.1894   42.6649   77.5652 C.3       6 GLY6        0.0000 
     68 OG         37.8776   40.5430   79.2315 O.2       1 SER1        0.0000 
     69 O          37.2217   39.4821   80.0647 O.2       2 ALA2        0.0000 
     70 N          36.5658   38.4211   80.8979 N.2       2 ALA2        0.0000 
     71 CA         35.9099   37.3602   81.7310 C.3       6 GLY6        0.0000 
     72 O          37.8528   43.3011   77.3229 O.2       2 ALA2        0.0000 
     73 O          36.5410   41.1792   78.9893 O.2       2 ALA2        0.0000 
     74 OG         35.8850   40.1182   79.8224 O.2       1 SER1        0.0000 
     75 DU         35.2291   39.0573   80.6556 H         7 CUB7        0.0000 
     76 CA         34.5732   37.9963   81.4888 C.3       6 GLY6        0.0000 
     77 O          34.5484   40.7543   79.5802 O.2       2 ALA2        0.0000 
     78 DU         33.8925   39.6934   80.4133 H         7 CUB7        0.0000 
     79 CZ         33.2366   38.6324   81.2465 C.ar      5 PHE5        0.0000 
     80 O          33.2117   41.3905   79.3379 O.2       2 ALA2        0.0000 
     81 N          32.5558   40.3295   80.1711 N.2       2 ALA2        0.0000 
     82 CZ         31.8999   39.2686   81.0043 C.ar      5 PHE5        0.0000 
     83 O          31.8502   44.7846   77.1871 O.2       2 ALA2        0.0000 
     84 O          37.6956   39.6947   78.0079 O.2       2 ALA2        0.0000 
     85 NZ         37.0397   38.6337   78.8411 N.2       4 LYS4        0.0000 
     86 NZ         36.3838   37.5728   79.6743 N.2       4 LYS4        0.0000 
     87 O          35.7031   39.2698   78.5989 O.2       2 ALA2        0.0000 
     88 NZ         35.0471   38.2089   79.4320 N.2       4 LYS4        0.0000 
     89 CA         34.3912   37.1479   80.2652 C.3       6 GLY6        0.0000 
     90 OD1        34.3664   39.9060   78.3566 O.3       3 ASP3        0.0000 
     91 CA         33.7105   38.8450   79.1898 C.3       6 GLY6        0.0000 
     92 CA         33.0546   37.7841   80.0229 C.3       6 GLY6        0.0000 
     93 CA         32.3738   39.4811   78.9475 C.3       6 GLY6        0.0000 
     94 N          31.7179   38.4202   79.7807 N.2       2 ALA2        0.0000 
     95 O          31.0372   40.1172   78.7052 O.2       2 ALA2        0.0000 
     96 CA         30.3813   39.0563   79.5384 C.3       6 GLY6        0.0000 
     97 CA         35.5211   38.4215   77.3753 C.3       6 GLY6        0.0000 
     98 CA         34.8652   37.3605   78.2085 C.3       6 GLY6        0.0000 
@<TRIPOS>BOND
@<TRIPOS>SUBSTRUCTURE
     1 SER1       24 GROUP   
     2 ALA2        5 GROUP   
     3 ASP3       90 GROUP   
     4 LYS4        7 GROUP   
     5 PHE5        3 GROUP   
     6 GLY6        1 GROUP   
     7 CUB7       75 GROUP   
@<TRIPOS>SET

