#    Name: 1q1g_MTI_5_INTS_M
#    Modification time : Mon Mar 24 22:41:42 2014

@<TRIPOS>MOLECULE
1q1g_MTI_5_INTS_M
   50     0     9     0     0
SMALL
NO_CHARGES


@<TRIPOS>ATOM
      1 CA         31.9975   36.7490   78.5790 C.3       3 GLC5        0.0000 
      2 CA         31.2230   37.7780   79.8190 C.3       9 GLL5        0.0000 
      3 CA         32.7720   35.7200   77.3390 C.3       6 GLP5        0.0000 
      4 CA         31.1010   37.5735   81.6275 C.3       3 GLC5        0.0000 
      5 CA         30.9790   37.3690   83.4360 C.3       6 GLP5        0.0000 
      6 CA         32.2780   36.4110   80.5225 C.3       3 GLC5        0.0000 
      7 CA         33.3330   35.0440   81.2260 C.3       6 GLP5        0.0000 
      8 CA         30.0560   36.5625   79.5525 C.3       3 GLC5        0.0000 
      9 CA         28.8890   35.3470   79.2860 C.3       6 GLP5        0.0000 
     10 CA         32.5850   38.5405   77.6440 C.3       3 GLC5        0.0000 
     11 CA         31.9850   39.3500   79.3720 C.3       9 GLL5        0.0000 
     12 CA         33.1850   37.7310   75.9160 C.3       6 GLP5        0.0000 
     13 CA         33.3325   37.2180   80.9045 C.3       3 GLC5        0.0000 
     14 CA         33.3320   39.3920   80.5830 C.3       9 GLL5        0.0000 
     15 CA         35.5315   36.1855   81.6740 C.3       3 GLC5        0.0000 
     16 CA         36.1980   37.8660   81.2710 C.3       9 GLL5        0.0000 
     17 CA         34.8650   34.5050   82.0770 C.3       6 GLP5        0.0000 
     18 N          37.6240   35.9900   81.8175 N.am      2 SEC2        0.0000 
     19 N          37.5190   37.2560   81.0450 N.am      8 SEL2        0.0000 
     20 N          37.7290   34.7240   82.5900 N.am      5 SEP2        0.0000 
     21 O          38.2315   36.5580   80.0615 O.2       1 ALC1        0.0000 
     22 O          37.5190   37.2560   81.0450 O.2       7 ALL1        0.0000 
     23 O          38.9440   35.8600   79.0780 O.2       4 ALP1        0.0000 
     24 CA         34.0530   36.8140   78.6320 C.3       3 GLC5        0.0000 
     25 CA         35.3340   37.9080   79.9250 C.3       9 GLL5        0.0000 
     26 CA         34.3335   36.4760   80.5755 C.3       3 GLC5        0.0000 
     27 O          36.6230   36.5525   78.4140 O.2       1 ALC1        0.0000 
     28 O          36.2010   37.7530   78.7200 O.2       7 ALL1        0.0000 
     29 O          37.0450   35.3520   78.1080 O.2       4 ALP1        0.0000 
     30 CA         36.9890   42.1890   82.9920 C.3       3 GLC5        0.0000 
     31 CA         35.7210   40.9000   83.8240 C.3       9 GLL5        0.0000 
     32 CA         38.2570   43.4780   82.1600 C.3       6 GLP5        0.0000 
     33 O          35.1470   42.3500   85.3535 O.2       1 ALC1        0.0000 
     34 O          35.1480   40.9560   85.0060 O.2       7 ALL1        0.0000 
     35 O          35.1460   43.7440   85.7010 O.2       4 ALP1        0.0000 
     36 CA         35.6515   40.2560   87.0470 C.3       3 GLC5        0.0000 
     37 CA         34.7160   39.6540   85.2550 C.3       9 GLL5        0.0000 
     38 CA         36.5870   40.8580   88.8390 C.3       6 GLP5        0.0000 
     39 CA         29.9580   39.5460   79.7057 C.3       3 GLC5        0.0000 
     40 CA         28.3120   40.5280   79.8160 C.3       6 GLP5        0.0000 
     41 CA         31.8897   39.0600   81.7777 C.3       3 GLC5        0.0000 
     42 CA         31.1210   38.7490   83.5780 C.3       6 GLP5        0.0000 
     43 CA         37.7035   37.7080   82.7610 C.3       3 GLC5        0.0000 
     44 CA         36.3420   39.3340   81.8110 C.3       9 GLL5        0.0000 
     45 CA         39.1370   36.8160   83.9810 C.3       6 GLP5        0.0000 
     46 CA         36.6805   37.6377   84.1693 C.3       3 GLC5        0.0000 
     47 CA         35.7250   39.6400   83.2150 C.3       9 GLL5        0.0000 
     48 CA         37.9740   36.0510   84.6450 C.3       6 GLP5        0.0000 
     49 CA         36.9429   40.2454   84.8692 C.3       3 GLC5        0.0000 
     50 CA         38.5830   40.7400   85.6220 C.3       6 GLP5        0.0000 
@<TRIPOS>BOND
@<TRIPOS>SUBSTRUCTURE
     1 ALC1       21 GROUP        1 X    ALC  0     ROOT ALC X 1
     2 SEC2       18 GROUP        1 X    SEC  0     **** SEC X 2
     3 GLC5        1 GROUP        1 X    GLC  0     **** GLC X 6
     4 ALP1       23 GROUP        1 Y    ALP  0     ROOT ALP Y 8
     5 SEP2       20 GROUP        1 Y    SEP  0     **** SEP Y 9
     6 GLP5        3 GROUP        1 Y    GLP  0     **** GLP Y 13
     7 ALL1       22 GROUP        1 Z    ALL  0     ROOT ALL Z 15
     8 SEL2       19 GROUP        1 Z    SEL  0     **** SEL Z 16
     9 GLL5        2 GROUP        1 Z    GLL  0     **** GLL Z 20
@<TRIPOS>SET

