#    Name: 1q1g_MTI_5_ligand
#    Modification time : Mon Mar 24 22:41:42 2014

@<TRIPOS>MOLECULE
1q1g_MTI_5_ligand
   35    37     1     0     0
SMALL
NO_CHARGES


@<TRIPOS>ATOM
      1 CS         31.2230   37.7780   79.8190 C.3       1 MTI305      0.0000 
      2 S5'        31.9850   39.3500   79.3720 S.3       1 MTI305      0.0000 
      3 C5'        33.3320   39.3920   80.5830 C.3       1 MTI305      0.0000 
      4 C4'        34.7390   39.3330   79.9780 C.3       1 MTI305      0.0000 
      5 N4'        35.6120   40.1420   80.8370 N.4       1 MTI305      0.0000 
      6 C2'        36.1980   37.8660   81.2710 C.3       1 MTI305      0.0000 
      7 O2'        37.5190   37.2560   81.0450 O.3       1 MTI305      0.0000 
      8 C3'        35.3340   37.9080   79.9250 C.3       1 MTI305      0.0000 
      9 O3'        36.2010   37.7530   78.7200 O.3       1 MTI305      0.0000 
     10 C1'        36.3420   39.3340   81.8110 C.3       1 MTI305      0.0000 
     11 C9         35.7250   39.6400   83.2150 C.2       1 MTI305      0.0000 
     12 C8         35.7210   40.9000   83.8240 C.2       1 MTI305      0.0000 
     13 N7         35.1480   40.9560   85.0060 N.pl3     1 MTI305      0.0000 
     14 C5         34.7160   39.6540   85.2550 C.2       1 MTI305      0.0000 
     15 C6         34.0130   39.0950   86.4080 C.2       1 MTI305      0.0000 
     16 O6         33.6540   39.6980   87.4260 O.2       1 MTI305      0.0000 
     17 N1         33.7380   37.6990   86.2990 N.am      1 MTI305      0.0000 
     18 C2         34.0950   36.9010   85.1880 C.2       1 MTI305      0.0000 
     19 N3         34.7600   37.4300   84.0930 N.2       1 MTI305      0.0000 
     20 C4         35.0490   38.8090   84.1720 C.2       1 MTI305      0.0000 
     21 H          33.1034   38.5433   81.2127 H         1 MTI305      0.0000 
     22 H          33.1358   40.3124   81.1154 H         1 MTI305      0.0000 
     23 H          34.7209   39.7426   78.9930 H         1 MTI305      0.0000 
     24 H          35.6235   37.3107   81.9917 H         1 MTI305      0.0000 
     25 H          34.5773   37.2110   80.0047 H         1 MTI305      0.0000 
     26 H          37.3699   39.6061   81.7985 H         1 MTI305      0.0000 
     27 H          36.1414   41.6878   83.3521 H         1 MTI305      0.0000 
     28 H          35.0306   41.6848   85.5908 H         1 MTI305      0.0000 
     29 H          33.2377   37.2394   87.0989 H         1 MTI305      0.0000 
     30 H          33.8472   35.8933   85.2040 H         1 MTI305      0.0000 
     31 H          31.7960   37.0005   79.5598 H         1 MTI305      0.0000 
     32 H          31.0637   37.7092   80.8038 H         1 MTI305      0.0000 
     33 H          30.3385   37.6529   79.3696 H         1 MTI305      0.0000 
     34 H          37.6009   37.1771   80.0515 H         1 MTI305      0.0000 
     35 H          35.9868   36.8441   78.3624 H         1 MTI305      0.0000 
@<TRIPOS>BOND
     1    2    1 1    
     2   31    1 1    
     3   32    1 1    
     4   33    1 1    
     5    3    2 1    
     6    4    3 1    
     7   21    3 1    
     8   22    3 1    
     9    5    4 1    
    10    8    4 1    
    11   23    4 1    
    12   10    5 1    
    13    7    6 1    
    14    8    6 1    
    15   10    6 1    
    16   24    6 1    
    17   34    7 1    
    18    9    8 1    
    19   25    8 1    
    20   35    9 1    
    21   11   10 1    
    22   26   10 1    
    23   12   11 2    
    24   20   11 1    
    25   13   12 1    
    26   27   12 1    
    27   14   13 1    
    28   28   13 1    
    29   15   14 1    
    30   20   14 2    
    31   16   15 2    
    32   17   15 am   
    33   18   17 1    
    34   29   17 1    
    35   19   18 2    
    36   30   18 1    
    37   20   19 1    
@<TRIPOS>SUBSTRUCTURE
     1 MTI305      1 GROUP   
@<TRIPOS>SET

