#    Name: 2qi7_MZ9_1_INTS_M
#    Modification time : Mon Mar 24 22:12:15 2014

@<TRIPOS>MOLECULE
2qi7_MZ9_1_INTS_M
   87     0     9     0     0
SMALL
NO_CHARGES


@<TRIPOS>ATOM
      1 CA         22.5625   26.4625   13.6385 C.3       3 GLC5        0.0000 
      2 CA         22.2000   27.6750   12.1930 C.3       9 GLL5        0.0000 
      3 CA         22.9250   25.2500   15.0840 C.3       6 GLP5        0.0000 
      4 CA         23.5230   29.4245   11.7705 C.3       3 GLC5        0.0000 
      5 CA         24.8460   31.1740   11.3480 C.3       6 GLP5        0.0000 
      6 CA         21.0795   28.9540    9.7395 C.3       3 GLC5        0.0000 
      7 CA         21.7890   27.2340   10.7920 C.3       9 GLL5        0.0000 
      8 CA         20.3700   30.6740    8.6870 C.3       6 GLP5        0.0000 
      9 N          22.6925   24.1880   12.5530 N.am      2 SEC2        0.0000 
     10 N          21.8010   24.9340   11.5240 N.am      8 SEL2        0.0000 
     11 N          23.5840   23.4420   13.5820 N.am      5 SEP2        0.0000 
     12 O          20.3140   26.8270   14.1820 O.2       1 ALC1        0.0000 
     13 O          20.4650   28.3490   13.7160 O.2       7 ALL1        0.0000 
     14 O          20.1630   25.3050   14.6480 O.2       4 ALP1        0.0000 
     15 CA         17.0705   30.9885   11.3730 C.3       3 GLC5        0.0000 
     16 CA         17.4760   29.0010   11.9400 C.3       9 GLL5        0.0000 
     17 CA         16.6650   32.9760   10.8060 C.3       6 GLP5        0.0000 
     18 CA         18.7860   29.6620    9.6525 C.3       3 GLC5        0.0000 
     19 CA         17.2020   28.6500   10.6180 C.3       9 GLL5        0.0000 
     20 CA         17.1600   30.5445   10.0150 C.3       3 GLC5        0.0000 
     21 CA         17.1180   32.4390    9.4120 C.3       6 GLP5        0.0000 
     22 N          19.3500   27.9270   17.8705 N.am      2 SEC2        0.0000 
     23 N          19.8750   28.4780   16.6370 N.am      8 SEL2        0.0000 
     24 N          18.8250   27.3760   19.1040 N.am      5 SEP2        0.0000 
     25 O          20.7480   28.0890   17.4940 O.2       1 ALC1        0.0000 
     26 O          19.8750   28.4780   16.6370 O.2       7 ALL1        0.0000 
     27 O          21.6210   27.7000   18.3510 O.2       4 ALP1        0.0000 
     28 O          21.4295   28.8510   17.0615 O.2       1 ALC1        0.0000 
     29 O          22.9840   29.2240   17.4860 O.2       4 ALP1        0.0000 
     30 CA         17.5605   30.7475   17.8760 C.3       3 GLC5        0.0000 
     31 CA         19.0660   30.7400   16.3150 C.3       9 GLL5        0.0000 
     32 CA         16.0550   30.7550   19.4370 C.3       6 GLP5        0.0000 
     33 CA         23.0475   34.5555   14.4700 C.3       3 GLC5        0.0000 
     34 CA         22.2140   32.6040   15.0450 C.3       9 GLL5        0.0000 
     35 CA         23.8810   36.5070   13.8950 C.3       6 GLP5        0.0000 
     36 CA         21.3230   34.1705   13.7410 C.3       3 GLC5        0.0000 
     37 CA         20.4320   35.7370   12.4370 C.3       6 GLP5        0.0000 
     38 CA         22.8425   32.9185   19.1305 C.3       3 GLC5        0.0000 
     39 CA         22.2520   33.6640   17.3550 C.3       9 GLL5        0.0000 
     40 CA         23.4330   32.1730   20.9060 C.3       6 GLP5        0.0000 
     41 CA         24.0710   32.5105   17.4210 C.3       3 GLC5        0.0000 
     42 CA         25.8900   31.3570   17.4870 C.3       6 GLP5        0.0000 
     43 CA         23.0295   35.8045   15.3955 C.3       3 GLC5        0.0000 
     44 CA         22.1780   35.1020   16.8960 C.3       9 GLL5        0.0000 
     45 CA         15.8750   33.3060   14.1130 C.3       3 GLC5        0.0000 
     46 CA         17.1370   33.4420   15.9060 C.3       9 GLL5        0.0000 
     47 CA         14.6130   33.1700   12.3200 C.3       6 GLP5        0.0000 
     48 CA         15.4090   36.9490   15.8615 C.3       3 GLC5        0.0000 
     49 CA         16.6490   35.5590   16.9960 C.3       9 GLL5        0.0000 
     50 CA         14.1690   38.3390   14.7270 C.3       6 GLP5        0.0000 
     51 CA         15.1030   30.8850   17.0350 C.3       3 GLC5        0.0000 
     52 CA         16.1490   32.8390   16.6790 C.3       9 GLL5        0.0000 
     53 CA         14.0570   28.9310   17.3910 C.3       6 GLP5        0.0000 
     54 CA         16.3935   33.2585   18.9620 C.3       3 GLC5        0.0000 
     55 CA         15.6530   34.9500   17.7710 C.3       9 GLL5        0.0000 
     56 CA         17.1340   31.5670   20.1530 C.3       6 GLP5        0.0000 
     57 CA         14.3600   35.5145   16.0790 C.3       3 GLC5        0.0000 
     58 CA         13.0670   36.0790   14.3870 C.3       6 GLP5        0.0000 
     59 N          14.4125   34.8730   20.0745 N.am      2 SEC2        0.0000 
     60 N          14.9060   35.6310   18.7060 N.am      8 SEL2        0.0000 
     61 N          13.9190   34.1150   21.4430 N.am      5 SEP2        0.0000 
     62 CA         15.6050   36.4290   20.7150 C.3       3 GLC5        0.0000 
     63 CA         14.9480   37.0510   18.9050 C.3       9 GLL5        0.0000 
     64 CA         16.2620   35.8070   22.5250 C.3       6 GLP5        0.0000 
     65 CA         13.4715   36.2085   19.7430 C.3       3 GLC5        0.0000 
     66 CA         11.9950   35.3660   20.5810 C.3       6 GLP5        0.0000 
     67 CA         14.0835   37.9460   17.3515 C.3       3 GLC5        0.0000 
     68 CA         13.2190   38.8410   15.7980 C.3       6 GLP5        0.0000 
     69 CA         16.1335   27.4830   11.9765 C.3       3 GLC5        0.0000 
     70 CA         17.8240   28.0230   12.8680 C.3       9 GLL5        0.0000 
     71 CA         14.6170   26.4540   11.5490 C.3       6 GLP5        0.0000 
     72 CA         16.0691   29.0099   13.5360 C.3       3 GLC5        0.0000 
     73 CA         14.4110   29.4130   14.3090 C.3       6 GLP5        0.0000 
     74 CA         16.0553   28.3398    9.0278 C.3       3 GLC5        0.0000 
     75 CA         14.8710   28.6960    7.6360 C.3       6 GLP5        0.0000 
     76 CA         15.9283   27.2188   10.9842 C.3       3 GLC5        0.0000 
     77 CA         16.9524   25.6101   13.2912 C.3       3 GLC5        0.0000 
     78 CA         17.6280   26.3430   11.1410 C.3       9 GLL5        0.0000 
     79 CA         16.1590   24.3710   14.6790 C.3       6 GLP5        0.0000 
     80 CA         16.1913   26.4847   11.6757 C.3       3 GLC5        0.0000 
     81 CA         17.9030   26.6880   12.4640 C.3       9 GLL5        0.0000 
     82 CA         23.8935   34.6300   17.7127 C.3       3 GLC5        0.0000 
     83 CA         25.5720   34.8770   18.3000 C.3       6 GLP5        0.0000 
     84 CA         15.9183   31.9847   18.2892 C.3       3 GLC5        0.0000 
     85 CA         13.8742   33.1223   16.5822 C.3       3 GLC5        0.0000 
     86 CA         15.4140   33.5900   17.6040 C.3       9 GLL5        0.0000 
     87 CA         11.9670   33.0300   16.0230 C.3       6 GLP5        0.0000 
@<TRIPOS>BOND
@<TRIPOS>SUBSTRUCTURE
     1 ALC1       12 GROUP        1 X    ALC  0     ROOT ALC X 1
     2 SEC2        9 GROUP        1 X    SEC  0     **** SEC X 2
     3 GLC5        1 GROUP        1 X    GLC  0     **** GLC X 6
     4 ALP1       14 GROUP        1 Y    ALP  0     ROOT ALP Y 8
     5 SEP2       11 GROUP        1 Y    SEP  0     **** SEP Y 9
     6 GLP5        3 GROUP        1 Y    GLP  0     **** GLP Y 13
     7 ALL1       13 GROUP        1 Z    ALL  0     ROOT ALL Z 15
     8 SEL2       10 GROUP        1 Z    SEL  0     **** SEL Z 16
     9 GLL5        2 GROUP        1 Z    GLL  0     **** GLL Z 20
@<TRIPOS>SET

