#    Name: 2qi7_MZ9_1_ligand
#    Modification time : Mon Mar 24 22:12:15 2014

@<TRIPOS>MOLECULE
2qi7_MZ9_1_ligand
   77    78     1     0     0
SMALL
NO_CHARGES


@<TRIPOS>ATOM
      1 O22        21.2560   29.8260   12.1740 O.2       1 MZ9200      0.0000 
      2 C21        21.2510   28.7280   12.7060 C.2       1 MZ9200      0.0000 
      3 C22        22.2000   27.6750   12.1930 C.3       1 MZ9200      0.0000 
      4 C23        21.7890   27.2340   10.7920 C.3       1 MZ9200      0.0000 
      5 C24        21.5100   25.7500   10.6490 C.2       1 MZ9200      0.0000 
      6 O25        21.8010   24.9340   11.5240 O.2       1 MZ9200      0.0000 
      7 C26        20.8560   25.3410    9.3460 C.3       1 MZ9200      0.0000 
      8 C27        20.6960   23.8480    9.2000 C.3       1 MZ9200      0.0000 
      9 N20        20.4650   28.3490   13.7160 N.am      1 MZ9200      0.0000 
     10 C19        19.4480   29.1810   14.3330 C.3       1 MZ9200      0.0000 
     11 C32        18.1330   28.4020   14.3040 C.3       1 MZ9200      0.0000 
     12 C38        17.8240   28.0230   12.8680 C.ar      1 MZ9200      0.0000 
     13 C37        17.4760   29.0010   11.9400 C.ar      1 MZ9200      0.0000 
     14 C36        17.2020   28.6500   10.6180 C.ar      1 MZ9200      0.0000 
     15 C35        17.2770   27.3170   10.2210 C.ar      1 MZ9200      0.0000 
     16 C34        17.6280   26.3430   11.1410 C.ar      1 MZ9200      0.0000 
     17 C33        17.9030   26.6880   12.4640 C.ar      1 MZ9200      0.0000 
     18 C17        19.8990   29.5950   15.7320 C.3       1 MZ9200      0.0000 
     19 O18        19.8750   28.4780   16.6370 O.3       1 MZ9200      0.0000 
     20 C16        19.0660   30.7400   16.3150 C.3       1 MZ9200      0.0000 
     21 N11        19.3420   31.9750   15.5460 N.pl3     1 MZ9200      0.0000 
     22 C12        20.0580   32.9990   16.3450 C.3       1 MZ9200      0.0000 
     23 C13        21.5480   32.6740   16.4230 C.3       1 MZ9200      0.0000 
     24 C14        22.2140   32.6040   15.0450 C.3       1 MZ9200      0.0000 
     25 C15        22.2520   33.6640   17.3550 C.3       1 MZ9200      0.0000 
     26 C18        22.1780   35.1020   16.8960 C.3       1 MZ9200      0.0000 
     27 S8         18.0080   32.5870   14.8490 S.o2      1 MZ9200      0.0000 
     28 O10        17.2180   31.5270   14.2910 O.2       1 MZ9200      0.0000 
     29 O9         18.4760   33.4340   13.7860 O.2       1 MZ9200      0.0000 
     30 C5         17.1370   33.4420   15.9060 C.ar      1 MZ9200      0.0000 
     31 C6         17.3750   34.8050   16.0790 C.ar      1 MZ9200      0.0000 
     32 C7         16.6490   35.5590   16.9960 C.ar      1 MZ9200      0.0000 
     33 C4         16.1490   32.8390   16.6790 C.ar      1 MZ9200      0.0000 
     34 C3         15.4140   33.5900   17.6040 C.ar      1 MZ9200      0.0000 
     35 C2         15.6530   34.9500   17.7710 C.ar      1 MZ9200      0.0000 
     36 O19        14.9060   35.6310   18.7060 O.3       1 MZ9200      0.0000 
     37 C20        14.9480   37.0510   18.9050 C.3       1 MZ9200      0.0000 
     38 H          22.1856   26.8118   12.8560 H         1 MZ9200      0.0000 
     39 H          23.2111   28.0766   12.1570 H         1 MZ9200      0.0000 
     40 H          22.5876   27.5215   10.0807 H         1 MZ9200      0.0000 
     41 H          20.8868   27.8017   10.4914 H         1 MZ9200      0.0000 
     42 H          21.4584   25.7256    8.5056 H         1 MZ9200      0.0000 
     43 H          19.8652   25.8210    9.2753 H         1 MZ9200      0.0000 
     44 H          20.5544   27.3747   14.1319 H         1 MZ9200      0.0000 
     45 H          19.3152   30.0822   13.7328 H         1 MZ9200      0.0000 
     46 H          17.3409   29.0245   14.6958 H         1 MZ9200      0.0000 
     47 H          18.2344   27.5084   14.9037 H         1 MZ9200      0.0000 
     48 H          17.4204   29.9870   12.2294 H         1 MZ9200      0.0000 
     49 H          16.9449   29.3756    9.9377 H         1 MZ9200      0.0000 
     50 H          17.0718   27.0605    9.2473 H         1 MZ9200      0.0000 
     51 H          17.6876   25.3553   10.8501 H         1 MZ9200      0.0000 
     52 H          18.1634   25.9622   13.1413 H         1 MZ9200      0.0000 
     53 H          20.9360   29.9674   15.6464 H         1 MZ9200      0.0000 
     54 H          19.3378   30.8699   17.3582 H         1 MZ9200      0.0000 
     55 H          18.0155   30.4736   16.2472 H         1 MZ9200      0.0000 
     56 H          19.6563   33.0378   17.3607 H         1 MZ9200      0.0000 
     57 H          19.9401   33.9861   15.8910 H         1 MZ9200      0.0000 
     58 H          21.6396   31.6737   16.8896 H         1 MZ9200      0.0000 
     59 H          23.3106   33.3647   17.4508 H         1 MZ9200      0.0000 
     60 H          21.8055   33.5778   18.3613 H         1 MZ9200      0.0000 
     61 H          18.1106   35.2665   15.5104 H         1 MZ9200      0.0000 
     62 H          16.8397   36.5611   17.1079 H         1 MZ9200      0.0000 
     63 H          15.9545   31.8333   16.5724 H         1 MZ9200      0.0000 
     64 H          14.6849   33.1240   18.1684 H         1 MZ9200      0.0000 
     65 H          21.5770   23.3756    9.2276 H         1 MZ9200      0.0000 
     66 H          20.1332   23.4616    9.9307 H         1 MZ9200      0.0000 
     67 H          20.2597   23.6042    8.3339 H         1 MZ9200      0.0000 
     68 H          23.1878   32.3872   15.1137 H         1 MZ9200      0.0000 
     69 H          21.7977   31.9025   14.4665 H         1 MZ9200      0.0000 
     70 H          22.1408   33.4713   14.5527 H         1 MZ9200      0.0000 
     71 H          22.6445   35.7187   17.5300 H         1 MZ9200      0.0000 
     72 H          22.6021   35.2279   15.9992 H         1 MZ9200      0.0000 
     73 H          21.2328   35.4195   16.8204 H         1 MZ9200      0.0000 
     74 H          15.8644   37.3642   19.1542 H         1 MZ9200      0.0000 
     75 H          14.6821   37.5497   18.0800 H         1 MZ9200      0.0000 
     76 H          14.3301   37.3421   19.6354 H         1 MZ9200      0.0000 
     77 H          20.7560   28.5086   17.1091 H         1 MZ9200      0.0000 
@<TRIPOS>BOND
     1    2    1 2    
     2    3    2 1    
     3    9    2 am   
     4    4    3 1    
     5   38    3 1    
     6   39    3 1    
     7    5    4 1    
     8   40    4 1    
     9   41    4 1    
    10    6    5 2    
    11    7    5 1    
    12    8    7 1    
    13   42    7 1    
    14   43    7 1    
    15   65    8 1    
    16   66    8 1    
    17   67    8 1    
    18   10    9 1    
    19   44    9 1    
    20   11   10 1    
    21   18   10 1    
    22   45   10 1    
    23   12   11 1    
    24   46   11 1    
    25   47   11 1    
    26   13   12 ar   
    27   17   12 ar   
    28   14   13 ar   
    29   48   13 1    
    30   15   14 ar   
    31   49   14 1    
    32   16   15 ar   
    33   50   15 1    
    34   17   16 ar   
    35   51   16 1    
    36   52   17 1    
    37   19   18 1    
    38   20   18 1    
    39   53   18 1    
    40   77   19 1    
    41   21   20 1    
    42   54   20 1    
    43   55   20 1    
    44   22   21 1    
    45   27   21 1    
    46   23   22 1    
    47   56   22 1    
    48   57   22 1    
    49   24   23 1    
    50   25   23 1    
    51   58   23 1    
    52   68   24 1    
    53   69   24 1    
    54   70   24 1    
    55   26   25 1    
    56   59   25 1    
    57   60   25 1    
    58   71   26 1    
    59   72   26 1    
    60   73   26 1    
    61   28   27 2    
    62   29   27 2    
    63   30   27 1    
    64   31   30 ar   
    65   33   30 ar   
    66   32   31 ar   
    67   61   31 1    
    68   35   32 ar   
    69   62   32 1    
    70   34   33 ar   
    71   63   33 1    
    72   35   34 ar   
    73   64   34 1    
    74   36   35 1    
    75   37   36 1    
    76   74   37 1    
    77   75   37 1    
    78   76   37 1    
@<TRIPOS>SUBSTRUCTURE
     1 MZ9200      1 GROUP   
@<TRIPOS>SET

