#    Name: 4hyf_1AK_2_INTS_M
#    Modification time : Tue Mar 25 01:59:12 2014

@<TRIPOS>MOLECULE
4hyf_1AK_2_INTS_M
   68     0     6     0     0
SMALL
NO_CHARGES


@<TRIPOS>ATOM
      1 CA        -11.8155   67.4925   17.2535 C.3       2 GLC5        0.0000 
      2 CA        -13.4920   66.7210   16.2410 C.3       6 GLL5        0.0000 
      3 CA        -10.1390   68.2640   18.2660 C.3       4 GLP5        0.0000 
      4 CA        -12.1865   65.5835   14.9705 C.3       2 GLC5        0.0000 
      5 CA        -10.8810   64.4460   13.7000 C.3       4 GLP5        0.0000 
      6 CA        -12.0730   68.8045   17.3005 C.3       2 GLC5        0.0000 
      7 CA        -14.0070   69.3450   16.3350 C.3       6 GLL5        0.0000 
      8 CA        -14.3890   70.3060   14.7010 C.3       2 GLC5        0.0000 
      9 CA        -14.8450   70.4940   16.6490 C.3       6 GLL5        0.0000 
     10 CA        -13.9330   70.1180   12.7530 C.3       4 GLP5        0.0000 
     11 CA        -18.6870   69.1655   18.1805 C.3       2 GLC5        0.0000 
     12 CA        -16.5610   69.0300   17.5020 C.3       6 GLL5        0.0000 
     13 CA        -20.8130   69.3010   18.8590 C.3       4 GLP5        0.0000 
     14 CA        -18.1945   69.5180   16.0560 C.3       2 GLC5        0.0000 
     15 CA        -19.8280   70.0060   14.6100 C.3       4 GLP5        0.0000 
     16 N         -17.7995   63.1810   16.9825 N.am      1 SEC2        0.0000 
     17 N         -16.9710   64.4440   17.2260 N.am      5 SEL2        0.0000 
     18 N         -18.6280   61.9180   16.7390 N.am      3 SEP2        0.0000 
     19 CA        -13.9550   65.9895   19.6450 C.3       2 GLC5        0.0000 
     20 CA        -15.9800   66.5110   20.0780 C.3       6 GLL5        0.0000 
     21 CA        -11.9300   65.4680   19.2120 C.3       4 GLP5        0.0000 
     22 CA        -14.8570   64.8200   22.2960 C.3       2 GLC5        0.0000 
     23 CA        -16.4030   65.9100   21.1840 C.3       6 GLL5        0.0000 
     24 CA        -13.3110   63.7300   23.4080 C.3       4 GLP5        0.0000 
     25 CA        -17.3795   64.0600   20.6720 C.3       2 GLC5        0.0000 
     26 CA        -18.3560   62.2100   20.1600 C.3       4 GLP5        0.0000 
     27 N         -17.8020   65.7590   24.5670 N.am      1 SEC2        0.0000 
     28 N         -16.5550   66.0940   23.7120 N.am      5 SEL2        0.0000 
     29 N         -19.0490   65.4240   25.4220 N.am      3 SEP2        0.0000 
     30 N         -17.6455   66.2365   25.0380 N.am      1 SEC2        0.0000 
     31 N         -16.2420   67.0490   24.6540 N.am      5 SEL2        0.0000 
     32 CA        -17.3000   63.7605   14.7100 C.3       2 GLC5        0.0000 
     33 CA        -16.7190   65.7260   15.0110 C.3       6 GLL5        0.0000 
     34 CA        -17.8810   61.7950   14.4090 C.3       4 GLP5        0.0000 
     35 CA        -16.9690   63.4360   13.6395 C.3       2 GLC5        0.0000 
     36 CA        -16.0570   65.0770   12.8700 C.3       6 GLL5        0.0000 
     37 CA        -16.7790   68.9240   10.6635 C.3       2 GLC5        0.0000 
     38 CA        -15.7660   67.1630    9.8560 C.3       6 GLL5        0.0000 
     39 CA        -17.7920   70.6850   11.4710 C.3       4 GLP5        0.0000 
     40 CA        -14.4935   66.0275   10.2935 C.3       2 GLC5        0.0000 
     41 CA        -13.2210   64.8920   10.7310 C.3       4 GLP5        0.0000 
     42 CA        -14.7375   68.5785   10.0545 C.3       2 GLC5        0.0000 
     43 CA        -13.7090   69.9940   10.2530 C.3       4 GLP5        0.0000 
     44 CA        -12.9527   66.4358   17.8178 C.3       2 GLC5        0.0000 
     45 CA        -14.4590   68.0860   16.6060 C.3       6 GLL5        0.0000 
     46 CA        -14.2616   68.5581   14.6226 C.3       2 GLC5        0.0000 
     47 CA        -14.5320   68.7420   12.8660 C.3       4 GLP5        0.0000 
     48 CA        -14.6062   67.3317   20.8210 C.3       2 GLC5        0.0000 
     49 CA        -13.0210   68.4530   21.0110 C.3       4 GLP5        0.0000 
     50 CA        -16.6705   70.4620   25.3135 C.3       2 GLC5        0.0000 
     51 CA        -15.2570   69.4070   24.6330 C.3       6 GLL5        0.0000 
     52 CA        -18.1770   71.4670   25.3130 C.3       4 GLP5        0.0000 
     53 CA        -13.4747   69.1800   27.0352 C.3       2 GLC5        0.0000 
     54 CA        -15.0710   69.5070   25.9950 C.3       6 GLL5        0.0000 
     55 CA        -12.1040   68.2410   27.7980 C.3       4 GLP5        0.0000 
     56 CA        -16.3342   71.3712   25.7255 C.3       2 GLC5        0.0000 
     57 CA        -14.6200   70.7310   26.5500 C.3       6 GLL5        0.0000 
     58 CA        -16.4248   71.3725   24.0350 C.3       2 GLC5        0.0000 
     59 CA        -14.5440   71.7200   24.3810 C.3       6 GLL5        0.0000 
     60 CA        -18.0790   71.6360   23.9720 C.3       4 GLP5        0.0000 
     61 CA        -13.5183   69.0118   23.9057 C.3       2 GLC5        0.0000 
     62 CA        -14.9970   70.4980   23.8150 C.3       6 GLL5        0.0000 
     63 CA        -11.9560   68.0460   23.2470 C.3       4 GLP5        0.0000 
     64 CA        -15.8460   67.4570   13.8150 C.3       2 GLC5        0.0000 
     65 CA        -18.7422   68.3475   14.2115 C.3       2 GLC5        0.0000 
     66 CA        -17.6010   66.6180   14.5170 C.3       6 GLL5        0.0000 
     67 CA        -15.6094   67.2318   12.8285 C.3       2 GLC5        0.0000 
     68 CA        -17.7120   66.7600   13.1090 C.3       6 GLL5        0.0000 
@<TRIPOS>BOND
@<TRIPOS>SUBSTRUCTURE
     1 SEC2       16 GROUP        1 X    SEC  0     ROOT SEC X 2
     2 GLC5        1 GROUP        1 X    GLC  0     **** GLC X 6
     3 SEP2       18 GROUP        1 Y    SEP  0     ROOT SEP Y 9
     4 GLP5        3 GROUP        1 Y    GLP  0     **** GLP Y 13
     5 SEL2       17 GROUP        1 Z    SEL  0     ROOT SEL Z 16
     6 GLL5        2 GROUP        1 Z    GLL  0     **** GLL Z 20
@<TRIPOS>SET

