#    Name: 4hyf_1AK_2_ligand
#    Modification time : Tue Mar 25 01:59:12 2014

@<TRIPOS>MOLECULE
4hyf_1AK_2_ligand
   53    57     1     0     0
SMALL
NO_CHARGES


@<TRIPOS>ATOM
      1 CL1       -13.4920   66.7210   16.2410 Cl        1 1AK1203     0.0000 
      2 C01       -14.0070   69.3450   16.3350 C.ar      1 1AK1203     0.0000 
      3 C02       -14.8450   70.4940   16.6490 C.ar      1 1AK1203     0.0000 
      4 C03       -16.1140   70.2990   17.2320 C.ar      1 1AK1203     0.0000 
      5 C04       -16.5610   69.0300   17.5020 C.ar      1 1AK1203     0.0000 
      6 C05       -15.7320   67.9010   17.1900 C.ar      1 1AK1203     0.0000 
      7 C06       -14.4590   68.0860   16.6060 C.ar      1 1AK1203     0.0000 
      8 N08       -16.2080   66.5160   17.4800 N.pl3     1 1AK1203     0.0000 
      9 C09       -16.6210   65.5700   16.5530 C.2       1 1AK1203     0.0000 
     10 N10       -16.9710   64.4440   17.2260 N.2       1 1AK1203     0.0000 
     11 N11       -16.7740   64.6530   18.5620 N.2       1 1AK1203     0.0000 
     12 C12       -16.3090   65.9040   18.7380 C.2       1 1AK1203     0.0000 
     13 C13       -15.9800   66.5110   20.0780 C.2       1 1AK1203     0.0000 
     14 C14       -16.4030   65.9100   21.1840 C.2       1 1AK1203     0.0000 
     15 C15       -16.2410   66.5870   22.4970 C.2       1 1AK1203     0.0000 
     16 N16       -16.5550   66.0940   23.7120 N.2       1 1AK1203     0.0000 
     17 N17       -16.2420   67.0490   24.6540 N.2       1 1AK1203     0.0000 
     18 C18       -15.7400   68.1110   24.0130 C.2       1 1AK1203     0.0000 
     19 C19       -15.2570   69.4070   24.6330 C.ar      1 1AK1203     0.0000 
     20 C20       -15.0710   69.5070   25.9950 C.ar      1 1AK1203     0.0000 
     21 C21       -14.6200   70.7310   26.5500 C.ar      1 1AK1203     0.0000 
     22 C22       -14.3630   71.8200   25.7260 C.ar      1 1AK1203     0.0000 
     23 C23       -14.5440   71.7200   24.3810 C.ar      1 1AK1203     0.0000 
     24 C24       -14.9970   70.4980   23.8150 C.ar      1 1AK1203     0.0000 
     25 C25       -13.8860   73.1100   26.3140 C.1       1 1AK1203     0.0000 
     26 N26       -13.5270   74.0850   26.7580 N.1       1 1AK1203     0.0000 
     27 O27       -15.7350   67.8360   22.6700 O.3       1 1AK1203     0.0000 
     28 C28       -16.7190   65.7260   15.0110 C.ar      1 1AK1203     0.0000 
     29 C29       -17.6010   66.6180   14.5170 C.ar      1 1AK1203     0.0000 
     30 C30       -17.7120   66.7600   13.1090 C.ar      1 1AK1203     0.0000 
     31 C31       -16.9210   65.9720   12.3150 C.ar      1 1AK1203     0.0000 
     32 C32       -16.0570   65.0770   12.8700 C.ar      1 1AK1203     0.0000 
     33 N33       -15.9630   64.9630   14.2090 N.ar      1 1AK1203     0.0000 
     34 S34       -17.0470   66.1190   10.5480 S.o2      1 1AK1203     0.0000 
     35 O35       -18.3820   66.6000   10.1600 O.2       1 1AK1203     0.0000 
     36 O36       -17.0260   64.8500    9.9510 O.2       1 1AK1203     0.0000 
     37 C37       -15.7660   67.1630    9.8560 C.3       1 1AK1203     0.0000 
     38 H         -13.0946   69.5231   15.9158 H         1 1AK1203     0.0000 
     39 H         -14.4984   71.4232   16.4411 H         1 1AK1203     0.0000 
     40 H         -16.6937   71.1213   17.4493 H         1 1AK1203     0.0000 
     41 H         -17.4771   68.8600   17.9236 H         1 1AK1203     0.0000 
     42 H         -15.4371   67.3706   20.0494 H         1 1AK1203     0.0000 
     43 H         -16.8461   64.9883   21.2070 H         1 1AK1203     0.0000 
     44 H         -15.2520   68.7147   26.6154 H         1 1AK1203     0.0000 
     45 H         -14.4868   70.8005   27.5645 H         1 1AK1203     0.0000 
     46 H         -14.3606   72.5125   23.7521 H         1 1AK1203     0.0000 
     47 H         -15.1273   70.4367   22.8010 H         1 1AK1203     0.0000 
     48 H         -18.1931   67.1962   15.1171 H         1 1AK1203     0.0000 
     49 H         -18.3659   67.4330   12.7237 H         1 1AK1203     0.0000 
     50 H         -15.4686   64.4805   12.2498 H         1 1AK1203     0.0000 
     51 H         -14.8518   66.8064   10.0487 H         1 1AK1203     0.0000 
     52 H         -15.8468   67.2408    8.8623 H         1 1AK1203     0.0000 
     53 H         -15.8027   68.0911   10.2266 H         1 1AK1203     0.0000 
@<TRIPOS>BOND
     1    7    1 1    
     2    3    2 ar   
     3    7    2 ar   
     4   38    2 1    
     5    4    3 ar   
     6   39    3 1    
     7    5    4 ar   
     8   40    4 1    
     9    6    5 ar   
    10   41    5 1    
    11    7    6 ar   
    12    8    6 1    
    13    9    8 1    
    14   12    8 1    
    15   10    9 2    
    16   28    9 1    
    17   11   10 1    
    18   12   11 2    
    19   13   12 1    
    20   14   13 2    
    21   42   13 1    
    22   15   14 1    
    23   43   14 1    
    24   16   15 2    
    25   27   15 1    
    26   17   16 1    
    27   18   17 2    
    28   19   18 1    
    29   27   18 1    
    30   20   19 ar   
    31   24   19 ar   
    32   21   20 ar   
    33   44   20 1    
    34   22   21 ar   
    35   45   21 1    
    36   23   22 ar   
    37   25   22 1    
    38   24   23 ar   
    39   46   23 1    
    40   47   24 1    
    41   26   25 3    
    42   29   28 ar   
    43   33   28 ar   
    44   30   29 ar   
    45   48   29 1    
    46   31   30 ar   
    47   49   30 1    
    48   32   31 ar   
    49   34   31 1    
    50   33   32 ar   
    51   50   32 1    
    52   35   34 2    
    53   36   34 2    
    54   37   34 1    
    55   51   37 1    
    56   52   37 1    
    57   53   37 1    
@<TRIPOS>SUBSTRUCTURE
     1 1AK1203     1 GROUP   
@<TRIPOS>SET

