#    Name: 4lxd_1XV_1_INTS_M
#    Modification time : Tue Apr  8 00:11:32 2014

@<TRIPOS>MOLECULE
4lxd_1XV_1_INTS_M
   79     0     6     0     0
SMALL
NO_CHARGES


@<TRIPOS>ATOM
      1 CA         27.1175   31.4535    4.1235 C.3       2 GLC5        0.0000 
      2 CA         28.0200   30.4490    2.4590 C.3       6 GLL5        0.0000 
      3 CA         26.2150   32.4580    5.7880 C.3       4 GLP5        0.0000 
      4 CA         28.6505   31.9440    1.5685 C.3       2 GLC5        0.0000 
      5 CA         29.2810   33.4390    0.6780 C.3       4 GLP5        0.0000 
      6 CA         26.1175   31.1260    2.2310 C.3       2 GLC5        0.0000 
      7 CA         24.2150   31.8030    2.0030 C.3       4 GLP5        0.0000 
      8 CA         26.6795   28.9970    1.6070 C.3       2 GLC5        0.0000 
      9 CA         25.3390   27.5450    0.7550 C.3       4 GLP5        0.0000 
     10 CA         28.2725   30.3570    0.5200 C.3       2 GLC5        0.0000 
     11 CA         28.5250   30.2650   -1.4190 C.3       4 GLP5        0.0000 
     12 CA         30.6070   30.7580    3.5020 C.3       2 GLC5        0.0000 
     13 CA         29.3840   29.1100    4.3450 C.3       6 GLL5        0.0000 
     14 CA         31.8300   32.4060    2.6590 C.3       4 GLP5        0.0000 
     15 CA         30.6575   28.4845    3.1200 C.3       2 GLC5        0.0000 
     16 CA         31.9310   27.8590    1.8950 C.3       4 GLP5        0.0000 
     17 CA         17.1665   33.8180   11.5565 C.3       2 GLC5        0.0000 
     18 CA         18.8900   35.1590   11.9390 C.3       6 GLL5        0.0000 
     19 CA         15.4430   32.4770   11.1740 C.3       4 GLP5        0.0000 
     20 CA         29.5140   28.1250    2.5560 C.3       2 GLC5        0.0000 
     21 CA         28.1410   29.3660    3.7970 C.3       6 GLL5        0.0000 
     22 CA         30.8870   26.8840    1.3150 C.3       4 GLP5        0.0000 
     23 CA         21.5720   40.7180    7.7460 C.3       2 GLC5        0.0000 
     24 CA         20.3650   40.5660    9.5920 C.3       6 GLL5        0.0000 
     25 CA         22.7790   40.8700    5.9000 C.3       4 GLP5        0.0000 
     26 CA         23.9625   28.2215   11.2360 C.3       2 GLC5        0.0000 
     27 CA         25.9220   29.0310   10.7330 C.3       6 GLL5        0.0000 
     28 CA         22.0030   27.4120   11.7390 C.3       4 GLP5        0.0000 
     29 CA         26.4330   31.7960    9.5440 C.3       2 GLC5        0.0000 
     30 CA         27.5260   30.9230   11.0890 C.3       6 GLL5        0.0000 
     31 CA         25.3400   32.6690    7.9990 C.3       4 GLP5        0.0000 
     32 CA         28.3290   32.7005   11.3790 C.3       2 GLC5        0.0000 
     33 CA         29.1320   34.4780   11.6690 C.3       4 GLP5        0.0000 
     34 CA         26.4360   30.2805    8.3140 C.3       2 GLC5        0.0000 
     35 CA         26.7560   28.5610    9.5500 C.3       6 GLL5        0.0000 
     36 CA         26.1160   32.0000    7.0780 C.3       4 GLP5        0.0000 
     37 CA         27.2700   31.1920    8.5255 C.3       2 GLC5        0.0000 
     38 CA         28.4240   30.3840    9.9730 C.3       6 GLL5        0.0000 
     39 CA         29.0480   32.3560   10.1805 C.3       2 GLC5        0.0000 
     40 CA         29.6720   34.3280   10.3880 C.3       4 GLP5        0.0000 
     41 CA         28.8460   22.6935    8.7135 C.3       2 GLC5        0.0000 
     42 CA         28.5390   24.2260    7.6330 C.3       6 GLL5        0.0000 
     43 CA         29.1530   21.1610    9.7940 C.3       4 GLP5        0.0000 
     44 CA         26.7280   23.6170    8.4915 C.3       2 GLC5        0.0000 
     45 CA         24.9170   23.0080    9.3500 C.3       4 GLP5        0.0000 
     46 CA         30.5865   29.7755    7.8860 C.3       2 GLC5        0.0000 
     47 CA         29.1570   28.3400    8.7830 C.3       6 GLL5        0.0000 
     48 CA         32.0160   31.2110    6.9890 C.3       4 GLP5        0.0000 
     49 N          18.5060   32.3760   12.4955 N.am      1 SEC2        0.0000 
     50 N          18.4020   32.9610   13.8680 N.am      5 SEL2        0.0000 
     51 N          18.6100   31.7910   11.1230 N.am      3 SEP2        0.0000 
     52 CA         30.7250   29.9413    5.9320 C.3       2 GLC5        0.0000 
     53 CA         29.4840   28.2330    5.4050 C.3       6 GLL5        0.0000 
     54 CA         29.7653   26.5892    4.6077 C.3       2 GLC5        0.0000 
     55 CA         30.6150   25.2500    3.5560 C.3       4 GLP5        0.0000 
     56 CA         25.3652   28.8938    5.9207 C.3       2 GLC5        0.0000 
     57 CA         27.1090   27.8750    5.3430 C.3       6 GLL5        0.0000 
     58 CA         23.6730   29.4680    7.0220 C.3       4 GLP5        0.0000 
     59 CA         26.1737   27.3848    3.3188 C.3       2 GLC5        0.0000 
     60 CA         25.2900   26.4500    1.8180 C.3       4 GLP5        0.0000 
     61 CA         22.6977   29.2392   11.9600 C.3       2 GLC5        0.0000 
     62 CA         22.9140   31.4270   12.5320 C.3       6 GLL5        0.0000 
     63 CA         21.6316   31.9726   11.6092 C.3       2 GLC5        0.0000 
     64 CA         23.2480   32.6520   13.0740 C.3       6 GLL5        0.0000 
     65 CA         19.9430   32.0860   10.5910 C.3       4 GLP5        0.0000 
     66 CA         19.5841   33.7767   11.4624 C.3       2 GLC5        0.0000 
     67 CA         19.5640   35.2220   13.1380 C.3       6 GLL5        0.0000 
     68 CA         29.4703   25.6045    5.1745 C.3       2 GLC5        0.0000 
     69 CA         28.4790   26.6600    7.0090 C.3       6 GLL5        0.0000 
     70 CA         26.3622   25.9890    7.7145 C.3       2 GLC5        0.0000 
     71 CA         28.1720   25.2580    6.5770 C.3       6 GLL5        0.0000 
     72 CA         24.3990   26.0190    8.6360 C.3       4 GLP5        0.0000 
     73 CA         28.0473   23.7705    5.5160 C.3       2 GLC5        0.0000 
     74 CA         27.7390   22.7990    3.9270 C.3       4 GLP5        0.0000 
     75 CA         17.9265   39.3495   11.6883 C.3       2 GLC5        0.0000 
     76 CA         20.1590   39.7980   10.9030 C.3       6 GLL5        0.0000 
     77 CA         16.1080   38.4710   12.0040 C.3       4 GLP5        0.0000 
     78 CA         25.3690   27.4075    9.3887 C.3       2 GLC5        0.0000 
     79 CA         25.0060   29.1320    8.5818 C.3       2 GLC5        0.0000 
@<TRIPOS>BOND
@<TRIPOS>SUBSTRUCTURE
     1 SEC2       49 GROUP        1 X    SEC  0     ROOT SEC X 2
     2 GLC5        1 GROUP        1 X    GLC  0     **** GLC X 6
     3 SEP2       51 GROUP        1 Y    SEP  0     ROOT SEP Y 9
     4 GLP5        3 GROUP        1 Y    GLP  0     **** GLP Y 13
     5 SEL2       50 GROUP        1 Z    SEL  0     ROOT SEL Z 16
     6 GLL5        2 GROUP        1 Z    GLL  0     **** GLL Z 20
@<TRIPOS>SET

