#    Name: 4lxd_1XV_1_ligand
#    Modification time : Tue Apr  8 00:11:32 2014

@<TRIPOS>MOLECULE
4lxd_1XV_1_ligand
   87    92     1     0     0
SMALL
NO_CHARGES


@<TRIPOS>ATOM
      1 C1         29.4840   28.2330    5.4050 C.ar      1 1XV301      0.0000 
      2 C2         27.1090   27.8750    5.3430 C.ar      1 1XV301      0.0000 
      3 C3         22.9140   31.4270   12.5320 C.ar      1 1XV301      0.0000 
      4 C4         24.5180   33.1730   12.9230 C.ar      1 1XV301      0.0000 
      5 CL4        28.0200   30.4490    2.4590 Cl        1 1XV301      0.0000 
      6 C5         23.8710   30.7060   11.8300 C.ar      1 1XV301      0.0000 
      7 C6         25.4550   32.4420   12.2120 C.ar      1 1XV301      0.0000 
      8 C7         20.1390   37.5030   12.7150 C.ar      1 1XV301      0.0000 
      9 C8         20.1740   36.3930   13.5430 C.ar      1 1XV301      0.0000 
     10 C9         29.3840   29.1100    4.3450 C.ar      1 1XV301      0.0000 
     11 C10        27.0060   28.7640    4.2960 C.ar      1 1XV301      0.0000 
     12 C11        18.8900   35.1590   11.9390 C.ar      1 1XV301      0.0000 
     13 C12        28.3470   27.6240    5.9140 C.ar      1 1XV301      0.0000 
     14 C13        23.2480   32.6520   13.0740 C.ar      1 1XV301      0.0000 
     15 C14        25.1560   31.2010   11.6560 C.ar      1 1XV301      0.0000 
     16 C15        19.5040   37.4590   11.4780 C.ar      1 1XV301      0.0000 
     17 C16        18.8830   36.2670   11.1200 C.ar      1 1XV301      0.0000 
     18 C17        19.5640   35.2220   13.1380 C.ar      1 1XV301      0.0000 
     19 C18        28.1410   29.3660    3.7970 C.ar      1 1XV301      0.0000 
     20 C19        28.4790   26.6600    7.0090 C.2       1 1XV301      0.0000 
     21 C20        28.8570   26.9620    8.2740 C.2       1 1XV301      0.0000 
     22 C21        22.2320   33.4570   13.7880 C.2       1 1XV301      0.0000 
     23 C22        28.1720   25.2580    6.5770 C.3       1 1XV301      0.0000 
     24 C23        29.0260   25.8610    9.2790 C.3       1 1XV301      0.0000 
     25 C24        19.3310   40.6580   11.8420 C.3       1 1XV301      0.0000 
     26 C25        20.3650   40.5660    9.5920 C.3       1 1XV301      0.0000 
     27 C26        25.9220   29.0310   10.7330 C.3       1 1XV301      0.0000 
     28 C27        27.5260   30.9230   11.0890 C.3       1 1XV301      0.0000 
     29 C28        26.7560   28.5610    9.5500 C.3       1 1XV301      0.0000 
     30 C29        28.4240   30.3840    9.9730 C.3       1 1XV301      0.0000 
     31 C30        28.5390   24.2260    7.6330 C.3       1 1XV301      0.0000 
     32 C31        20.0260   41.9960   12.0470 C.3       1 1XV301      0.0000 
     33 C32        20.8700   41.9880    9.8330 C.3       1 1XV301      0.0000 
     34 C33        20.1590   39.7980   10.9030 C.3       1 1XV301      0.0000 
     35 C34        29.1570   28.3400    8.7830 C.3       1 1XV301      0.0000 
     36 N35        26.1440   30.4730   10.9030 N.3       1 1XV301      0.0000 
     37 N36        28.1930   28.9150    9.7900 N.4       1 1XV301      0.0000 
     38 N37        19.4390   38.5600   10.5900 N.pl3     1 1XV301      0.0000 
     39 N38        20.9430   32.9180   13.6950 N.pl3     1 1XV301      0.0000 
     40 N39        18.1660   36.0910    9.8650 N.pl3     1 1XV301      0.0000 
     41 O40        17.6790   34.9850    9.6370 O.2       1 1XV301      0.0000 
     42 O41        22.4630   34.5190   14.3430 O.2       1 1XV301      0.0000 
     43 O42        18.0710   37.0380    9.0930 O.2       1 1XV301      0.0000 
     44 O43        18.4020   32.9610   13.8680 O.2       1 1XV301      0.0000 
     45 O44        19.7470   34.2250   15.5430 O.2       1 1XV301      0.0000 
     46 O45        28.2380   24.7070    8.9440 O.3       1 1XV301      0.0000 
     47 O46        20.0650   42.6880   10.8030 O.3       1 1XV301      0.0000 
     48 S47        19.5700   33.7730   14.1690 S.o2      1 1XV301      0.0000 
     49 H          30.4050   28.0277    5.8221 H         1 1XV301      0.0000 
     50 H          26.2715   27.3963    5.7033 H         1 1XV301      0.0000 
     51 H          21.9662   31.0487   12.6451 H         1 1XV301      0.0000 
     52 H          24.7629   34.0786   13.3267 H         1 1XV301      0.0000 
     53 H          23.6213   29.7831   11.4295 H         1 1XV301      0.0000 
     54 H          26.4151   32.8303   12.0874 H         1 1XV301      0.0000 
     55 H          20.5936   38.3839   13.0204 H         1 1XV301      0.0000 
     56 H          20.6509   36.4424   14.4518 H         1 1XV301      0.0000 
     57 H          30.2209   29.5673    3.9671 H         1 1XV301      0.0000 
     58 H          26.0846   28.9783    3.8873 H         1 1XV301      0.0000 
     59 H          18.4014   34.3022   11.6599 H         1 1XV301      0.0000 
     60 H          28.7207   25.0274    5.6514 H         1 1XV301      0.0000 
     61 H          27.0988   25.1669    6.3513 H         1 1XV301      0.0000 
     62 H          28.7470   26.2531   10.2752 H         1 1XV301      0.0000 
     63 H          30.1002   25.6022    9.3345 H         1 1XV301      0.0000 
     64 H          18.3499   40.8239   11.4109 H         1 1XV301      0.0000 
     65 H          19.2279   40.1554   12.7974 H         1 1XV301      0.0000 
     66 H          21.0881   40.0273    8.9735 H         1 1XV301      0.0000 
     67 H          19.4158   40.6081    9.0510 H         1 1XV301      0.0000 
     68 H          26.2334   28.4852   11.6173 H         1 1XV301      0.0000 
     69 H          24.8775   28.8225   10.5274 H         1 1XV301      0.0000 
     70 H          27.5843   32.0164   11.0770 H         1 1XV301      0.0000 
     71 H          27.9237   30.5729   12.0473 H         1 1XV301      0.0000 
     72 H          26.3991   29.0477    8.6477 H         1 1XV301      0.0000 
     73 H          26.6506   27.4856    9.4457 H         1 1XV301      0.0000 
     74 H          29.4635   30.5688   10.2391 H         1 1XV301      0.0000 
     75 H          28.1955   30.9162    9.0510 H         1 1XV301      0.0000 
     76 H          29.6112   23.9979    7.5225 H         1 1XV301      0.0000 
     77 H          27.9865   23.3004    7.4054 H         1 1XV301      0.0000 
     78 H          21.0289   41.7985   12.4351 H         1 1XV301      0.0000 
     79 H          19.4685   42.5522   12.8055 H         1 1XV301      0.0000 
     80 H          20.8718   42.5133    8.8626 H         1 1XV301      0.0000 
     81 H          21.9213   41.9204   10.1614 H         1 1XV301      0.0000 
     82 H          21.1041   39.5988   11.3351 H         1 1XV301      0.0000 
     83 H          29.2235   29.0415    7.9126 H         1 1XV301      0.0000 
     84 H          30.1841   28.3460    9.2293 H         1 1XV301      0.0000 
     85 H          28.4775   28.4374   10.7880 H         1 1XV301      0.0000 
     86 H          18.9017   38.5142    9.7338 H         1 1XV301      0.0000 
     87 H          20.7069   32.0048   13.3514 H         1 1XV301      0.0000 
@<TRIPOS>BOND
     1   10    1 ar   
     2   13    1 ar   
     3   49    1 1    
     4   11    2 ar   
     5   13    2 ar   
     6   50    2 1    
     7    6    3 ar   
     8   14    3 ar   
     9   51    3 1    
    10    7    4 ar   
    11   14    4 ar   
    12   52    4 1    
    13   19    5 1    
    14   15    6 ar   
    15   53    6 1    
    16   15    7 ar   
    17   54    7 1    
    18    9    8 ar   
    19   16    8 ar   
    20   55    8 1    
    21   18    9 ar   
    22   56    9 1    
    23   19   10 ar   
    24   57   10 1    
    25   19   11 ar   
    26   58   11 1    
    27   17   12 ar   
    28   18   12 ar   
    29   59   12 1    
    30   20   13 1    
    31   22   14 1    
    32   36   15 1    
    33   17   16 ar   
    34   38   16 1    
    35   40   17 1    
    36   48   18 1    
    37   21   20 2    
    38   23   20 1    
    39   24   21 1    
    40   35   21 1    
    41   39   22 am   
    42   42   22 2    
    43   31   23 1    
    44   60   23 1    
    45   61   23 1    
    46   46   24 1    
    47   62   24 1    
    48   63   24 1    
    49   32   25 1    
    50   34   25 1    
    51   64   25 1    
    52   65   25 1    
    53   33   26 1    
    54   34   26 1    
    55   66   26 1    
    56   67   26 1    
    57   29   27 1    
    58   36   27 1    
    59   68   27 1    
    60   69   27 1    
    61   30   28 1    
    62   36   28 1    
    63   70   28 1    
    64   71   28 1    
    65   37   29 1    
    66   72   29 1    
    67   73   29 1    
    68   37   30 1    
    69   74   30 1    
    70   75   30 1    
    71   46   31 1    
    72   76   31 1    
    73   77   31 1    
    74   47   32 1    
    75   78   32 1    
    76   79   32 1    
    77   47   33 1    
    78   80   33 1    
    79   81   33 1    
    80   38   34 1    
    81   82   34 1    
    82   37   35 1    
    83   83   35 1    
    84   84   35 1    
    85   85   37 1    
    86   86   38 1    
    87   48   39 1    
    88   87   39 1    
    89   41   40 2    
    90   43   40 2    
    91   48   44 2    
    92   48   45 2    
@<TRIPOS>SUBSTRUCTURE
     1 1XV301      1 GROUP   
@<TRIPOS>SET

