#    Name: 2X93_1_CAVITY_N1_6.mol2
#    Modification time : Mon Mar 10 22:40:44 2014

@<TRIPOS>MOLECULE
2X93_1_CAVITY_N1_6.mol2
  147     0     7     0     0
SMALL
NO_CHARGES


@<TRIPOS>ATOM
      1 NZ         30.2852   -7.0030  -30.1102 N.2       4 LYS4        0.0000 
      2 DU         29.1887   -6.8176  -29.1035 H         7 CUB7        0.0000 
      3 DU         28.0923   -6.6323  -28.0968 H         7 CUB7        0.0000 
      4 CA         26.9958   -6.4470  -27.0901 C.3       6 GLY6        0.0000 
      5 NZ         29.9922   -8.4733  -30.1586 N.2       4 LYS4        0.0000 
      6 DU         28.8958   -8.2879  -29.1519 H         7 CUB7        0.0000 
      7 OG         27.7993   -8.1026  -28.1452 O.2       1 SER1        0.0000 
      8 OG         26.7029   -7.9173  -27.1385 O.2       1 SER1        0.0000 
      9 NZ         28.6028   -9.7583  -29.2002 N.2       4 LYS4        0.0000 
     10 NZ         27.5064   -9.5729  -28.1935 N.2       4 LYS4        0.0000 
     11 NZ         26.6626   -1.8973  -23.8206 N.2       4 LYS4        0.0000 
     12 N          28.5625   -3.7383  -25.8824 N.2       2 ALA2        0.0000 
     13 N          27.4661   -3.5529  -24.8757 N.2       2 ALA2        0.0000 
     14 OD1        31.5589   -5.7646  -28.9509 O.3       3 ASP3        0.0000 
     15 DU         30.4625   -5.5793  -27.9442 H         7 CUB7        0.0000 
     16 N          29.3660   -5.3939  -26.9375 N.2       2 ALA2        0.0000 
     17 N          28.2696   -5.2086  -25.9308 N.2       2 ALA2        0.0000 
     18 NZ         27.1732   -5.0233  -24.9241 N.2       4 LYS4        0.0000 
     19 NZ         26.0767   -4.8379  -23.9174 N.2       4 LYS4        0.0000 
     20 CZ         31.2660   -7.2349  -28.9993 C.ar      5 PHE5        0.0000 
     21 DU         30.1695   -7.0496  -27.9926 H         7 CUB7        0.0000 
     22 DU         29.0731   -6.8643  -26.9859 H         7 CUB7        0.0000 
     23 DU         27.9767   -6.6789  -25.9791 H         7 CUB7        0.0000 
     24 CA         26.8802   -6.4936  -24.9724 C.3       6 GLY6        0.0000 
     25 CA         25.7838   -6.3082  -23.9657 C.3       6 GLY6        0.0000 
     26 O          30.9730   -8.7052  -29.0476 O.2       2 ALA2        0.0000 
     27 DU         29.8766   -8.5199  -28.0409 H         7 CUB7        0.0000 
     28 DU         28.7802   -8.3346  -27.0342 H         7 CUB7        0.0000 
     29 OG         27.6837   -8.1492  -26.0275 O.2       1 SER1        0.0000 
     30 O          30.6801  -10.1756  -29.0960 O.2       2 ALA2        0.0000 
     31 NZ         29.5837   -9.9902  -28.0893 N.2       4 LYS4        0.0000 
     32 NZ         28.4872   -9.8049  -27.0826 N.2       4 LYS4        0.0000 
     33 NZ         27.0978  -11.0899  -26.1243 N.2       4 LYS4        0.0000 
     34 N          29.8363   -2.4999  -24.7231 N.2       2 ALA2        0.0000 
     35 OG         28.7399   -2.3146  -23.7164 O.2       1 SER1        0.0000 
     36 OD1        27.6434   -2.1293  -22.7097 O.3       3 ASP3        0.0000 
     37 OD1        31.7362   -4.3409  -26.7849 O.3       3 ASP3        0.0000 
     38 N          30.6398   -4.1556  -25.7782 N.2       2 ALA2        0.0000 
     39 N          29.5434   -3.9702  -24.7715 N.2       2 ALA2        0.0000 
     40 DU         28.4469   -3.7849  -23.7648 H         7 CUB7        0.0000 
     41 N          27.3505   -3.5996  -22.7580 N.2       2 ALA2        0.0000 
     42 O          31.4433   -5.8112  -26.8332 O.2       2 ALA2        0.0000 
     43 O          30.3469   -5.6259  -25.8265 O.2       2 ALA2        0.0000 
     44 DU         29.2504   -5.4406  -24.8198 H         7 CUB7        0.0000 
     45 DU         28.1540   -5.2552  -23.8131 H         7 CUB7        0.0000 
     46 CA         27.0575   -5.0699  -22.8064 C.3       6 GLY6        0.0000 
     47 O          31.1504   -7.2816  -26.8816 O.2       2 ALA2        0.0000 
     48 O          30.0539   -7.0962  -25.8749 O.2       2 ALA2        0.0000 
     49 DU         28.9575   -6.9109  -24.8682 H         7 CUB7        0.0000 
     50 DU         27.8610   -6.7255  -23.8615 H         7 CUB7        0.0000 
     51 CA         26.7646   -6.5402  -22.8548 C.3       6 GLY6        0.0000 
     52 O          31.9539   -8.9372  -27.9367 O.2       2 ALA2        0.0000 
     53 O          30.8574   -8.7519  -26.9300 O.2       2 ALA2        0.0000 
     54 DU         29.7610   -8.5665  -25.9233 H         7 CUB7        0.0000 
     55 DU         28.6645   -8.3812  -24.9166 H         7 CUB7        0.0000 
     56 OG         27.5681   -8.1959  -23.9099 O.2       1 SER1        0.0000 
     57 CA         26.4716   -8.0105  -22.9032 C.3       6 GLY6        0.0000 
     58 O          31.6609  -10.4075  -27.9851 O.2       2 ALA2        0.0000 
     59 N          30.5645  -10.2222  -26.9784 N.2       2 ALA2        0.0000 
     60 N          29.4680  -10.0369  -25.9717 N.2       2 ALA2        0.0000 
     61 OG         28.3716   -9.8515  -24.9649 O.2       1 SER1        0.0000 
     62 OG         27.2751   -9.6662  -23.9582 O.2       1 SER1        0.0000 
     63 CA         26.1787   -9.4809  -22.9515 C.3       6 GLY6        0.0000 
     64 NZ         29.1751  -11.5072  -26.0200 N.2       4 LYS4        0.0000 
     65 NZ         28.0786  -11.3218  -25.0133 N.2       4 LYS4        0.0000 
     66 OG         26.9822  -11.1365  -24.0066 O.2       1 SER1        0.0000 
     67 CA         25.8857  -10.9512  -22.9999 C.3       6 GLY6        0.0000 
     68 CA         26.6892  -12.6068  -24.0550 C.3       6 GLY6        0.0000 
     69 N          30.8171   -2.7319  -23.6121 N.2       2 ALA2        0.0000 
     70 OG         31.6206   -4.3875  -24.6672 O.2       1 SER1        0.0000 
     71 CZ         30.5242   -4.2022  -23.6605 C.ar      5 PHE5        0.0000 
     72 CZ         29.4277   -4.0169  -22.6538 C.ar      5 PHE5        0.0000 
     73 N          28.3313   -3.8315  -21.6471 N.2       2 ALA2        0.0000 
     74 O          31.3277   -5.8579  -24.7156 O.2       2 ALA2        0.0000 
     75 DU         30.2312   -5.6725  -23.7089 H         7 CUB7        0.0000 
     76 CZ         29.1348   -5.4872  -22.7022 C.ar      5 PHE5        0.0000 
     77 N          28.0383   -5.3019  -21.6955 N.2       2 ALA2        0.0000 
     78 O          31.0347   -7.3282  -24.7640 O.2       2 ALA2        0.0000 
     79 DU         29.9383   -7.1428  -23.7573 H         7 CUB7        0.0000 
     80 DU         28.8418   -6.9575  -22.7505 H         7 CUB7        0.0000 
     81 O          27.7454   -6.7722  -21.7438 O.2       2 ALA2        0.0000 
     82 O          31.8382   -8.9838  -25.8190 O.2       2 ALA2        0.0000 
     83 N          30.7418   -8.7985  -24.8123 N.2       2 ALA2        0.0000 
     84 O          29.6453   -8.6132  -23.8056 O.2       2 ALA2        0.0000 
     85 DU         28.5489   -8.4278  -22.7989 H         7 CUB7        0.0000 
     86 CA         27.4524   -8.2425  -21.7922 C.3       6 GLY6        0.0000 
     87 N          29.3524  -10.0835  -23.8540 N.2       2 ALA2        0.0000 
     88 DU         28.2559   -9.8982  -22.8473 H         7 CUB7        0.0000 
     89 NZ         27.1595   -9.7128  -21.8406 N.2       4 LYS4        0.0000 
     90 NZ         26.0631   -9.5275  -20.8339 N.2       4 LYS4        0.0000 
     91 N          29.0594  -11.5538  -23.9024 N.2       2 ALA2        0.0000 
     92 NZ         27.9630  -11.3685  -22.8957 N.2       4 LYS4        0.0000 
     93 CA         26.8666  -11.1831  -21.8890 C.3       6 GLY6        0.0000 
     94 N          25.7701  -10.9978  -20.8822 N.2       2 ALA2        0.0000 
     95 NZ         27.6701  -12.8388  -22.9440 N.2       4 LYS4        0.0000 
     96 CA         26.5736  -12.6535  -21.9373 C.3       6 GLY6        0.0000 
     97 CZ         31.5050   -4.4342  -22.5496 C.ar      5 PHE5        0.0000 
     98 OG         32.3085   -6.0898  -23.6046 O.2       1 SER1        0.0000 
     99 CZ         31.2120   -5.9045  -22.5979 C.ar      5 PHE5        0.0000 
    100 CZ         30.1156   -5.7192  -21.5912 C.ar      5 PHE5        0.0000 
    101 N          29.0192   -5.5338  -20.5845 N.2       2 ALA2        0.0000 
    102 O          32.0155   -7.5601  -23.6530 O.2       2 ALA2        0.0000 
    103 O          30.9191   -7.3748  -22.6463 O.2       2 ALA2        0.0000 
    104 DU         29.8227   -7.1895  -21.6396 H         7 CUB7        0.0000 
    105 O          28.7262   -7.0041  -20.6329 O.2       2 ALA2        0.0000 
    106 O          30.6262   -8.8451  -22.6947 O.2       2 ALA2        0.0000 
    107 O          29.5297   -8.6598  -21.6880 O.2       2 ALA2        0.0000 
    108 NZ         28.4333   -8.4745  -20.6813 N.2       4 LYS4        0.0000 
    109 O          29.2368  -10.1301  -21.7363 O.2       2 ALA2        0.0000 
    110 NZ         28.1403   -9.9448  -20.7296 N.2       4 LYS4        0.0000 
    111 NZ         28.9438  -11.6004  -21.7847 N.2       4 LYS4        0.0000 
    112 OD1        27.8474  -11.4151  -20.7780 O.3       3 ASP3        0.0000 
    113 NZ         26.7509  -11.2298  -19.7713 N.2       4 LYS4        0.0000 
    114 NZ         27.5544  -12.8854  -20.8264 N.2       4 LYS4        0.0000 
    115 CZ         32.1929   -6.1365  -21.4870 C.ar      5 PHE5        0.0000 
    116 CZ         31.0964   -5.9511  -20.4803 C.ar      5 PHE5        0.0000 
    117 CZ         30.0000   -5.7658  -19.4736 C.ar      5 PHE5        0.0000 
    118 CZ         31.8999   -7.6068  -21.5354 C.ar      5 PHE5        0.0000 
    119 CZ         30.8035   -7.4214  -20.5287 C.ar      5 PHE5        0.0000 
    120 NZ         29.7070   -7.2361  -19.5219 N.2       4 LYS4        0.0000 
    121 CZ         30.5105   -8.8918  -20.5770 C.ar      5 PHE5        0.0000 
    122 CZ         30.2176  -10.3621  -20.6254 C.ar      5 PHE5        0.0000 
    123 O          27.8130   -3.4131  -31.2287 O.2       2 ALA2        0.0000 
    124 NZ         27.5201   -4.8834  -31.2770 N.2       4 LYS4        0.0000 
    125 O          26.4236   -4.6980  -30.2703 O.2       2 ALA2        0.0000 
    126 O          25.3272   -4.5127  -29.2636 O.2       2 ALA2        0.0000 
    127 O          26.1307   -6.1684  -30.3187 O.2       2 ALA2        0.0000 
    128 CA         25.0342   -5.9830  -29.3120 C.3       6 GLY6        0.0000 
    129 O          25.8377   -7.6387  -30.3671 O.2       2 ALA2        0.0000 
    130 O          29.8903   -3.8304  -31.1244 O.2       2 ALA2        0.0000 
    131 NZ         29.5973   -5.3007  -31.1728 N.2       4 LYS4        0.0000 
    132 O          28.5009   -5.1153  -30.1661 O.2       2 ALA2        0.0000 
    133 O          27.4044   -4.9300  -29.1594 O.2       2 ALA2        0.0000 
    134 CA         26.3080   -4.7447  -28.1527 C.3       6 GLY6        0.0000 
    135 NZ         28.2079   -6.5857  -30.2145 N.2       4 LYS4        0.0000 
    136 DU         27.1115   -6.4003  -29.2077 H         7 CUB7        0.0000 
    137 CA         26.0150   -6.2150  -28.2010 C.3       6 GLY6        0.0000 
    138 NZ         27.9150   -8.0560  -30.2628 N.2       4 LYS4        0.0000 
    139 O          26.8185   -7.8706  -29.2561 O.2       2 ALA2        0.0000 
    140 OG         25.7221   -7.6853  -28.2494 O.2       1 SER1        0.0000 
    141 O          30.8711   -4.0623  -30.0135 O.2       2 ALA2        0.0000 
    142 N          26.4853   -3.3210  -25.9866 N.2       2 ALA2        0.0000 
    143 NZ         30.5781   -5.5326  -30.0618 N.2       4 LYS4        0.0000 
    144 O          29.4817   -5.3473  -29.0551 O.2       2 ALA2        0.0000 
    145 N          28.3852   -5.1620  -28.0484 N.2       2 ALA2        0.0000 
    146 N          27.2888   -4.9766  -27.0417 N.2       2 ALA2        0.0000 
    147 NZ         26.1923   -4.7913  -26.0350 N.2       4 LYS4        0.0000 
@<TRIPOS>BOND
@<TRIPOS>SUBSTRUCTURE
     1 SER1        7 GROUP   
     2 ALA2       12 GROUP   
     3 ASP3       14 GROUP   
     4 LYS4        1 GROUP   
     5 PHE5       20 GROUP   
     6 GLY6        4 GROUP   
     7 CUB7        2 GROUP   
@<TRIPOS>SET

