#    Name: 2x93_X93_1_INTS_M
#    Modification time : Tue Mar 25 05:31:17 2014

@<TRIPOS>MOLECULE
2x93_X93_1_INTS_M
   68     0    12     0     0
SMALL
NO_CHARGES


@<TRIPOS>ATOM
      1 CA         29.5620    3.8390  -24.1450 C.3       4 GLC5        0.0000 
      2 CA         27.6950    2.7710  -23.9020 C.3      12 GLL5        0.0000 
      3 CA         31.4290    4.9070  -24.3880 C.3       8 GLP5        0.0000 
      4 CA         25.2770    1.0690  -24.9690 C.3       4 GLC5        0.0000 
      5 CA         27.1760    0.2660  -24.2180 C.3      12 GLL5        0.0000 
      6 CA         23.3780    1.8720  -25.7200 C.3       8 GLP5        0.0000 
      7 Zn         27.1695   -1.8370  -20.7005 Zn        3 ZIC7        0.0000 
      8 Zn         27.7240   -1.4580  -21.4050 Zn       11 ZIL7        0.0000 
      9 Zn         26.6150   -2.2160  -19.9960 Zn        7 ZIP7        0.0000 
     10 N          29.0305   -1.1330  -21.5850 N.am      1 SEC2        0.0000 
     11 N          27.7240   -1.4580  -21.4050 N.am      9 SEL2        0.0000 
     12 N          30.3370   -0.8080  -21.7650 N.am      5 SEP2        0.0000 
     13 Zn         26.1875   -1.9765  -21.2025 Zn        3 ZIC7        0.0000 
     14 Zn         25.7600   -1.7370  -22.4090 Zn       11 ZIL7        0.0000 
     15 N          24.9080   -2.4745  -23.1545 N.am      1 SEC2        0.0000 
     16 N          25.7600   -1.7370  -22.4090 N.am      9 SEL2        0.0000 
     17 N          24.0560   -3.2120  -23.9000 N.am      5 SEP2        0.0000 
     18 CA         25.2400   -3.9500  -26.5515 C.3       4 GLC5        0.0000 
     19 CA         27.0170   -4.4600  -25.5270 C.3      12 GLL5        0.0000 
     20 CA         23.4630   -3.4400  -27.5760 C.3       8 GLP5        0.0000 
     21 CA         25.4070   -5.8445  -25.7395 C.3       4 GLC5        0.0000 
     22 CA         23.7970   -7.2290  -25.9520 C.3       8 GLP5        0.0000 
     23 N          29.3730   -2.2300  -26.2570 N.am      1 SEC2        0.0000 
     24 N          29.7720   -2.8530  -25.1560 N.am      9 SEL2        0.0000 
     25 N          28.9740   -1.6070  -27.3580 N.am      5 SEP2        0.0000 
     26 CA         30.0790   -4.1210  -21.5410 C.3       4 GLC5        0.0000 
     27 CA         29.4260   -5.5370  -22.7200 C.3      12 GLL5        0.0000 
     28 CA         30.7320   -2.7050  -20.3620 C.3       8 GLP5        0.0000 
     29 CA         26.7015   -5.5960  -21.8810 C.3       4 GLC5        0.0000 
     30 CA         28.1600   -6.3570  -23.0130 C.3      12 GLL5        0.0000 
     31 CA         25.2430   -4.8350  -20.7490 C.3       8 GLP5        0.0000 
     32 CA         26.5385   -6.7615  -21.0925 C.3       4 GLC5        0.0000 
     33 CA         27.9620   -7.4240  -21.9050 C.3      12 GLL5        0.0000 
     34 CA         25.1150   -6.0990  -20.2800 C.3       8 GLP5        0.0000 
     35 CA         33.3725   -6.1600  -21.9910 C.3       4 GLC5        0.0000 
     36 CA         31.7910   -5.5720  -22.7380 C.3      12 GLL5        0.0000 
     37 CA         34.9540   -6.7480  -21.2440 C.3       8 GLP5        0.0000 
     38 CA         31.0370   -3.6080  -22.0600 C.3       4 GLC5        0.0000 
     39 CA         31.3420   -4.5110  -23.7580 C.3      12 GLL5        0.0000 
     40 NZ         33.5905   -4.2285  -26.6055 N.4       2 LYC4        0.0000 
     41 NZ         32.9850   -4.3910  -25.4650 N.4      10 LYL4        0.0000 
     42 NZ         34.1960   -4.0660  -27.7460 N.4       6 LYP4        0.0000 
     43 N          33.4070   -5.8975  -25.7730 N.am      1 SEC2        0.0000 
     44 N          32.9850   -4.3910  -25.4650 N.am      9 SEL2        0.0000 
     45 N          33.8290   -7.4040  -26.0810 N.am      5 SEP2        0.0000 
     46 N          33.5905   -4.2285  -26.6055 N.am      1 SEC2        0.0000 
     47 N          34.1960   -4.0660  -27.7460 N.am      5 SEP2        0.0000 
     48 N          33.9535   -4.4375  -24.6585 N.am      1 SEC2        0.0000 
     49 N          34.9220   -4.4840  -23.8520 N.am      5 SEP2        0.0000 
     50 NZ         32.6740   -4.8045  -26.8350 N.4       2 LYC4        0.0000 
     51 NZ         31.1520   -5.5430  -25.9240 N.4      10 LYL4        0.0000 
     52 N          32.4905   -6.4735  -26.0025 N.am      1 SEC2        0.0000 
     53 N          31.1520   -5.5430  -25.9240 N.am      9 SEL2        0.0000 
     54 CA         29.5096    4.9276  -24.1502 C.3       4 GLC5        0.0000 
     55 CA         28.1580    3.8080  -23.0850 C.3      12 GLL5        0.0000 
     56 CA         25.1060    2.8007  -25.4730 C.3       4 GLC5        0.0000 
     57 CA         26.6970    4.3920  -25.3940 C.3      12 GLL5        0.0000 
     58 CA         27.6965   -0.6360  -25.9680 C.3       4 GLC5        0.0000 
     59 CA         28.0000   -0.8360  -27.9420 C.3       8 GLP5        0.0000 
     60 CA         27.6555   -2.4138  -26.4667 C.3       4 GLC5        0.0000 
     61 CA         27.6050   -3.5230  -24.4560 C.3      12 GLL5        0.0000 
     62 CA         31.0480   -8.3788  -20.0435 C.3       4 GLC5        0.0000 
     63 CA         30.5100   -7.4140  -21.5030 C.3      12 GLL5        0.0000 
     64 CA         32.2250   -8.9150  -18.5310 C.3       8 GLP5        0.0000 
     65 CA         33.5358   -4.2272  -23.2270 C.3       4 GLC5        0.0000 
     66 CA         35.5050   -3.4130  -23.2060 C.3       8 GLP5        0.0000 
     67 CA         31.4021   -4.8904  -21.0465 C.3       4 GLC5        0.0000 
     68 CA         31.6320   -3.5130  -19.6640 C.3       8 GLP5        0.0000 
@<TRIPOS>BOND
@<TRIPOS>SUBSTRUCTURE
     1 SEC2       10 GROUP        1 X    SEC  0     ROOT SEC X 2
     2 LYC4       40 GROUP        1 X    LYC  0     **** LYC X 4
     3 ZIC7        7 GROUP        1 X    ZIC  0     **** ZIC X 5
     4 GLC5        1 GROUP        1 X    GLC  0     **** GLC X 6
     5 SEP2       12 GROUP        1 Y    SEP  0     ROOT SEP Y 9
     6 LYP4       42 GROUP        1 Y    LYP  0     **** LYP Y 11
     7 ZIP7        9 GROUP        1 Y    ZIP  0     **** ZIP Y 12
     8 GLP5        3 GROUP        1 Y    GLP  0     **** GLP Y 13
     9 SEL2       11 GROUP        1 Z    SEL  0     ROOT SEL Z 16
    10 LYL4       41 GROUP        1 Z    LYL  0     **** LYL Z 18
    11 ZIL7        8 GROUP        1 Z    ZIL  0     **** ZIL Z 19
    12 GLL5        2 GROUP        1 Z    GLL  0     **** GLL Z 20
@<TRIPOS>SET

