#    Name: 2x93_X93_1_ligand
#    Modification time : Tue Mar 25 05:31:17 2014

@<TRIPOS>MOLECULE
2x93_X93_1_ligand
   56    58     1     0     0
SMALL
NO_CHARGES


@<TRIPOS>ATOM
      1 CAJ        28.1580    3.8080  -23.0850 C.ar      1 X931623     0.0000 
      2 CAH        27.8870    5.1350  -23.4170 C.ar      1 X931623     0.0000 
      3 CAG        27.1580    5.4250  -24.5740 C.ar      1 X931623     0.0000 
      4 CAI        26.6970    4.3920  -25.3940 C.ar      1 X931623     0.0000 
      5 CAK        26.9710    3.0670  -25.0580 C.ar      1 X931623     0.0000 
      6 CAW        27.6950    2.7710  -23.9020 C.ar      1 X931623     0.0000 
      7 CAN        28.0140    1.3260  -23.4970 C.3       1 X931623     0.0000 
      8 CAQ        27.1760    0.2660  -24.2180 C.3       1 X931623     0.0000 
      9 CAY        27.6100   -1.1380  -23.7700 C.3       1 X931623     0.0000 
     10 CAT        26.9760   -1.4710  -22.4130 C.2       1 X931623     0.0000 
     11 OAE        27.7240   -1.4580  -21.4050 O.co2     1 X931623     0.0000 
     12 OAB        25.7600   -1.7370  -22.4090 O.co2     1 X931623     0.0000 
     13 N          27.2130   -2.1350  -24.7870 N.4       1 X931623     0.0000 
     14 CA         27.6050   -3.5230  -24.4560 C.3       1 X931623     0.0000 
     15 CB         27.0170   -4.4600  -25.5270 C.3       1 X931623     0.0000 
     16 C          29.1390   -3.6310  -24.4420 C.2       1 X931623     0.0000 
     17 O          29.7720   -2.8530  -25.1560 O.2       1 X931623     0.0000 
     18 NBC        29.8550   -4.5230  -23.7240 N.am      1 X931623     0.0000 
     19 CBB        29.4260   -5.5370  -22.7200 C.3       1 X931623     0.0000 
     20 CAP        28.1600   -6.3570  -23.0130 C.3       1 X931623     0.0000 
     21 CAM        27.9620   -7.4240  -21.9050 C.3       1 X931623     0.0000 
     22 CAL        29.2320   -8.2710  -21.6090 C.3       1 X931623     0.0000 
     23 CAO        30.5100   -7.4140  -21.5030 C.3       1 X931623     0.0000 
     24 CAZ        30.5970   -6.5130  -22.7370 C.3       1 X931623     0.0000 
     25 CAR        31.7910   -5.5720  -22.7380 C.3       1 X931623     0.0000 
     26 CBA        31.3420   -4.5110  -23.7580 C.3       1 X931623     0.0000 
     27 CAU        31.8720   -4.8510  -25.1690 C.2       1 X931623     0.0000 
     28 OAF        32.9850   -4.3910  -25.4650 O.co2     1 X931623     0.0000 
     29 OAC        31.1520   -5.5430  -25.9240 O.co2     1 X931623     0.0000 
     30 H          28.6985    3.5894  -22.2393 H         1 X931623     0.0000 
     31 H          28.2201    5.8953  -22.8165 H         1 X931623     0.0000 
     32 H          26.9604    6.4028  -24.8223 H         1 X931623     0.0000 
     33 H          26.1594    4.6089  -26.2392 H         1 X931623     0.0000 
     34 H          26.6390    2.3049  -25.6632 H         1 X931623     0.0000 
     35 H          27.8635    1.2207  -22.4090 H         1 X931623     0.0000 
     36 H          29.0822    1.1301  -23.6922 H         1 X931623     0.0000 
     37 H          27.3206    0.3594  -25.2878 H         1 X931623     0.0000 
     38 H          26.1294    0.4094  -23.9769 H         1 X931623     0.0000 
     39 H          28.6828   -1.1353  -23.6519 H         1 X931623     0.0000 
     40 H          27.2238   -3.8042  -23.5040 H         1 X931623     0.0000 
     41 H          29.3890   -5.1171  -21.7451 H         1 X931623     0.0000 
     42 H          28.2650   -6.8556  -23.9655 H         1 X931623     0.0000 
     43 H          27.3009   -5.7023  -23.0272 H         1 X931623     0.0000 
     44 H          27.1516   -8.0997  -22.2052 H         1 X931623     0.0000 
     45 H          27.6523   -6.9210  -20.9806 H         1 X931623     0.0000 
     46 H          29.3575   -9.0042  -22.4094 H         1 X931623     0.0000 
     47 H          29.0822   -8.8089  -20.6698 H         1 X931623     0.0000 
     48 H          31.3692   -8.0633  -21.4674 H         1 X931623     0.0000 
     49 H          30.4559   -6.8069  -20.6145 H         1 X931623     0.0000 
     50 H          30.5648   -7.0609  -23.6281 H         1 X931623     0.0000 
     51 H          32.6450   -6.0671  -23.0989 H         1 X931623     0.0000 
     52 H          31.9040   -5.1255  -21.7933 H         1 X931623     0.0000 
     53 H          31.7122   -3.5655  -23.4494 H         1 X931623     0.0000 
     54 H          27.3526   -4.2353  -26.4418 H         1 X931623     0.0000 
     55 H          27.2540   -5.4161  -25.3546 H         1 X931623     0.0000 
     56 H          26.0190   -4.4067  -25.5596 H         1 X931623     0.0000 
@<TRIPOS>BOND
     1    2    1 ar   
     2    6    1 ar   
     3   30    1 1    
     4    3    2 ar   
     5   31    2 1    
     6    4    3 ar   
     7   32    3 1    
     8    5    4 ar   
     9   33    4 1    
    10    6    5 ar   
    11   34    5 1    
    12    7    6 1    
    13    8    7 1    
    14   35    7 1    
    15   36    7 1    
    16    9    8 1    
    17   37    8 1    
    18   38    8 1    
    19   10    9 1    
    20   13    9 1    
    21   39    9 1    
    22   11   10 ar   
    23   12   10 ar   
    24   14   13 1    
    25   15   14 1    
    26   16   14 1    
    27   40   14 1    
    28   54   15 1    
    29   55   15 1    
    30   56   15 1    
    31   17   16 2    
    32   18   16 am   
    33   19   18 1    
    34   26   18 1    
    35   20   19 1    
    36   24   19 1    
    37   41   19 1    
    38   21   20 1    
    39   42   20 1    
    40   43   20 1    
    41   22   21 1    
    42   44   21 1    
    43   45   21 1    
    44   23   22 1    
    45   46   22 1    
    46   47   22 1    
    47   24   23 1    
    48   48   23 1    
    49   49   23 1    
    50   25   24 1    
    51   50   24 1    
    52   26   25 1    
    53   51   25 1    
    54   52   25 1    
    55   27   26 1    
    56   53   26 1    
    57   28   27 ar   
    58   29   27 ar   
@<TRIPOS>SUBSTRUCTURE
     1 X931623     1 GROUP   
@<TRIPOS>SET

