#    Name: 1tll_FMN_1_INTS_M
#    Modification time : Tue Mar 25 05:30:12 2014

@<TRIPOS>MOLECULE
1tll_FMN_1_INTS_M
   85     0     9     0     0
SMALL
NO_CHARGES


@<TRIPOS>ATOM
      1 N           8.9365    4.0590   -6.0420 N.am      2 SEC2        0.0000 
      2 N           9.3130    5.0980   -4.9730 N.am      8 SEL2        0.0000 
      3 N           8.5600    3.0200   -7.1110 N.am      5 SEP2        0.0000 
      4 N          10.4735    5.5510   -4.7265 N.am      2 SEC2        0.0000 
      5 N          11.6340    6.0040   -4.4800 N.am      5 SEP2        0.0000 
      6 O           8.7225    7.3905   -3.7210 O.2       1 ALC1        0.0000 
      7 O           7.7540    6.2140   -3.6890 O.2       7 ALL1        0.0000 
      8 O           9.6910    8.5670   -3.7530 O.2       4 ALP1        0.0000 
      9 N           6.1585    8.2905   -1.2605 N.am      2 SEC2        0.0000 
     10 N           6.3070    7.4790   -2.4480 N.am      8 SEL2        0.0000 
     11 N           6.0100    9.1020   -0.0730 N.am      5 SEP2        0.0000 
     12 CA          1.0300    2.0615   -0.3400 C.3       3 GLC5        0.0000 
     13 CA         -0.0060    3.4350   -1.2560 C.3       9 GLL5        0.0000 
     14 CA          2.0660    0.6880    0.5760 C.3       6 GLP5        0.0000 
     15 CA         -1.4055    3.0695   -0.3770 C.3       3 GLC5        0.0000 
     16 CA         -2.8050    2.7040    0.5020 C.3       6 GLP5        0.0000 
     17 CA          1.7955    0.1275   -1.3715 C.3       3 GLC5        0.0000 
     18 CA          0.7640    0.5920   -2.7380 C.3       9 GLL5        0.0000 
     19 CA          2.8270   -0.3370   -0.0050 C.3       6 GLP5        0.0000 
     20 CA          6.0605    2.1545   -6.3085 C.3       3 GLC5        0.0000 
     21 CA          5.7280    1.6070   -4.4040 C.3       9 GLL5        0.0000 
     22 CA          6.3930    2.7020   -8.2130 C.3       6 GLP5        0.0000 
     23 CA          4.4795    2.9760   -5.4745 C.3       3 GLC5        0.0000 
     24 CA          3.2310    4.3450   -6.5450 C.3       6 GLP5        0.0000 
     25 CA          5.2980    0.1595   -1.6520 C.3       3 GLC5        0.0000 
     26 CA          6.3830    0.6380   -3.4120 C.3       9 GLL5        0.0000 
     27 CA          4.2130   -0.3190    0.1080 C.3       6 GLP5        0.0000 
     28 N           8.4060    1.7160   -1.4665 N.am      2 SEC2        0.0000 
     29 N           7.4310    1.2760   -2.8470 N.am      8 SEL2        0.0000 
     30 N           9.3810    2.1560   -0.0860 N.am      5 SEP2        0.0000 
     31 O           7.1935    1.9645   -1.7480 O.2       1 ALC1        0.0000 
     32 O           7.4310    1.2760   -2.8470 O.2       7 ALL1        0.0000 
     33 O           6.9560    2.6530   -0.6490 O.2       4 ALP1        0.0000 
     34 CA          6.9605   -1.1025   -6.3410 C.3       3 GLC5        0.0000 
     35 CA          6.7600   -0.4810   -4.1990 C.3       9 GLL5        0.0000 
     36 CA          7.1610   -1.7240   -8.4830 C.3       6 GLP5        0.0000 
     37 O           5.0635   -1.2470   -5.9455 O.2       1 ALC1        0.0000 
     38 O           5.4860   -1.1270   -4.7480 O.2       7 ALL1        0.0000 
     39 O           4.6410   -1.3670   -7.1430 O.2       4 ALP1        0.0000 
     40 CA          9.5075   -1.6550   -3.3980 C.3       3 GLC5        0.0000 
     41 CA          7.4760   -1.6190   -3.5160 C.3       9 GLL5        0.0000 
     42 CA         11.5390   -1.6910   -3.2800 C.3       6 GLP5        0.0000 
     43 N           7.0405   -3.4975   -5.0795 N.am      2 SEC2        0.0000 
     44 N           7.7370   -2.5940   -4.5030 N.am      8 SEL2        0.0000 
     45 N           6.3440   -4.4010   -5.6560 N.am      5 SEP2        0.0000 
     46 N           8.9300   -2.5685   -5.5710 N.am      2 SEC2        0.0000 
     47 N          10.1230   -2.5430   -6.6390 N.am      5 SEP2        0.0000 
     48 CA          5.4625   -1.3235   -1.1200 C.3       3 GLC5        0.0000 
     49 CA          6.7120   -2.3280   -2.3480 C.3       9 GLL5        0.0000 
     50 N           8.3855   -4.9075    1.2330 N.am      2 SEC2        0.0000 
     51 N           8.6990   -4.1930    0.1470 N.am      8 SEL2        0.0000 
     52 N           8.0720   -5.6220    2.3190 N.am      5 SEP2        0.0000 
     53 N           9.6710   -5.2705    0.0300 N.am      2 SEC2        0.0000 
     54 N          10.6430   -6.3480   -0.0870 N.am      5 SEP2        0.0000 
     55 N          10.1195   -3.9435    0.3130 N.am      2 SEC2        0.0000 
     56 N          11.5400   -3.6940    0.4790 N.am      5 SEP2        0.0000 
     57 N           7.4895   -4.2110    1.5300 N.am      2 SEC2        0.0000 
     58 N           6.9070   -2.8000    0.7410 N.am      8 SEL2        0.0000 
     59 N           6.5500   -3.1160    1.9420 N.am      2 SEC2        0.0000 
     60 N           6.1930   -3.4320    3.1430 N.am      5 SEP2        0.0000 
     61 N           5.7185   -3.9065    1.2560 N.am      2 SEC2        0.0000 
     62 N           4.5300   -5.0130    1.7710 N.am      5 SEP2        0.0000 
     63 N           7.8385   -1.8750    0.9250 N.am      2 SEC2        0.0000 
     64 N           8.7700   -0.9500    1.1090 N.am      5 SEP2        0.0000 
     65 N           7.3755   -5.2470    0.7635 N.am      2 SEC2        0.0000 
     66 N           6.6790   -4.8720   -0.7920 N.am      8 SEL2        0.0000 
     67 N           5.6045   -4.9425    0.4895 N.am      2 SEC2        0.0000 
     68 N           5.5520   -5.2665   -0.9935 N.am      2 SEC2        0.0000 
     69 N           4.4250   -5.6610   -1.1950 N.am      5 SEP2        0.0000 
     70 N           7.3635   -6.2545   -0.6100 N.am      2 SEC2        0.0000 
     71 N           8.0480   -7.6370   -0.4280 N.am      5 SEP2        0.0000 
     72 CA          2.6675    5.3175   -0.4025 C.3       3 GLC5        0.0000 
     73 CA          3.5140    4.1740   -2.3850 C.3       9 GLL5        0.0000 
     74 CA          2.4880    6.4260    1.2860 C.3       6 GLP5        0.0000 
     75 CA         -0.4010    3.9488   -3.1620 C.3       3 GLC5        0.0000 
     76 CA          1.2540    3.0720   -1.9020 C.3       9 GLL5        0.0000 
     77 CA         -1.4260    4.6440   -4.7450 C.3       6 GLP5        0.0000 
     78 CA          4.3447    3.7420   -0.7750 C.3       3 GLC5        0.0000 
     79 CA          5.2850    3.9260    1.0400 C.3       6 GLP5        0.0000 
     80 CA          8.0879    1.1449   -4.6723 C.3       3 GLC5        0.0000 
     81 CA          9.7680    1.9690   -5.2910 C.3       6 GLP5        0.0000 
     82 CA          6.7000   -3.7663   -3.8275 C.3       3 GLC5        0.0000 
     83 CA          6.3060   -5.5590   -4.7230 C.3       6 GLP5        0.0000 
     84 CA          8.2375   -1.3577   -1.5400 C.3       3 GLC5        0.0000 
     85 CA          9.3810   -0.7420   -0.1480 C.3       6 GLP5        0.0000 
@<TRIPOS>BOND
@<TRIPOS>SUBSTRUCTURE
     1 ALC1        6 GROUP        1 X    ALC  0     ROOT ALC X 1
     2 SEC2        1 GROUP        1 X    SEC  0     **** SEC X 2
     3 GLC5       12 GROUP        1 X    GLC  0     **** GLC X 6
     4 ALP1        8 GROUP        1 Y    ALP  0     ROOT ALP Y 8
     5 SEP2        3 GROUP        1 Y    SEP  0     **** SEP Y 9
     6 GLP5       14 GROUP        1 Y    GLP  0     **** GLP Y 13
     7 ALL1        7 GROUP        1 Z    ALL  0     ROOT ALL Z 15
     8 SEL2        2 GROUP        1 Z    SEL  0     **** SEL Z 16
     9 GLL5       13 GROUP        1 Z    GLL  0     **** GLL Z 20
@<TRIPOS>SET

