#    Name: 1tll_FMN_1_ligand
#    Modification time : Tue Mar 25 05:30:12 2014

@<TRIPOS>MOLECULE
1tll_FMN_1_ligand
   50    52     1     0     0
SMALL
NO_CHARGES


@<TRIPOS>ATOM
      1 N1          7.3540    3.9690   -4.3360 N.2       1 FMN1451     0.0000 
      2 C2          8.2010    5.0010   -4.3980 C.2       1 FMN1451     0.0000 
      3 O2          9.3130    5.0980   -4.9730 O.2       1 FMN1451     0.0000 
      4 N3          7.7540    6.2140   -3.6890 N.am      1 FMN1451     0.0000 
      5 C4          6.4620    6.3380   -2.9560 C.2       1 FMN1451     0.0000 
      6 O4          6.3070    7.4790   -2.4480 O.2       1 FMN1451     0.0000 
      7 C4A         5.6610    5.2710   -2.9570 C.2       1 FMN1451     0.0000 
      8 N5          4.4800    5.3110   -2.3690 N.2       1 FMN1451     0.0000 
      9 C5A         3.5140    4.1740   -2.3850 C.ar      1 FMN1451     0.0000 
     10 C6          2.1800    4.2440   -1.7970 C.ar      1 FMN1451     0.0000 
     11 C7          1.2540    3.0720   -1.9020 C.ar      1 FMN1451     0.0000 
     12 C7M        -0.0060    3.4350   -1.2560 C.3       1 FMN1451     0.0000 
     13 C8          1.6650    1.7790   -2.5990 C.ar      1 FMN1451     0.0000 
     14 C8M         0.7640    0.5920   -2.7380 C.3       1 FMN1451     0.0000 
     15 C9          2.9440    1.7090   -3.1450 C.ar      1 FMN1451     0.0000 
     16 C9A         3.9620    2.9070   -3.0890 C.ar      1 FMN1451     0.0000 
     17 N10         5.2760    2.7820   -3.7330 N.pl3     1 FMN1451     0.0000 
     18 C10         6.1410    3.9570   -3.7070 C.2       1 FMN1451     0.0000 
     19 C1'         5.7280    1.6070   -4.4040 C.3       1 FMN1451     0.0000 
     20 C2'         6.3830    0.6380   -3.4120 C.3       1 FMN1451     0.0000 
     21 O2'         7.4310    1.2760   -2.8470 O.3       1 FMN1451     0.0000 
     22 C3'         6.7600   -0.4810   -4.1990 C.3       1 FMN1451     0.0000 
     23 O3'         5.4860   -1.1270   -4.7480 O.3       1 FMN1451     0.0000 
     24 C4'         7.4760   -1.6190   -3.5160 C.3       1 FMN1451     0.0000 
     25 O4'         7.7370   -2.5940   -4.5030 O.3       1 FMN1451     0.0000 
     26 C5'         6.7120   -2.3280   -2.3480 C.3       1 FMN1451     0.0000 
     27 O5'         7.7610   -2.9220   -1.6390 O.3       1 FMN1451     0.0000 
     28 P           7.4570   -3.7190   -0.3400 P.3       1 FMN1451     0.0000 
     29 O1P         8.6990   -4.1930    0.1470 O.co2     1 FMN1451     0.0000 
     30 O2P         6.9070   -2.8000    0.7410 O.co2     1 FMN1451     0.0000 
     31 O3P         6.6790   -4.8720   -0.7920 O.co2     1 FMN1451     0.0000 
     32 H           8.3749    7.0387   -3.6971 H         1 FMN1451     0.0000 
     33 H           1.8694    5.0657   -1.3215 H         1 FMN1451     0.0000 
     34 H           3.3059    0.8780   -3.6169 H         1 FMN1451     0.0000 
     35 H           6.4720    1.8399   -5.1789 H         1 FMN1451     0.0000 
     36 H           4.9011    1.0718   -4.8920 H         1 FMN1451     0.0000 
     37 H           5.6076    0.3678   -2.7148 H         1 FMN1451     0.0000 
     38 H           7.3361   -0.1954   -5.0787 H         1 FMN1451     0.0000 
     39 H           8.4190   -1.2522   -3.1105 H         1 FMN1451     0.0000 
     40 H           6.0434   -3.0279   -2.7942 H         1 FMN1451     0.0000 
     41 H           6.2014   -1.5669   -1.8040 H         1 FMN1451     0.0000 
     42 H           0.1234    3.6619   -0.2907 H         1 FMN1451     0.0000 
     43 H          -0.4301    4.2300   -1.6896 H         1 FMN1451     0.0000 
     44 H          -0.6717    2.6898   -1.2953 H         1 FMN1451     0.0000 
     45 H           1.2109   -0.1585   -3.2247 H         1 FMN1451     0.0000 
     46 H           0.4791    0.2358   -1.8481 H         1 FMN1451     0.0000 
     47 H          -0.0688    0.8152   -3.2446 H         1 FMN1451     0.0000 
     48 H           7.0473    1.7545   -2.0572 H         1 FMN1451     0.0000 
     49 H           5.5272   -0.9810   -5.7364 H         1 FMN1451     0.0000 
     50 H           8.4621   -3.1646   -4.1175 H         1 FMN1451     0.0000 
@<TRIPOS>BOND
     1    2    1 1    
     2   18    1 2    
     3    3    2 2    
     4    4    2 am   
     5    5    4 am   
     6   32    4 1    
     7    6    5 2    
     8    7    5 1    
     9    8    7 2    
    10   18    7 1    
    11    9    8 1    
    12   10    9 ar   
    13   16    9 ar   
    14   11   10 ar   
    15   33   10 1    
    16   12   11 1    
    17   13   11 ar   
    18   42   12 1    
    19   43   12 1    
    20   44   12 1    
    21   14   13 1    
    22   15   13 ar   
    23   45   14 1    
    24   46   14 1    
    25   47   14 1    
    26   16   15 ar   
    27   34   15 1    
    28   17   16 1    
    29   18   17 1    
    30   19   17 1    
    31   20   19 1    
    32   35   19 1    
    33   36   19 1    
    34   21   20 1    
    35   22   20 1    
    36   37   20 1    
    37   48   21 1    
    38   23   22 1    
    39   24   22 1    
    40   38   22 1    
    41   49   23 1    
    42   25   24 1    
    43   26   24 1    
    44   39   24 1    
    45   50   25 1    
    46   27   26 1    
    47   40   26 1    
    48   41   26 1    
    49   28   27 1    
    50   29   28 ar   
    51   30   28 ar   
    52   31   28 ar   
@<TRIPOS>SUBSTRUCTURE
     1 FMN1451     1 GROUP   
@<TRIPOS>SET

