#    Name: 4mbs_MRV_2_INTS_M
#    Modification time : Tue Apr  8 00:16:45 2014

@<TRIPOS>MOLECULE
4mbs_MRV_2_INTS_M
   83     0     9     0     0
SMALL
NO_CHARGES


@<TRIPOS>ATOM
      1 CA        179.7195  116.2255   16.2200 C.3       3 GLC5        0.0000 
      2 CA        180.6070  115.0910   17.7180 C.3       9 GLL5        0.0000 
      3 CA        178.8320  117.3600   14.7220 C.3       6 GLP5        0.0000 
      4 CA        189.0105  106.3060   23.5190 C.3       3 GLC5        0.0000 
      5 CA        188.6140  108.2570   22.6070 C.3       9 GLL5        0.0000 
      6 CA        189.4070  104.3550   24.4310 C.3       6 GLP5        0.0000 
      7 CA        185.5910  110.4010   25.3020 C.3       3 GLC5        0.0000 
      8 CA        184.9490  110.5220   23.4210 C.3       9 GLL5        0.0000 
      9 CA        186.2330  110.2800   27.1830 C.3       6 GLP5        0.0000 
     10 CA        182.9440  109.9065   24.0090 C.3       3 GLC5        0.0000 
     11 CA        180.9390  109.2910   24.5970 C.3       6 GLP5        0.0000 
     12 CA        189.2095  109.8610   25.9230 C.3       3 GLC5        0.0000 
     13 CA        190.8430  109.7140   24.4350 C.3       9 GLL5        0.0000 
     14 CA        187.5760  110.0080   27.4110 C.3       6 GLP5        0.0000 
     15 CA        182.2150  111.6525   23.9710 C.3       3 GLC5        0.0000 
     16 CA        183.8560  112.7280   23.6750 C.3       9 GLL5        0.0000 
     17 CA        180.5740  110.5770   24.2670 C.3       6 GLP5        0.0000 
     18 CA        189.6420  105.0500   21.9780 C.3       3 GLC5        0.0000 
     19 CA        190.2500  106.2570   20.7800 C.3       9 GLL5        0.0000 
     20 CA        189.0340  103.8430   23.1760 C.3       6 GLP5        0.0000 
     21 CA        190.2965  104.7075   19.9775 C.3       3 GLC5        0.0000 
     22 CA        190.3430  103.1580   19.1750 C.3       6 GLP5        0.0000 
     23 CA        190.9360  112.8100   24.1365 C.3       3 GLC5        0.0000 
     24 CA        191.6840  110.9770   24.2050 C.3       9 GLL5        0.0000 
     25 CA        190.1880  114.6430   24.0680 C.3       6 GLP5        0.0000 
     26 CA        192.9675  112.2005   25.1055 C.3       3 GLC5        0.0000 
     27 CA        194.2510  113.4240   26.0060 C.3       6 GLP5        0.0000 
     28 CA        179.8890  117.2685   16.2175 C.3       3 GLC5        0.0000 
     29 CA        180.9460  117.1770   17.7130 C.3       9 GLL5        0.0000 
     30 O         187.1350  110.8250   23.8940 O.2       1 ALC1        0.0000 
     31 O         186.2690  109.8690   23.2700 O.2       7 ALL1        0.0000 
     32 O         188.0010  111.7810   24.5180 O.2       4 ALP1        0.0000 
     33 CA        190.7085  107.1240   26.0530 C.3       3 GLC5        0.0000 
     34 CA        191.0460  109.1010   25.8130 C.3       9 GLL5        0.0000 
     35 CA        190.3710  105.1470   26.2930 C.3       6 GLP5        0.0000 
     36 CA        189.5055  108.9280   26.8355 C.3       3 GLC5        0.0000 
     37 CA        187.9650  108.7550   27.8580 C.3       6 GLP5        0.0000 
     38 CA        191.6930  109.3450   27.6110 C.3       3 GLC5        0.0000 
     39 CA        192.3400  109.5890   29.4090 C.3       6 GLP5        0.0000 
     40 CA        179.4120  117.9295   20.8310 C.3       3 GLC5        0.0000 
     41 CA        180.2610  116.2690   19.8270 C.3       9 GLL5        0.0000 
     42 CA        178.5630  119.5900   21.8350 C.3       6 GLP5        0.0000 
     43 CA        181.8205  114.2150   25.2155 C.3       3 GLC5        0.0000 
     44 CA        183.2060  112.6530   25.9960 C.3       9 GLL5        0.0000 
     45 CA        180.4350  115.7770   24.4350 C.3       6 GLP5        0.0000 
     46 CA        186.6880  106.5070   24.4535 C.3       3 GLC5        0.0000 
     47 CA        186.3540  108.4930   23.8350 C.3       9 GLL5        0.0000 
     48 CA        187.0220  104.5210   25.0720 C.3       6 GLP5        0.0000 
     49 CA        185.8185  108.8855   25.6065 C.3       3 GLC5        0.0000 
     50 CA        185.2830  109.2780   27.3780 C.3       6 GLP5        0.0000 
     51 N         193.5680  108.5835   23.5490 N.am      2 SEC2        0.0000 
     52 N         192.2790  108.1260   23.0220 N.am      8 SEL2        0.0000 
     53 N         194.8570  109.0410   24.0760 N.am      5 SEP2        0.0000 
     54 O         184.3855  115.0030   22.7720 O.2       1 ALC1        0.0000 
     55 O         183.4230  113.8050   22.7690 O.2       7 ALL1        0.0000 
     56 O         185.3480  116.2010   22.7750 O.2       4 ALP1        0.0000 
     57 CA        188.1115  106.3720   24.6550 C.3       3 GLC5        0.0000 
     58 CA        187.8330  108.0490   23.9560 C.3       9 GLL5        0.0000 
     59 CA        188.3900  104.6950   25.3540 C.3       6 GLP5        0.0000 
     60 CA        187.8990  108.4020   25.9070 C.3       3 GLC5        0.0000 
     61 CA        186.1745  105.8180   23.3025 C.3       3 GLC5        0.0000 
     62 CA        185.6610  107.6220   22.7780 C.3       9 GLL5        0.0000 
     63 CA        186.6880  104.0140   23.8270 C.3       6 GLP5        0.0000 
     64 CA        179.4170  114.5610   17.3505 C.3       3 GLC5        0.0000 
     65 CA        177.9910  113.5190   16.6010 C.3       6 GLP5        0.0000 
     66 CA        180.8625  115.3695   22.6737 C.3       3 GLC5        0.0000 
     67 CA        180.5230  115.0630   20.7980 C.3       9 GLL5        0.0000 
     68 CA        184.5770  115.9472   19.4097 C.3       3 GLC5        0.0000 
     69 CA        182.5960  115.8910   18.7600 C.3       9 GLL5        0.0000 
     70 CA        186.4550  116.6150   19.6030 C.3       6 GLP5        0.0000 
     71 CA        178.4480  115.5805   20.6833 C.3       3 GLC5        0.0000 
     72 CA        176.5040  115.4950   21.0540 C.3       6 GLP5        0.0000 
     73 CA        182.9614  117.0714   20.2165 C.3       3 GLC5        0.0000 
     74 CA        182.0570  114.8610   21.0270 C.3       9 GLL5        0.0000 
     75 CA        183.4100  118.8150   20.8780 C.3       6 GLP5        0.0000 
     76 CA        182.0234  117.6363   19.9201 C.3       3 GLC5        0.0000 
     77 CA        181.0790  116.1150   18.4820 C.3       9 GLL5        0.0000 
     78 CA        187.1320  114.0070   25.3245 C.3       3 GLC5        0.0000 
     79 CA        185.1980  113.9070   25.3670 C.3       9 GLL5        0.0000 
     80 CA        188.9600  113.9420   24.6110 C.3       6 GLP5        0.0000 
     81 CA        183.6132  112.8072   29.4973 C.3       3 GLC5        0.0000 
     82 CA        184.5130  113.7850   27.6910 C.3       9 GLL5        0.0000 
     83 CA        183.2660  112.2250   31.4800 C.3       6 GLP5        0.0000 
@<TRIPOS>BOND
@<TRIPOS>SUBSTRUCTURE
     1 ALC1       30 GROUP        1 X    ALC  0     ROOT ALC X 1
     2 SEC2       51 GROUP        1 X    SEC  0     **** SEC X 2
     3 GLC5        1 GROUP        1 X    GLC  0     **** GLC X 6
     4 ALP1       32 GROUP        1 Y    ALP  0     ROOT ALP Y 8
     5 SEP2       53 GROUP        1 Y    SEP  0     **** SEP Y 9
     6 GLP5        3 GROUP        1 Y    GLP  0     **** GLP Y 13
     7 ALL1       31 GROUP        1 Z    ALL  0     ROOT ALL Z 15
     8 SEL2       52 GROUP        1 Z    SEL  0     **** SEL Z 16
     9 GLL5        2 GROUP        1 Z    GLL  0     **** GLL Z 20
@<TRIPOS>SET

