#    Name: 4mbs_MRV_2_ligand
#    Modification time : Tue Apr  8 00:16:45 2014

@<TRIPOS>MOLECULE
4mbs_MRV_2_ligand
   79    83     1     0     0
SMALL
NO_CHARGES


@<TRIPOS>ATOM
      1 F1        180.6070  115.0910   17.7180 F         1 MRV1101     0.0000 
      2 O1        181.7160  112.6060   21.8210 O.2       1 MRV1101     0.0000 
      3 C1        188.6140  108.2570   22.6070 C.3       1 MRV1101     0.0000 
      4 N1        190.1250  108.0400   22.6250 N.pl3     1 MRV1101     0.0000 
      5 C10       184.9490  110.5220   23.4210 C.3       1 MRV1101     0.0000 
      6 C11       190.8430  109.7140   24.4350 C.3       1 MRV1101     0.0000 
      7 C12       185.0370  112.0070   23.0730 C.3       1 MRV1101     0.0000 
      8 C13       183.8560  112.7280   23.6750 C.3       1 MRV1101     0.0000 
      9 C14       190.2500  106.2570   20.7800 C.3       1 MRV1101     0.0000 
     10 C15       184.0850  113.1240   25.0020 C.ar      1 MRV1101     0.0000 
     11 C16       182.3610  113.6520   21.9310 C.2       1 MRV1101     0.0000 
     12 C17       182.0570  114.8610   21.0270 C.3       1 MRV1101     0.0000 
     13 C18       181.0790  116.1150   18.4820 C.3       1 MRV1101     0.0000 
     14 C19       191.6840  110.9770   24.2050 C.3       1 MRV1101     0.0000 
     15 F2        180.9460  117.1770   17.7130 F         1 MRV1101     0.0000 
     16 N2        186.2690  109.8690   23.2700 N.4       1 MRV1101     0.0000 
     17 C2        186.6350  109.6590   21.8550 C.3       1 MRV1101     0.0000 
     18 C20       191.0460  109.1010   25.8130 C.3       1 MRV1101     0.0000 
     19 C21       182.8020  114.6680   19.6730 C.3       1 MRV1101     0.0000 
     20 C22       180.5230  115.0630   20.7980 C.3       1 MRV1101     0.0000 
     21 C23       182.5960  115.8910   18.7600 C.3       1 MRV1101     0.0000 
     22 C24       180.2610  116.2690   19.8270 C.3       1 MRV1101     0.0000 
     23 C25       183.2060  112.6530   25.9960 C.ar      1 MRV1101     0.0000 
     24 C26       185.1980  113.9070   25.3670 C.ar      1 MRV1101     0.0000 
     25 C27       183.4080  112.9940   27.3380 C.ar      1 MRV1101     0.0000 
     26 C28       185.4100  114.2370   26.7090 C.ar      1 MRV1101     0.0000 
     27 C29       184.5130  113.7850   27.6910 C.ar      1 MRV1101     0.0000 
     28 C3        186.3540  108.4930   23.8350 C.3       1 MRV1101     0.0000 
     29 N3        192.2790  108.1260   23.0220 N.2       1 MRV1101     0.0000 
     30 C4        191.0820  108.6390   23.3480 C.2       1 MRV1101     0.0000 
     31 N4        192.1270  107.2800   22.1390 N.2       1 MRV1101     0.0000 
     32 N5        183.4230  113.8050   22.7690 N.am      1 MRV1101     0.0000 
     33 C5        188.1650  109.4660   21.7580 C.3       1 MRV1101     0.0000 
     34 C6        187.8330  108.0490   23.9560 C.3       1 MRV1101     0.0000 
     35 C7        190.8240  107.1990   21.8490 C.2       1 MRV1101     0.0000 
     36 C8        185.8620  108.3890   21.4600 C.3       1 MRV1101     0.0000 
     37 C9        185.6610  107.6220   22.7780 C.3       1 MRV1101     0.0000 
     38 H         188.2221  107.3332   21.9463 H         1 MRV1101     0.0000 
     39 H         184.2139  110.0535   22.7603 H         1 MRV1101     0.0000 
     40 H         184.5922  110.4272   24.4506 H         1 MRV1101     0.0000 
     41 H         189.7754  110.0027   24.3578 H         1 MRV1101     0.0000 
     42 H         185.0275  112.1202   21.9950 H         1 MRV1101     0.0000 
     43 H         185.9592  112.4116   23.4739 H         1 MRV1101     0.0000 
     44 H         183.0189  111.9560   23.6638 H         1 MRV1101     0.0000 
     45 H         182.4544  115.7506   21.4960 H         1 MRV1101     0.0000 
     46 H         187.0521  110.4669   23.7282 H         1 MRV1101     0.0000 
     47 H         186.3200  110.4632   21.2654 H         1 MRV1101     0.0000 
     48 H         182.4127  113.7829   19.1840 H         1 MRV1101     0.0000 
     49 H         183.8594  114.5403   19.8721 H         1 MRV1101     0.0000 
     50 H         180.0488  115.2692   21.7457 H         1 MRV1101     0.0000 
     51 H         180.1105  114.1667   20.3598 H         1 MRV1101     0.0000 
     52 H         182.9954  116.7737   19.2431 H         1 MRV1101     0.0000 
     53 H         183.1022  115.7272   17.8171 H         1 MRV1101     0.0000 
     54 H         179.2079  116.3067   19.5875 H         1 MRV1101     0.0000 
     55 H         180.5653  117.1853   20.3125 H         1 MRV1101     0.0000 
     56 H         182.4139  112.0565   25.7309 H         1 MRV1101     0.0000 
     57 H         185.8485  114.2319   24.6463 H         1 MRV1101     0.0000 
     58 H         182.7583  112.6713   28.0563 H         1 MRV1101     0.0000 
     59 H         186.2167  114.8069   26.9785 H         1 MRV1101     0.0000 
     60 H         184.6671  114.0354   28.6755 H         1 MRV1101     0.0000 
     61 H         185.8595  108.4136   24.7383 H         1 MRV1101     0.0000 
     62 H         183.9697  114.6808   22.8056 H         1 MRV1101     0.0000 
     63 H         188.4365  109.2945   20.7227 H         1 MRV1101     0.0000 
     64 H         188.6595  110.3595   22.1213 H         1 MRV1101     0.0000 
     65 H         188.3221  108.6322   24.7295 H         1 MRV1101     0.0000 
     66 H         187.8730  106.9964   24.2172 H         1 MRV1101     0.0000 
     67 H         186.4493  107.8063   20.7937 H         1 MRV1101     0.0000 
     68 H         184.9172  108.6574   21.0553 H         1 MRV1101     0.0000 
     69 H         184.6253  107.5514   22.9947 H         1 MRV1101     0.0000 
     70 H         186.1428  106.6791   22.7185 H         1 MRV1101     0.0000 
     71 H         190.9673  105.7253   20.3297 H         1 MRV1101     0.0000 
     72 H         189.6019  105.6032   21.1705 H         1 MRV1101     0.0000 
     73 H         189.7645  106.7592   20.0645 H         1 MRV1101     0.0000 
     74 H         192.6632  110.7912   24.2868 H         1 MRV1101     0.0000 
     75 H         191.5338  111.3625   23.2946 H         1 MRV1101     0.0000 
     76 H         191.4655  111.6943   24.8667 H         1 MRV1101     0.0000 
     77 H         191.9972  108.8315   25.9631 H         1 MRV1101     0.0000 
     78 H         190.8036  109.7399   26.5431 H         1 MRV1101     0.0000 
     79 H         190.4858  108.2827   25.9417 H         1 MRV1101     0.0000 
@<TRIPOS>BOND
     1   13    1 1    
     2   11    2 2    
     3    4    3 1    
     4   33    3 1    
     5   34    3 1    
     6   38    3 1    
     7   30    4 1    
     8   35    4 1    
     9    7    5 1    
    10   16    5 1    
    11   39    5 1    
    12   40    5 1    
    13   14    6 1    
    14   18    6 1    
    15   30    6 1    
    16   41    6 1    
    17    8    7 1    
    18   42    7 1    
    19   43    7 1    
    20   10    8 1    
    21   32    8 1    
    22   44    8 1    
    23   35    9 1    
    24   71    9 1    
    25   72    9 1    
    26   73    9 1    
    27   23   10 ar   
    28   24   10 ar   
    29   12   11 1    
    30   32   11 am   
    31   19   12 1    
    32   20   12 1    
    33   45   12 1    
    34   15   13 1    
    35   21   13 1    
    36   22   13 1    
    37   74   14 1    
    38   75   14 1    
    39   76   14 1    
    40   17   16 1    
    41   28   16 1    
    42   46   16 1    
    43   33   17 1    
    44   36   17 1    
    45   47   17 1    
    46   77   18 1    
    47   78   18 1    
    48   79   18 1    
    49   21   19 1    
    50   48   19 1    
    51   49   19 1    
    52   22   20 1    
    53   50   20 1    
    54   51   20 1    
    55   52   21 1    
    56   53   21 1    
    57   54   22 1    
    58   55   22 1    
    59   25   23 ar   
    60   56   23 1    
    61   26   24 ar   
    62   57   24 1    
    63   27   25 ar   
    64   58   25 1    
    65   27   26 ar   
    66   59   26 1    
    67   60   27 1    
    68   34   28 1    
    69   37   28 1    
    70   61   28 1    
    71   30   29 2    
    72   31   29 1    
    73   35   31 2    
    74   62   32 1    
    75   63   33 1    
    76   64   33 1    
    77   65   34 1    
    78   66   34 1    
    79   37   36 1    
    80   67   36 1    
    81   68   36 1    
    82   69   37 1    
    83   70   37 1    
@<TRIPOS>SUBSTRUCTURE
     1 MRV1101     1 GROUP   
@<TRIPOS>SET

