#    Name: 2xae_2XA_2_INTS_M
#    Modification time : Tue Mar 25 05:41:49 2014

@<TRIPOS>MOLECULE
2xae_2XA_2_INTS_M
   71     0     9     0     0
SMALL
NO_CHARGES


@<TRIPOS>ATOM
      1 O          18.5305   32.5750  -37.3775 O.2       1 ALC1        0.0000 
      2 O          17.1800   31.8560  -37.5490 O.2       7 ALL1        0.0000 
      3 O          19.8810   33.2940  -37.2060 O.2       4 ALP1        0.0000 
      4 CA         17.4500   34.5045  -35.7940 C.3       3 GLC5        0.0000 
      5 CA         17.3480   32.5480  -35.1390 C.3       9 GLL5        0.0000 
      6 CA         17.5520   36.4610  -36.4490 C.3       6 GLP5        0.0000 
      7 NZ         12.9435   33.3245  -35.8265 N.4       2 LYC4        0.0000 
      8 NZ         14.5540   32.1540  -35.8990 N.4       8 LYL4        0.0000 
      9 NZ         11.3330   34.4950  -35.7540 N.4       5 LYP4        0.0000 
     10 CA         20.4635   31.9165  -35.5320 C.3       3 GLC5        0.0000 
     11 CA         19.1000   32.4520  -34.4650 C.3       9 GLL5        0.0000 
     12 CA         21.8270   31.3810  -36.5990 C.3       6 GLP5        0.0000 
     13 CA         17.6060   33.4415  -29.4465 C.3       3 GLC5        0.0000 
     14 CA         18.5520   31.8360  -30.4370 C.3       9 GLL5        0.0000 
     15 CA         16.6600   35.0470  -28.4560 C.3       6 GLP5        0.0000 
     16 CA         17.1890   29.1420  -28.4780 C.3       3 GLC5        0.0000 
     17 CA         17.9550   29.4830  -30.3370 C.3       9 GLL5        0.0000 
     18 CA         16.4230   28.8010  -26.6190 C.3       6 GLP5        0.0000 
     19 CA         16.6665   30.8095  -28.5595 C.3       3 GLC5        0.0000 
     20 CA         18.1720   30.7050  -29.7070 C.3       9 GLL5        0.0000 
     21 CA         15.1610   30.9140  -27.4120 C.3       6 GLP5        0.0000 
     22 CA         21.7460   32.3325  -34.7075 C.3       3 GLC5        0.0000 
     23 CA         21.6650   33.2840  -32.8160 C.3       9 GLL5        0.0000 
     24 CA         25.0750   33.3720  -32.2285 C.3       3 GLC5        0.0000 
     25 CA         22.8810   33.7070  -32.2850 C.3       9 GLL5        0.0000 
     26 CA         27.2690   33.0370  -32.1720 C.3       6 GLP5        0.0000 
     27 CA         24.0915   35.4050  -32.2065 C.3       3 GLC5        0.0000 
     28 CA         22.9370   34.3740  -31.0590 C.3       9 GLL5        0.0000 
     29 CA         25.2460   36.4360  -33.3540 C.3       6 GLP5        0.0000 
     30 CA         15.9770   38.5175  -32.1425 C.3       3 GLC5        0.0000 
     31 CA         14.6960   36.9110  -32.2720 C.3       9 GLL5        0.0000 
     32 CA         17.2580   40.1240  -32.0130 C.3       6 GLP5        0.0000 
     33 CA         12.7935   37.2770  -32.0940 C.3       3 GLC5        0.0000 
     34 CA         10.8910   37.6430  -31.9160 C.3       6 GLP5        0.0000 
     35 CA         15.3555   37.1945  -30.5955 C.3       3 GLC5        0.0000 
     36 CA         16.0150   37.4780  -28.9190 C.3       6 GLP5        0.0000 
     37 CA         13.9980   38.8970  -31.7740 C.3       3 GLC5        0.0000 
     38 CA         13.3000   40.8830  -31.2760 C.3       6 GLP5        0.0000 
     39 CA         15.0225   32.4483  -31.8473 C.3       3 GLC5        0.0000 
     40 CA         15.7850   34.5500  -31.9200 C.3       9 GLL5        0.0000 
     41 CA         13.7440   30.7960  -31.7220 C.3       6 GLP5        0.0000 
     42 CA         15.8400   36.8058  -34.3285 C.3       3 GLC5        0.0000 
     43 CA         16.0240   35.8240  -32.3640 C.3       9 GLL5        0.0000 
     44 CA         16.3200   37.2440  -36.3390 C.3       6 GLP5        0.0000 
     45 CA         16.9415   38.0780  -32.3205 C.3       3 GLC5        0.0000 
     46 CA         17.2260   36.2400  -32.8920 C.3       9 GLL5        0.0000 
     47 CA         16.3200   36.7550  -30.7735 C.3       3 GLC5        0.0000 
     48 CA         17.6420   36.1217  -34.6925 C.3       3 GLC5        0.0000 
     49 CA         19.5200   36.7118  -32.6480 C.3       3 GLC5        0.0000 
     50 CA         21.3080   37.6410  -32.3600 C.3       6 GLP5        0.0000 
     51 CA         16.9162   34.5579  -30.3496 C.3       3 GLC5        0.0000 
     52 CA         18.0440   34.0370  -32.5140 C.3       9 GLL5        0.0000 
     53 CA         20.3702   30.7417  -31.3203 C.3       3 GLC5        0.0000 
     54 CA         22.1010   29.6880  -31.5160 C.3       6 GLP5        0.0000 
     55 CA         20.2095   29.8203  -31.7933 C.3       3 GLC5        0.0000 
     56 CA         18.5120   30.5180  -32.4300 C.3       9 GLL5        0.0000 
     57 CA         20.0822   29.8910  -30.7690 C.3       3 GLC5        0.0000 
     58 CA         20.9100   35.7328  -31.9307 C.3       3 GLC5        0.0000 
     59 CA         20.4750   33.4970  -32.1160 C.3       9 GLL5        0.0000 
     60 CA         19.8125   35.6333  -29.5573 C.3       3 GLC5        0.0000 
     61 CA         20.5490   34.1520  -30.8870 C.3       9 GLL5        0.0000 
     62 CA         18.4710   36.8930  -28.4980 C.3       6 GLP5        0.0000 
     63 CA         23.5115   34.6912  -33.6107 C.3       3 GLC5        0.0000 
     64 CA         24.7500   35.8870  -34.6710 C.3       6 GLP5        0.0000 
     65 CA         21.7905   35.5682  -32.4552 C.3       3 GLC5        0.0000 
     66 CA         22.0382   31.6184  -31.9457 C.3       3 GLC5        0.0000 
     67 CA         23.2635   34.0258  -29.0463 C.3       3 GLC5        0.0000 
     68 CA         24.1790   33.5670  -27.3900 C.3       6 GLP5        0.0000 
     69 CA         22.2015   36.2532  -30.9492 C.3       3 GLC5        0.0000 
     70 CA         21.7590   34.5950  -30.3460 C.3       9 GLL5        0.0000 
     71 CA         22.0550   38.0220  -31.1960 C.3       6 GLP5        0.0000 
@<TRIPOS>BOND
@<TRIPOS>SUBSTRUCTURE
     1 ALC1        1 GROUP        1 X    ALC  0     ROOT ALC X 1
     2 LYC4        7 GROUP        1 X    LYC  0     **** LYC X 4
     3 GLC5        4 GROUP        1 X    GLC  0     **** GLC X 6
     4 ALP1        3 GROUP        1 Y    ALP  0     ROOT ALP Y 8
     5 LYP4        9 GROUP        1 Y    LYP  0     **** LYP Y 11
     6 GLP5        6 GROUP        1 Y    GLP  0     **** GLP Y 13
     7 ALL1        2 GROUP        1 Z    ALL  0     ROOT ALL Z 15
     8 LYL4        8 GROUP        1 Z    LYL  0     **** LYL Z 18
     9 GLL5        5 GROUP        1 Z    GLL  0     **** GLL Z 20
@<TRIPOS>SET

