#    Name: 2xae_2XA_2_ligand
#    Modification time : Tue Mar 25 05:41:49 2014

@<TRIPOS>MOLECULE
2xae_2XA_2_ligand
   47    49     1     0     0
SMALL
NO_CHARGES


@<TRIPOS>ATOM
      1 N          17.1800   31.8560  -37.5490 N.4       1 2XA1365     0.0000 
      2 CA         16.8640   31.4790  -36.1600 C.3       1 2XA1365     0.0000 
      3 CB         17.3480   32.5480  -35.1390 C.3       1 2XA1365     0.0000 
      4 C          15.3390   31.1840  -36.0440 C.2       1 2XA1365     0.0000 
      5 OXT        14.5540   32.1540  -35.8990 O.co2     1 2XA1365     0.0000 
      6 O          14.9950   29.9760  -36.0860 O.co2     1 2XA1365     0.0000 
      7 SG         19.1000   32.4520  -34.4650 S.3       1 2XA1365     0.0000 
      8 CAM        16.8170   33.6510  -32.0250 C.ar      1 2XA1365     0.0000 
      9 CAG        15.7850   34.5500  -31.9200 C.ar      1 2XA1365     0.0000 
     10 CAD        16.0240   35.8240  -32.3640 C.ar      1 2XA1365     0.0000 
     11 CAH        17.2260   36.2400  -32.8920 C.ar      1 2XA1365     0.0000 
     12 CAN        18.2380   35.3250  -32.9800 C.ar      1 2XA1365     0.0000 
     13 CAV        18.0440   34.0370  -32.5140 C.ar      1 2XA1365     0.0000 
     14 CAF        18.5520   31.8360  -30.4370 C.ar      1 2XA1365     0.0000 
     15 CAK        18.7270   31.7550  -31.8120 C.ar      1 2XA1365     0.0000 
     16 CAQ        18.5120   30.5180  -32.4300 C.ar      1 2XA1365     0.0000 
     17 CAX        18.1240   29.3870  -31.7110 C.ar      1 2XA1365     0.0000 
     18 CAR        17.9550   29.4830  -30.3370 C.ar      1 2XA1365     0.0000 
     19 CAL        18.1720   30.7050  -29.7070 C.ar      1 2XA1365     0.0000 
     20 CAE        20.5490   34.1520  -30.8870 C.ar      1 2XA1365     0.0000 
     21 CAI        20.4750   33.4970  -32.1160 C.ar      1 2XA1365     0.0000 
     22 CAO        21.6650   33.2840  -32.8160 C.ar      1 2XA1365     0.0000 
     23 CAW        22.8810   33.7070  -32.2850 C.ar      1 2XA1365     0.0000 
     24 CAP        22.9370   34.3740  -31.0590 C.ar      1 2XA1365     0.0000 
     25 CAJ        21.7590   34.5950  -30.3460 C.ar      1 2XA1365     0.0000 
     26 CL         14.6960   36.9110  -32.2720 Cl        1 2XA1365     0.0000 
     27 CAZ        19.1170   32.9770  -32.6420 C.3       1 2XA1365     0.0000 
     28 H          17.3835   30.5381  -35.9206 H         1 2XA1365     0.0000 
     29 H          16.7682   32.5498  -34.2086 H         1 2XA1365     0.0000 
     30 H          17.3374   33.5669  -35.5434 H         1 2XA1365     0.0000 
     31 H          16.6711   32.6640  -31.7313 H         1 2XA1365     0.0000 
     32 H          14.8877   34.2825  -31.5316 H         1 2XA1365     0.0000 
     33 H          17.3526   37.2023  -33.2064 H         1 2XA1365     0.0000 
     34 H          19.1474   35.5874  -33.3920 H         1 2XA1365     0.0000 
     35 H          18.7013   32.7295  -29.9488 H         1 2XA1365     0.0000 
     36 H          18.6463   30.4410  -33.4595 H         1 2XA1365     0.0000 
     37 H          17.9669   28.4995  -32.1939 H         1 2XA1365     0.0000 
     38 H          17.6735   28.6642  -29.7904 H         1 2XA1365     0.0000 
     39 H          18.0511   30.7810  -28.6827 H         1 2XA1365     0.0000 
     40 H          19.6693   34.3180  -30.3508 H         1 2XA1365     0.0000 
     41 H          21.6410   32.8110  -33.7305 H         1 2XA1365     0.0000 
     42 H          23.7562   33.5255  -32.8045 H         1 2XA1365     0.0000 
     43 H          23.8335   34.6967  -30.6887 H         1 2XA1365     0.0000 
     44 H          21.7788   35.0713  -29.4457 H         1 2XA1365     0.0000 
     45 H          18.0059   32.4174  -37.6027 H         1 2XA1365     0.0000 
     46 H          17.3329   31.0537  -38.1260 H         1 2XA1365     0.0000 
     47 H          16.4402   32.3821  -37.9685 H         1 2XA1365     0.0000 
@<TRIPOS>BOND
     1    2    1 1    
     2   45    1 1    
     3   46    1 1    
     4   47    1 1    
     5    3    2 1    
     6    4    2 1    
     7   28    2 1    
     8    7    3 1    
     9   29    3 1    
    10   30    3 1    
    11    5    4 ar   
    12    6    4 ar   
    13   27    7 1    
    14    9    8 ar   
    15   13    8 ar   
    16   31    8 1    
    17   10    9 ar   
    18   32    9 1    
    19   11   10 ar   
    20   26   10 1    
    21   12   11 ar   
    22   33   11 1    
    23   13   12 ar   
    24   34   12 1    
    25   27   13 1    
    26   15   14 ar   
    27   19   14 ar   
    28   35   14 1    
    29   16   15 ar   
    30   27   15 1    
    31   17   16 ar   
    32   36   16 1    
    33   18   17 ar   
    34   37   17 1    
    35   19   18 ar   
    36   38   18 1    
    37   39   19 1    
    38   21   20 ar   
    39   25   20 ar   
    40   40   20 1    
    41   22   21 ar   
    42   27   21 1    
    43   23   22 ar   
    44   41   22 1    
    45   24   23 ar   
    46   42   23 1    
    47   25   24 ar   
    48   43   24 1    
    49   44   25 1    
@<TRIPOS>SUBSTRUCTURE
     1 2XA1365     1 GROUP   
@<TRIPOS>SET

