#    Name: 1pl6_572_1_INTS_M
#    Modification time : Mon Mar 24 21:53:51 2014

@<TRIPOS>MOLECULE
1pl6_572_1_INTS_M
   50     0     9     0     0
SMALL
NO_CHARGES


@<TRIPOS>ATOM
      1 Zn         96.8390   37.2865   36.2725 Zn        2 ZIC7        0.0000 
      2 Zn         97.0500   38.4640   36.2210 Zn        8 ZIL7        0.0000 
      3 Zn         96.6280   36.1090   36.3240 Zn        5 ZIP7        0.0000 
      4 O          96.2955   39.3520   36.4835 O.2       1 ALC1        0.0000 
      5 O          97.0500   38.4640   36.2210 O.2       7 ALL1        0.0000 
      6 O          95.5410   40.2400   36.7460 O.2       4 ALP1        0.0000 
      7 CA         97.2370   38.1970   37.4395 C.3       3 GLC5        0.0000 
      8 CA         98.3610   38.7580   35.7890 C.3       9 GLL5        0.0000 
      9 CA         96.1130   37.6360   39.0900 C.3       6 GLP5        0.0000 
     10 CA         98.4970   40.0355   37.2900 C.3       3 GLC5        0.0000 
     11 CA         98.6330   41.3130   38.7910 C.3       6 GLP5        0.0000 
     12 CA         99.7060   40.1605   36.0320 C.3       3 GLC5        0.0000 
     13 CA        101.0510   41.5630   36.2750 C.3       6 GLP5        0.0000 
     14 CA         98.8200   38.4455   33.7895 C.3       3 GLC5        0.0000 
     15 CA         99.2790   38.1330   31.7900 C.3       6 GLP5        0.0000 
     16 CA        100.3720   34.2210   32.4570 C.3       3 GLC5        0.0000 
     17 CA        100.4520   35.3020   34.3360 C.3       9 GLL5        0.0000 
     18 CA        100.2920   33.1400   30.5780 C.3       6 GLP5        0.0000 
     19 CA         97.7765   34.4455   35.4470 C.3       3 GLC5        0.0000 
     20 CA         99.1310   35.2210   34.8080 C.3       9 GLL5        0.0000 
     21 CA         96.4220   33.6700   36.0860 C.3       6 GLP5        0.0000 
     22 Zn         97.5275   36.2135   35.8045 Zn        2 ZIC7        0.0000 
     23 Zn         98.4270   36.3180   35.2850 Zn        8 ZIL7        0.0000 
     24 CA        101.9545   40.0595   34.4010 C.3       3 GLC5        0.0000 
     25 CA        102.8820   38.3110   34.0330 C.3       9 GLL5        0.0000 
     26 CA        101.0270   41.8080   34.7690 C.3       6 GLP5        0.0000 
     27 CA        101.7370   38.1595   32.5360 C.3       3 GLC5        0.0000 
     28 CA        100.5920   38.0080   31.0390 C.3       6 GLP5        0.0000 
     29 Zn        100.8495   36.6720   35.4005 Zn        2 ZIC7        0.0000 
     30 Zn        105.0710   37.2350   34.4770 Zn        8 ZIL7        0.0000 
     31 CA        107.7915   37.7275   38.2885 C.3       3 GLC5        0.0000 
     32 CA        106.0450   37.7550   38.0950 C.3       9 GLL5        0.0000 
     33 CA        109.5380   37.7000   38.4820 C.3       6 GLP5        0.0000 
     34 CA        105.5280   38.0235   39.7980 C.3       3 GLC5        0.0000 
     35 CA        105.0110   38.2920   41.5010 C.3       6 GLP5        0.0000 
     36 CA        106.2560   33.7555   36.9790 C.3       3 GLC5        0.0000 
     37 CA        106.3590   35.4290   37.5380 C.3       9 GLL5        0.0000 
     38 CA        106.1530   32.0820   36.4200 C.3       6 GLP5        0.0000 
     39 CA        107.7940   35.9425   38.2870 C.3       3 GLC5        0.0000 
     40 CA        109.2290   36.4560   39.0360 C.3       6 GLP5        0.0000 
     41 CA        102.0780   36.3250   31.9145 C.3       3 GLC5        0.0000 
     42 CA        103.2540   35.9090   33.4590 C.3       9 GLL5        0.0000 
     43 CA        100.9020   36.7410   30.3700 C.3       6 GLP5        0.0000 
     44 CA         99.8932   34.0798   36.0280 C.3       3 GLC5        0.0000 
     45 CA         99.9950   32.8980   37.4840 C.3       6 GLP5        0.0000 
     46 CA        104.5768   39.9062   34.5782 C.3       3 GLC5        0.0000 
     47 CA        105.6710   41.5280   34.6450 C.3       6 GLP5        0.0000 
     48 CA        104.5483   35.3320   32.3568 C.3       3 GLC5        0.0000 
     49 CA        104.3770   35.8330   34.3180 C.3       9 GLL5        0.0000 
     50 CA        105.2810   34.7930   30.8250 C.3       6 GLP5        0.0000 
@<TRIPOS>BOND
@<TRIPOS>SUBSTRUCTURE
     1 ALC1        4 GROUP        1 X    ALC  0     ROOT ALC X 1
     2 ZIC7        1 GROUP        1 X    ZIC  0     **** ZIC X 5
     3 GLC5        7 GROUP        1 X    GLC  0     **** GLC X 6
     4 ALP1        6 GROUP        1 Y    ALP  0     ROOT ALP Y 8
     5 ZIP7        3 GROUP        1 Y    ZIP  0     **** ZIP Y 12
     6 GLP5        9 GROUP        1 Y    GLP  0     **** GLP Y 13
     7 ALL1        5 GROUP        1 Z    ALL  0     ROOT ALL Z 15
     8 ZIL7        2 GROUP        1 Z    ZIL  0     **** ZIL Z 19
     9 GLL5        8 GROUP        1 Z    GLL  0     **** GLL Z 20
@<TRIPOS>SET

