#    Name: 1pl6_572_1_ligand
#    Modification time : Mon Mar 24 21:53:51 2014

@<TRIPOS>MOLECULE
1pl6_572_1_ligand
   40    41     1     0     0
SMALL
NO_CHARGES


@<TRIPOS>ATOM
      1 O30        97.0500   38.4640   36.2210 O.3       1 572405      0.0000 
      2 C14        98.3610   38.7580   35.7890 C.3       1 572405      0.0000 
      3 C7         99.0560   37.5230   35.2870 C.ar      1 572405      0.0000 
      4 N4        100.3060   37.7010   34.8560 N.ar      1 572405      0.0000 
      5 C2        101.0440   36.6380   34.3770 C.ar      1 572405      0.0000 
      6 C5        100.4520   35.3020   34.3360 C.ar      1 572405      0.0000 
      7 C6         99.1310   35.2210   34.8080 C.ar      1 572405      0.0000 
      8 N3         98.4270   36.3180   35.2850 N.ar      1 572405      0.0000 
      9 N1        102.3140   36.9500   33.9770 N.4       1 572405      0.0000 
     10 C19       102.8820   38.3110   34.0330 C.3       1 572405      0.0000 
     11 C15       104.0830   38.2580   34.9900 C.3       1 572405      0.0000 
     12 N17       105.0710   37.2350   34.4770 N.pl3     1 572405      0.0000 
     13 S28       106.4500   37.1270   35.5030 S.o2      1 572405      0.0000 
     14 O25       107.4250   35.9570   34.9030 O.2       1 572405      0.0000 
     15 N22       105.8360   36.7380   37.1000 N.pl3     1 572405      0.0000 
     16 C13       106.0450   37.7550   38.0950 C.3       1 572405      0.0000 
     17 C11       106.3590   35.4290   37.5380 C.3       1 572405      0.0000 
     18 O12       107.1130   38.6070   35.5980 O.2       1 572405      0.0000 
     19 C16       104.3770   35.8330   34.3180 C.3       1 572405      0.0000 
     20 C18       103.2540   35.9090   33.4590 C.3       1 572405      0.0000 
     21 H          98.9732   39.1849   36.6057 H         1 572405      0.0000 
     22 H          98.3634   39.5053   34.9731 H         1 572405      0.0000 
     23 H         100.9621   34.5370   33.9990 H         1 572405      0.0000 
     24 H          98.6607   34.2839   34.7964 H         1 572405      0.0000 
     25 H         101.8849   37.1986   32.6226 H         1 572405      0.0000 
     26 H         102.1636   39.0142   34.4226 H         1 572405      0.0000 
     27 H         103.2304   38.6250   33.0622 H         1 572405      0.0000 
     28 H         103.7362   37.9754   35.9743 H         1 572405      0.0000 
     29 H         104.5471   39.2339   35.0264 H         1 572405      0.0000 
     30 H         104.1109   35.5026   35.3332 H         1 572405      0.0000 
     31 H         105.1501   35.1458   33.9430 H         1 572405      0.0000 
     32 H         103.5446   36.1820   32.4360 H         1 572405      0.0000 
     33 H         102.7180   34.9522   33.4078 H         1 572405      0.0000 
     34 H         107.0165   37.9532   38.2251 H         1 572405      0.0000 
     35 H         105.6011   38.6156   37.8454 H         1 572405      0.0000 
     36 H         105.6794   37.4841   38.9855 H         1 572405      0.0000 
     37 H         107.3582   35.4229   37.5784 H         1 572405      0.0000 
     38 H         106.0273   35.1824   38.4486 H         1 572405      0.0000 
     39 H         106.0863   34.6936   36.9176 H         1 572405      0.0000 
     40 H          96.4939   39.2309   35.9004 H         1 572405      0.0000 
@<TRIPOS>BOND
     1    2    1 1    
     2   40    1 1    
     3    3    2 1    
     4   21    2 1    
     5   22    2 1    
     6    4    3 ar   
     7    8    3 ar   
     8    5    4 ar   
     9    6    5 ar   
    10    9    5 1    
    11    7    6 ar   
    12   23    6 1    
    13    8    7 ar   
    14   24    7 1    
    15   10    9 1    
    16   20    9 1    
    17   25    9 1    
    18   11   10 1    
    19   26   10 1    
    20   27   10 1    
    21   12   11 1    
    22   28   11 1    
    23   29   11 1    
    24   13   12 1    
    25   19   12 1    
    26   14   13 2    
    27   15   13 1    
    28   18   13 2    
    29   16   15 1    
    30   17   15 1    
    31   34   16 1    
    32   35   16 1    
    33   36   16 1    
    34   37   17 1    
    35   38   17 1    
    36   39   17 1    
    37   20   19 1    
    38   30   19 1    
    39   31   19 1    
    40   32   20 1    
    41   33   20 1    
@<TRIPOS>SUBSTRUCTURE
     1 572405      1 GROUP   
@<TRIPOS>SET

