#    Name: 3cda_8HI_3_INTS_M
#    Modification time : Mon Mar 24 20:53:08 2014

@<TRIPOS>MOLECULE
3cda_8HI_3_INTS_M
  101     0    12     0     0
SMALL
NO_CHARGES


@<TRIPOS>ATOM
      1 CA         25.7325  -19.5650   20.6695 C.3       4 GLC5        0.0000 
      2 CA         25.4150  -18.4220   22.4200 C.3      12 GLL5        0.0000 
      3 CA         26.0500  -20.7080   18.9190 C.3       8 GLP5        0.0000 
      4 CA         24.7160  -18.0095   34.3635 C.3       4 GLC5        0.0000 
      5 CA         26.6280  -18.9280   34.0490 C.3      12 GLL5        0.0000 
      6 CA         22.8040  -17.0910   34.6780 C.3       8 GLP5        0.0000 
      7 CA         27.2020  -16.3285   35.1175 C.3       4 GLC5        0.0000 
      8 CA         26.6790  -17.6810   33.4270 C.3      12 GLL5        0.0000 
      9 CA         27.7250  -14.9760   36.8080 C.3       8 GLP5        0.0000 
     10 CA         27.0315  -16.0770   30.6700 C.3       4 GLC5        0.0000 
     11 CA         26.2530  -17.5140   32.1080 C.3      12 GLL5        0.0000 
     12 CA         27.8100  -14.6400   29.2320 C.3       8 GLP5        0.0000 
     13 CA         22.5000  -20.7795   30.5245 C.3       4 GLC5        0.0000 
     14 CA         21.9710  -19.3510   29.5690 C.3      12 GLL5        0.0000 
     15 CA         23.0290  -22.2080   31.4800 C.3       8 GLP5        0.0000 
     16 CA         20.4880  -19.5885   30.8280 C.3       4 GLC5        0.0000 
     17 CA         19.0050  -19.8260   32.0870 C.3       8 GLP5        0.0000 
     18 CA         22.3270  -18.1800   31.3625 C.3       4 GLC5        0.0000 
     19 CA         22.6830  -17.0090   33.1560 C.3       8 GLP5        0.0000 
     20 NZ         22.0120  -11.3585   22.3860 N.4       3 LYC4        0.0000 
     21 NZ         21.5300  -12.5270   22.8800 N.4      11 LYL4        0.0000 
     22 NZ         22.4940  -10.1900   21.8920 N.4       7 LYP4        0.0000 
     23 N          22.0775  -12.2380   21.2765 N.am      2 SEC2        0.0000 
     24 N          21.5300  -12.5270   22.8800 N.am     10 SEL2        0.0000 
     25 N          22.6250  -11.9490   19.6730 N.am      6 SEP2        0.0000 
     26 N          22.0120  -11.3585   22.3860 N.am      2 SEC2        0.0000 
     27 N          22.4940  -10.1900   21.8920 N.am      6 SEP2        0.0000 
     28 NZ         19.3270  -11.6495   21.3285 N.4       3 LYC4        0.0000 
     29 NZ         20.5510  -12.5660   20.9050 N.4      11 LYL4        0.0000 
     30 NZ         18.1030  -10.7330   21.7520 N.4       7 LYP4        0.0000 
     31 NZ         21.5225  -11.3780   21.3985 N.4       3 LYC4        0.0000 
     32 N          21.5880  -12.2575   20.2890 N.am      2 SEC2        0.0000 
     33 N          20.5510  -12.5660   20.9050 N.am     10 SEL2        0.0000 
     34 N          19.3270  -11.6495   21.3285 N.am      2 SEC2        0.0000 
     35 N          18.1030  -10.7330   21.7520 N.am      6 SEP2        0.0000 
     36 N          20.0580  -12.1355   19.8240 N.am      2 SEC2        0.0000 
     37 N          19.5650  -11.7050   18.7430 N.am      6 SEP2        0.0000 
     38 CA         18.4900  -14.3375   21.0035 C.3       4 GLC5        0.0000 
     39 CA         19.4600  -13.7040   22.7990 C.3      12 GLL5        0.0000 
     40 CA         17.5200  -14.9710   19.2080 C.3       8 GLP5        0.0000 
     41 CA         18.5550  -13.3545   24.6590 C.3       4 GLC5        0.0000 
     42 CA         17.6500  -13.0050   26.5190 C.3       8 GLP5        0.0000 
     43 N          20.7670  -15.6690   20.5955 N.am      2 SEC2        0.0000 
     44 N          19.9950  -15.8300   21.8840 N.am     10 SEL2        0.0000 
     45 N          21.5390  -15.5080   19.3070 N.am      6 SEP2        0.0000 
     46 N          20.9120  -16.7360   20.9970 N.am      2 SEC2        0.0000 
     47 N          21.8290  -17.6420   20.1100 N.am      6 SEP2        0.0000 
     48 O          18.7760  -16.1480   21.4815 O.2       1 ALC1        0.0000 
     49 O          19.9950  -15.8300   21.8840 O.2       9 ALL1        0.0000 
     50 O          17.5570  -16.4660   21.0790 O.2       5 ALP1        0.0000 
     51 CA         16.9670  -16.0615   23.8065 C.3       4 GLC5        0.0000 
     52 CA         19.0250  -15.7990   24.0750 C.3      12 GLL5        0.0000 
     53 CA         14.9090  -16.3240   23.5380 C.3       8 GLP5        0.0000 
     54 CA         18.3375  -14.4020   25.2970 C.3       4 GLC5        0.0000 
     55 N          17.0015  -18.2575   24.7310 N.am      2 SEC2        0.0000 
     56 N          18.4440  -18.0120   24.8670 N.am     10 SEL2        0.0000 
     57 N          15.5590  -18.5030   24.5950 N.am      6 SEP2        0.0000 
     58 N          18.5240  -19.0370   25.6565 N.am      2 SEC2        0.0000 
     59 N          18.6040  -20.0620   26.4460 N.am      6 SEP2        0.0000 
     60 N          17.6855  -17.3405   25.9450 N.am      2 SEC2        0.0000 
     61 N          16.9270  -16.6690   27.0230 N.am      6 SEP2        0.0000 
     62 CA         20.9890  -15.1435   26.1785 C.3       4 GLC5        0.0000 
     63 CA         20.5510  -17.0550   25.5810 C.3      12 GLL5        0.0000 
     64 CA         21.4270  -13.2320   26.7760 C.3       8 GLP5        0.0000 
     65 CA         23.9880  -14.5720   21.1395 C.3       4 GLC5        0.0000 
     66 CA         24.2430  -16.3190   22.4500 C.3      12 GLL5        0.0000 
     67 CA         23.7330  -12.8250   19.8290 C.3       8 GLP5        0.0000 
     68 CA         24.4615  -16.4635   18.9790 C.3       4 GLC5        0.0000 
     69 CA         25.2090  -17.0770   20.4480 C.3      12 GLL5        0.0000 
     70 CA         23.7140  -15.8500   17.5100 C.3       8 GLP5        0.0000 
     71 CA         25.6295  -18.8925   19.6835 C.3       4 GLC5        0.0000 
     72 CA         19.4405  -17.1595   30.2550 C.3       4 GLC5        0.0000 
     73 CA         21.4090  -16.8900   29.5190 C.3      12 GLL5        0.0000 
     74 CA         17.4720  -17.4290   30.9910 C.3       8 GLP5        0.0000 
     75 CA         22.0460  -16.9495   31.3375 C.3       4 GLC5        0.0000 
     76 CA         22.5465  -15.5580   28.3045 C.3       4 GLC5        0.0000 
     77 CA         23.6840  -14.2260   27.0900 C.3       8 GLP5        0.0000 
     78 N          23.6740  -16.1395   31.4270 N.am      2 SEC2        0.0000 
     79 N          24.2930  -16.5500   30.1620 N.am     10 SEL2        0.0000 
     80 N          23.0550  -15.7290   32.6920 N.am      6 SEP2        0.0000 
     81 CA         24.1970  -18.4275   32.5865 C.3       4 GLC5        0.0000 
     82 CA         25.7110  -19.8460   32.0170 C.3      12 GLL5        0.0000 
     83 CA         25.1455  -15.4738   26.7585 C.3       4 GLC5        0.0000 
     84 CA         26.3690  -17.2510   26.8090 C.3      12 GLL5        0.0000 
     85 CA         27.1028  -14.6158   24.7605 C.3       4 GLC5        0.0000 
     86 CA         28.2180  -16.0070   25.8850 C.3      12 GLL5        0.0000 
     87 CA         26.6740  -13.1320   23.5560 C.3       8 GLP5        0.0000 
     88 CA         24.5090  -17.4389   32.8738 C.3       4 GLC5        0.0000 
     89 CA         25.7290  -18.5990   31.4040 C.3      12 GLL5        0.0000 
     90 CA         20.3970  -14.1670   25.1436 C.3       4 GLC5        0.0000 
     91 CA         19.9580  -15.1060   23.0960 C.3      12 GLL5        0.0000 
     92 CA         23.9370  -15.6402   25.6120 C.3       4 GLC5        0.0000 
     93 CA         23.9700  -16.4880   23.7980 C.3      12 GLL5        0.0000 
     94 CA         25.3903  -14.7677   23.3400 C.3       4 GLC5        0.0000 
     95 CA         26.4036  -16.1758   21.2395 C.3       4 GLC5        0.0000 
     96 CA         27.8440  -15.2710   21.1200 C.3       8 GLP5        0.0000 
     97 CA         24.4757  -21.0690   32.0768 C.3       4 GLC5        0.0000 
     98 CA         23.8280  -15.9631   26.9733 C.3       4 GLC5        0.0000 
     99 CA         24.9030  -17.5000   26.9740 C.3      12 GLL5        0.0000 
    100 CA         27.7793  -15.8566   27.9349 C.3       4 GLC5        0.0000 
    101 CA         26.8450  -16.1920   26.0450 C.3      12 GLL5        0.0000 
@<TRIPOS>BOND
@<TRIPOS>SUBSTRUCTURE
     1 ALC1       48 GROUP        1 X    ALC  0     ROOT ALC X 1
     2 SEC2       23 GROUP        1 X    SEC  0     **** SEC X 2
     3 LYC4       20 GROUP        1 X    LYC  0     **** LYC X 4
     4 GLC5        1 GROUP        1 X    GLC  0     **** GLC X 6
     5 ALP1       50 GROUP        1 Y    ALP  0     ROOT ALP Y 8
     6 SEP2       25 GROUP        1 Y    SEP  0     **** SEP Y 9
     7 LYP4       22 GROUP        1 Y    LYP  0     **** LYP Y 11
     8 GLP5        3 GROUP        1 Y    GLP  0     **** GLP Y 13
     9 ALL1       49 GROUP        1 Z    ALL  0     ROOT ALL Z 15
    10 SEL2       24 GROUP        1 Z    SEL  0     **** SEL Z 16
    11 LYL4       21 GROUP        1 Z    LYL  0     **** LYL Z 18
    12 GLL5        2 GROUP        1 Z    GLL  0     **** GLL Z 20
@<TRIPOS>SET

