#    Name: 3cda_8HI_3_ligand
#    Modification time : Mon Mar 24 20:53:08 2014

@<TRIPOS>MOLECULE
3cda_8HI_3_ligand
   80    83     1     0     0
SMALL
NO_CHARGES


@<TRIPOS>ATOM
      1 N1         25.3000  -18.5630   30.1100 N.am      1 8HI4        0.0000 
      2 C4         25.1370  -18.5940   23.7800 C.ar      1 8HI4        0.0000 
      3 C5         25.4150  -18.4220   22.4200 C.ar      1 8HI4        0.0000 
      4 C6         24.0560  -17.7100   25.9180 C.2       1 8HI4        0.0000 
      5 C7         22.7730  -17.9300   26.3950 C.2       1 8HI4        0.0000 
      6 C8         24.1560  -17.6610   28.1390 C.2       1 8HI4        0.0000 
      7 C10        26.3690  -17.2510   26.8090 C.ar      1 8HI4        0.0000 
      8 C13        29.1250  -16.8870   26.4770 C.ar      1 8HI4        0.0000 
      9 C15        26.8450  -16.1920   26.0450 C.ar      1 8HI4        0.0000 
     10 C17        25.7290  -18.5990   31.4040 C.ar      1 8HI4        0.0000 
     11 C20        26.6280  -18.9280   34.0490 C.ar      1 8HI4        0.0000 
     12 C21        26.6790  -17.6810   33.4270 C.ar      1 8HI4        0.0000 
     13 C22        26.2530  -17.5140   32.1080 C.ar      1 8HI4        0.0000 
     14 C24        21.9710  -19.3510   29.5690 C.3       1 8HI4        0.0000 
     15 C26        21.5450  -18.2070   25.5450 C.3       1 8HI4        0.0000 
     16 C28        19.5300  -17.1850   24.4550 C.3       1 8HI4        0.0000 
     17 O5         21.5300  -12.5270   22.8800 O.co2     1 8HI4        0.0000 
     18 C32        20.5820  -12.8830   22.1950 C.2       1 8HI4        0.0000 
     19 O6         20.5510  -12.5660   20.9050 O.co2     1 8HI4        0.0000 
     20 C31        19.4600  -13.7040   22.7990 C.3       1 8HI4        0.0000 
     21 C30        19.9580  -15.1060   23.0960 C.3       1 8HI4        0.0000 
     22 O4         19.9950  -15.8300   21.8840 O.3       1 8HI4        0.0000 
     23 C29        19.0250  -15.7990   24.0750 C.3       1 8HI4        0.0000 
     24 O3         18.4440  -18.0120   24.8670 O.3       1 8HI4        0.0000 
     25 C27        20.5510  -17.0550   25.5810 C.3       1 8HI4        0.0000 
     26 C3         24.4100  -17.6210   24.4700 C.ar      1 8HI4        0.0000 
     27 C2         23.9700  -16.4880   23.7980 C.ar      1 8HI4        0.0000 
     28 C1         24.2430  -16.3190   22.4500 C.ar      1 8HI4        0.0000 
     29 C          24.9680  -17.2760   21.7600 C.ar      1 8HI4        0.0000 
     30 F          25.2090  -17.0770   20.4480 F         1 8HI4        0.0000 
     31 N          22.8700  -17.9020   27.7560 N.pl3     1 8HI4        0.0000 
     32 C23        21.7180  -18.1290   28.6870 C.3       1 8HI4        0.0000 
     33 C25        21.4090  -16.8900   29.5190 C.3       1 8HI4        0.0000 
     34 C9         24.9030  -17.5000   26.9740 C.2       1 8HI4        0.0000 
     35 C11        27.2800  -18.1410   27.3860 C.ar      1 8HI4        0.0000 
     36 C12        28.6530  -17.9590   27.2290 C.ar      1 8HI4        0.0000 
     37 C14        28.2180  -16.0070   25.8850 C.ar      1 8HI4        0.0000 
     38 C16        24.6980  -17.5160   29.5260 C.2       1 8HI4        0.0000 
     39 O          24.2930  -16.5500   30.1620 O.2       1 8HI4        0.0000 
     40 C18        25.7110  -19.8460   32.0170 C.ar      1 8HI4        0.0000 
     41 C19        26.1340  -20.0140   33.3300 C.ar      1 8HI4        0.0000 
     42 S          27.1220  -19.1240   35.5640 S.o2      1 8HI4        0.0000 
     43 O1         26.5560  -18.1230   36.4010 O.2       1 8HI4        0.0000 
     44 O2         26.7100  -20.4130   36.0410 O.2       1 8HI4        0.0000 
     45 N2         28.7240  -19.0350   35.6150 N.pl3     1 8HI4        0.0000 
     46 H          25.4609  -19.4475   29.5187 H         1 8HI4        0.0000 
     47 H          25.4664  -19.4326   24.2686 H         1 8HI4        0.0000 
     48 H          25.9452  -19.1357   21.9108 H         1 8HI4        0.0000 
     49 H          30.1325  -16.7434   26.3578 H         1 8HI4        0.0000 
     50 H          26.1857  -15.5429   25.5963 H         1 8HI4        0.0000 
     51 H          27.0387  -16.8648   33.9515 H         1 8HI4        0.0000 
     52 H          26.3252  -16.5954   31.6575 H         1 8HI4        0.0000 
     53 H          21.0531  -19.1171   25.9068 H         1 8HI4        0.0000 
     54 H          21.8551  -18.3814   24.5084 H         1 8HI4        0.0000 
     55 H          20.0376  -17.6015   23.5944 H         1 8HI4        0.0000 
     56 H          18.6310  -13.7554   22.0992 H         1 8HI4        0.0000 
     57 H          19.1242  -13.2368   23.7202 H         1 8HI4        0.0000 
     58 H          20.9323  -15.0322   23.5434 H         1 8HI4        0.0000 
     59 H          18.9335  -15.1900   24.9798 H         1 8HI4        0.0000 
     60 H          18.0316  -15.8901   23.6247 H         1 8HI4        0.0000 
     61 H          21.0864  -16.1123   25.4728 H         1 8HI4        0.0000 
     62 H          20.0312  -17.0560   26.5385 H         1 8HI4        0.0000 
     63 H          23.4352  -15.7664   24.3082 H         1 8HI4        0.0000 
     64 H          23.9047  -15.4770   21.9590 H         1 8HI4        0.0000 
     65 H          20.8247  -18.3498   28.0765 H         1 8HI4        0.0000 
     66 H          26.9296  -18.9420   27.9346 H         1 8HI4        0.0000 
     67 H          29.3116  -18.6123   27.6658 H         1 8HI4        0.0000 
     68 H          28.5657  -15.2148   25.3256 H         1 8HI4        0.0000 
     69 H          25.3742  -20.6702   31.4823 H         1 8HI4        0.0000 
     70 H          26.0828  -20.9410   33.7729 H         1 8HI4        0.0000 
     71 H          29.1850  -18.8947   34.7388 H         1 8HI4        0.0000 
     72 H          29.1412  -19.1265   36.5192 H         1 8HI4        0.0000 
     73 H          22.0874  -20.1829   29.0265 H         1 8HI4        0.0000 
     74 H          22.7966  -19.2446   30.1231 H         1 8HI4        0.0000 
     75 H          21.2135  -19.5165   30.2005 H         1 8HI4        0.0000 
     76 H          22.1636  -16.6569   30.1324 H         1 8HI4        0.0000 
     77 H          21.2404  -16.0892   28.9442 H         1 8HI4        0.0000 
     78 H          20.5971  -17.0181   30.0886 H         1 8HI4        0.0000 
     79 H          19.0362  -15.9859   21.6464 H         1 8HI4        0.0000 
     80 H          18.6749  -18.9266   24.5351 H         1 8HI4        0.0000 
@<TRIPOS>BOND
     1   10    1 1    
     2   38    1 am   
     3   46    1 1    
     4    3    2 ar   
     5   26    2 ar   
     6   47    2 1    
     7   29    3 ar   
     8   48    3 1    
     9    5    4 2    
    10   26    4 1    
    11   34    4 1    
    12   15    5 1    
    13   31    5 1    
    14   31    6 1    
    15   34    6 2    
    16   38    6 1    
    17    9    7 ar   
    18   34    7 1    
    19   35    7 ar   
    20   36    8 ar   
    21   37    8 ar   
    22   49    8 1    
    23   37    9 ar   
    24   50    9 1    
    25   13   10 ar   
    26   40   10 ar   
    27   12   11 ar   
    28   41   11 ar   
    29   42   11 1    
    30   13   12 ar   
    31   51   12 1    
    32   52   13 1    
    33   32   14 1    
    34   73   14 1    
    35   74   14 1    
    36   75   14 1    
    37   25   15 1    
    38   53   15 1    
    39   54   15 1    
    40   23   16 1    
    41   24   16 1    
    42   25   16 1    
    43   55   16 1    
    44   18   17 ar   
    45   19   18 ar   
    46   20   18 1    
    47   21   20 1    
    48   56   20 1    
    49   57   20 1    
    50   22   21 1    
    51   23   21 1    
    52   58   21 1    
    53   79   22 1    
    54   59   23 1    
    55   60   23 1    
    56   80   24 1    
    57   61   25 1    
    58   62   25 1    
    59   27   26 ar   
    60   28   27 ar   
    61   63   27 1    
    62   29   28 ar   
    63   64   28 1    
    64   30   29 1    
    65   32   31 1    
    66   33   32 1    
    67   65   32 1    
    68   76   33 1    
    69   77   33 1    
    70   78   33 1    
    71   36   35 ar   
    72   66   35 1    
    73   67   36 1    
    74   68   37 1    
    75   39   38 2    
    76   41   40 ar   
    77   69   40 1    
    78   70   41 1    
    79   43   42 2    
    80   44   42 2    
    81   45   42 1    
    82   71   45 1    
    83   72   45 1    
@<TRIPOS>SUBSTRUCTURE
     1 8HI4        1 GROUP   
@<TRIPOS>SET

