#    Name: 2jj3_JJ3_1_INTS_M
#    Modification time : Tue Mar 25 20:56:11 2014

@<TRIPOS>MOLECULE
2jj3_JJ3_1_INTS_M
   85     0     9     0     0
SMALL
NO_CHARGES


@<TRIPOS>ATOM
      1 CA         80.1600   43.4185   65.9555 C.3       3 GLC5        0.0000 
      2 CA         79.9690   42.6170   68.0430 C.3       9 GLL5        0.0000 
      3 CA         80.3510   44.2200   63.8680 C.3       6 GLP5        0.0000 
      4 CA         73.5425   40.2015   69.6265 C.3       3 GLC5        0.0000 
      5 CA         75.0360   40.5320   68.7030 C.3       9 GLL5        0.0000 
      6 CA         72.0490   39.8710   70.5500 C.3       6 GLP5        0.0000 
      7 CA         73.1200   40.9230   68.4700 C.3       3 GLC5        0.0000 
      8 CA         74.8590   41.1840   67.3090 C.3       9 GLL5        0.0000 
      9 CA         71.3810   40.6620   69.6310 C.3       6 GLP5        0.0000 
     10 CA         73.3210   42.0995   66.8835 C.3       3 GLC5        0.0000 
     11 CA         71.7830   43.0150   66.4580 C.3       6 GLP5        0.0000 
     12 CA         73.4870   39.6460   66.4230 C.3       3 GLC5        0.0000 
     13 CA         72.1150   38.1080   65.5370 C.3       6 GLP5        0.0000 
     14 CA         78.4150   39.4085   65.9570 C.3       3 GLC5        0.0000 
     15 CA         77.1220   40.1290   67.4700 C.3       9 GLL5        0.0000 
     16 CA         79.7080   38.6880   64.4440 C.3       6 GLP5        0.0000 
     17 CA         78.7775   43.7480   68.0525 C.3       3 GLC5        0.0000 
     18 CA         79.0280   41.7850   67.4170 C.3       9 GLL5        0.0000 
     19 CA         78.5270   45.7110   68.6880 C.3       6 GLP5        0.0000 
     20 CA         77.8170   43.2060   66.3645 C.3       3 GLC5        0.0000 
     21 CA         76.6060   44.6270   65.3120 C.3       6 GLP5        0.0000 
     22 CA         79.3680   40.2365   65.9305 C.3       3 GLC5        0.0000 
     23 CA         73.9605   38.9285   74.5525 C.3       3 GLC5        0.0000 
     24 CA         75.1690   38.1400   73.0420 C.3       9 GLL5        0.0000 
     25 CA         72.7520   39.7170   76.0630 C.3       6 GLP5        0.0000 
     26 N          72.0590   35.8945   73.9170 N.am      2 SEC2        0.0000 
     27 N          73.5840   36.3860   73.4700 N.am      8 SEL2        0.0000 
     28 N          70.5340   35.4030   74.3640 N.am      5 SEP2        0.0000 
     29 N          73.0925   35.0035   73.8325 N.am      2 SEC2        0.0000 
     30 N          72.6010   33.6210   74.1950 N.am      5 SEP2        0.0000 
     31 O          74.0365   36.4330   74.5985 O.2       1 ALC1        0.0000 
     32 O          73.5840   36.3860   73.4700 O.2       7 ALL1        0.0000 
     33 O          74.4890   36.4800   75.7270 O.2       4 ALP1        0.0000 
     34 CA         74.0710   34.9025   70.0430 C.3       3 GLC5        0.0000 
     35 CA         74.4280   36.6770   71.2590 C.3       9 GLL5        0.0000 
     36 CA         73.7140   33.1280   68.8270 C.3       6 GLP5        0.0000 
     37 CA         72.4720   35.9010   70.8330 C.3       3 GLC5        0.0000 
     38 CA         70.5160   35.1250   70.4070 C.3       6 GLP5        0.0000 
     39 CA         75.2470   35.9850   68.9120 C.3       3 GLC5        0.0000 
     40 CA         75.2410   37.3630   70.3600 C.3       9 GLL5        0.0000 
     41 CA         75.2530   34.6070   67.4640 C.3       6 GLP5        0.0000 
     42 CA         79.9620   43.2635   72.5905 C.3       3 GLC5        0.0000 
     43 CA         79.1470   42.0170   71.6670 C.3       9 GLL5        0.0000 
     44 CA         80.7770   44.5100   73.5140 C.3       6 GLP5        0.0000 
     45 CA         79.9070   42.1530   74.2330 C.3       3 GLC5        0.0000 
     46 CA         80.4590   41.0690   73.2630 C.3       9 GLL5        0.0000 
     47 CA         79.3550   43.2370   75.2030 C.3       6 GLP5        0.0000 
     48 CA         79.7180   39.8865   74.1495 C.3       3 GLC5        0.0000 
     49 CA         78.9770   38.7040   75.0360 C.3       6 GLP5        0.0000 
     50 CA         81.8750   41.7545   71.6545 C.3       3 GLC5        0.0000 
     51 CA         83.2910   42.4400   70.0460 C.3       6 GLP5        0.0000 
     52 CA         81.5960   40.9120   74.1605 C.3       3 GLC5        0.0000 
     53 CA         82.7330   40.7550   75.0580 C.3       6 GLP5        0.0000 
     54 N          80.6495   44.0270   66.2340 N.am      2 SEC2        0.0000 
     55 N          80.8480   43.3580   67.3100 N.am      8 SEL2        0.0000 
     56 N          80.4510   44.6960   65.1580 N.am      5 SEP2        0.0000 
     57 CA         81.4613   41.7525   67.8015 C.3       3 GLC5        0.0000 
     58 CA         83.4240   41.3040   67.8730 C.3       6 GLP5        0.0000 
     59 CA         79.0383   44.0054   69.0738 C.3       3 GLC5        0.0000 
     60 CA         79.1100   41.9430   70.1820 C.3       9 GLL5        0.0000 
     61 CA         77.4787   42.8420   71.7452 C.3       3 GLC5        0.0000 
     62 CA         75.8290   43.7040   72.5660 C.3       6 GLP5        0.0000 
     63 CA         77.8745   37.8160   68.8810 C.3       3 GLC5        0.0000 
     64 CA         76.9060   39.1920   69.8100 C.3       9 GLL5        0.0000 
     65 CA         79.2220   36.3030   68.6120 C.3       6 GLP5        0.0000 
     66 CA         74.8113   42.5590   69.2085 C.3       3 GLC5        0.0000 
     67 CA         74.6750   44.2600   70.4110 C.3       6 GLP5        0.0000 
     68 CA         76.0672   42.8610   66.1238 C.3       3 GLC5        0.0000 
     69 CA         75.3772   40.3810   65.1058 C.3       3 GLC5        0.0000 
     70 CA         76.1980   41.0060   66.5620 C.3       9 GLL5        0.0000 
     71 CA         75.2260   39.6670   63.2760 C.3       6 GLP5        0.0000 
     72 CA         76.3802   38.5084   66.5680 C.3       3 GLC5        0.0000 
     73 CA         76.3440   36.6150   65.8650 C.3       6 GLP5        0.0000 
     74 CA         79.3404   39.4371   68.0011 C.3       3 GLC5        0.0000 
     75 CA         80.3500   37.6820   68.2060 C.3       6 GLP5        0.0000 
     76 CA         77.4262   37.1025   69.5952 C.3       3 GLC5        0.0000 
     77 CA         76.0200   38.4410   70.7970 C.3       9 GLL5        0.0000 
     78 CA         77.2765   38.5932   73.8127 C.3       3 GLC5        0.0000 
     79 CA         75.9830   38.8250   72.1370 C.3       9 GLL5        0.0000 
     80 CA         76.8005   36.8203   73.1437 C.3       3 GLC5        0.0000 
     81 CA         78.0250   35.1580   73.6980 C.3       6 GLP5        0.0000 
     82 CA         75.5931   35.4774   71.7401 C.3       3 GLC5        0.0000 
     83 CA         74.3910   37.0640   72.5980 C.3       9 GLL5        0.0000 
     84 CA         76.3610   33.8380   72.3360 C.3       6 GLP5        0.0000 
     85 CA         81.3221   42.3041   70.3914 C.3       3 GLC5        0.0000 
@<TRIPOS>BOND
@<TRIPOS>SUBSTRUCTURE
     1 ALC1       31 GROUP        1 X    ALC  0     ROOT ALC X 1
     2 SEC2       26 GROUP        1 X    SEC  0     **** SEC X 2
     3 GLC5        1 GROUP        1 X    GLC  0     **** GLC X 6
     4 ALP1       33 GROUP        1 Y    ALP  0     ROOT ALP Y 8
     5 SEP2       28 GROUP        1 Y    SEP  0     **** SEP Y 9
     6 GLP5        3 GROUP        1 Y    GLP  0     **** GLP Y 13
     7 ALL1       32 GROUP        1 Z    ALL  0     ROOT ALL Z 15
     8 SEL2       27 GROUP        1 Z    SEL  0     **** SEL Z 16
     9 GLL5        2 GROUP        1 Z    GLL  0     **** GLL Z 20
@<TRIPOS>SET

