#    Name: 2jj3_JJ3_1_ligand
#    Modification time : Tue Mar 25 20:56:11 2014

@<TRIPOS>MOLECULE
2jj3_JJ3_1_ligand
   46    49     1     0     0
SMALL
NO_CHARGES


@<TRIPOS>ATOM
      1 C1         79.9690   42.6170   68.0430 C.ar      1 JJ31499     0.0000 
      2 C2         80.0090   42.6960   69.4310 C.ar      1 JJ31499     0.0000 
      3 C3         79.1100   41.9430   70.1820 C.ar      1 JJ31499     0.0000 
      4 C4         78.1650   41.1120   69.5730 C.ar      1 JJ31499     0.0000 
      5 O5         77.3310   40.4200   70.4030 O.3       1 JJ31499     0.0000 
      6 C6         76.9060   39.1920   69.8100 C.3       1 JJ31499     0.0000 
      7 C8         76.1480   39.4660   68.4900 C.3       1 JJ31499     0.0000 
      8 C10        75.0360   40.5320   68.7030 C.3       1 JJ31499     0.0000 
      9 C11        74.8590   41.1840   67.3090 C.3       1 JJ31499     0.0000 
     10 C12        76.1980   41.0060   66.5620 C.3       1 JJ31499     0.0000 
     11 C13        77.1220   40.1290   67.4700 C.3       1 JJ31499     0.0000 
     12 C15        78.1260   41.0270   68.1880 C.ar      1 JJ31499     0.0000 
     13 C16        79.0280   41.7850   67.4170 C.ar      1 JJ31499     0.0000 
     14 C17        76.0200   38.4410   70.7970 C.ar      1 JJ31499     0.0000 
     15 C18        75.9830   38.8250   72.1370 C.ar      1 JJ31499     0.0000 
     16 C19        75.1690   38.1400   73.0420 C.ar      1 JJ31499     0.0000 
     17 C20        74.3910   37.0640   72.5980 C.ar      1 JJ31499     0.0000 
     18 O21        73.5840   36.3860   73.4700 O.3       1 JJ31499     0.0000 
     19 C22        74.4280   36.6770   71.2590 C.ar      1 JJ31499     0.0000 
     20 C23        75.2410   37.3630   70.3600 C.ar      1 JJ31499     0.0000 
     21 C24        79.1470   42.0170   71.6670 C.3       1 JJ31499     0.0000 
     22 O25        79.6730   40.7730   72.1350 O.3       1 JJ31499     0.0000 
     23 C26        80.4590   41.0690   73.2630 C.3       1 JJ31499     0.0000 
     24 O27        80.8480   43.3580   67.3100 O.3       1 JJ31499     0.0000 
     25 H          80.6909   43.3003   69.8958 H         1 JJ31499     0.0000 
     26 H          77.7555   38.5612   69.5756 H         1 JJ31499     0.0000 
     27 H          75.7484   38.6058   68.0832 H         1 JJ31499     0.0000 
     28 H          75.3721   41.2570   69.3945 H         1 JJ31499     0.0000 
     29 H          74.1387   40.0517   68.9874 H         1 JJ31499     0.0000 
     30 H          74.6522   42.2246   67.4291 H         1 JJ31499     0.0000 
     31 H          74.0833   40.6779   66.7779 H         1 JJ31499     0.0000 
     32 H          76.6592   41.9581   66.4155 H         1 JJ31499     0.0000 
     33 H          76.0317   40.4937   65.6397 H         1 JJ31499     0.0000 
     34 H          77.5799   39.4007   66.8932 H         1 JJ31499     0.0000 
     35 H          78.9955   41.7274   66.3938 H         1 JJ31499     0.0000 
     36 H          76.5562   39.6146   72.4608 H         1 JJ31499     0.0000 
     37 H          75.1403   38.4221   74.0254 H         1 JJ31499     0.0000 
     38 H          73.8565   35.8873   70.9368 H         1 JJ31499     0.0000 
     39 H          75.2713   37.0796   69.3728 H         1 JJ31499     0.0000 
     40 H          78.1378   42.1869   72.0394 H         1 JJ31499     0.0000 
     41 H          79.7783   42.8527   71.9654 H         1 JJ31499     0.0000 
     42 H          80.8719   40.2465   73.6541 H         1 JJ31499     0.0000 
     43 H          81.2065   41.6950   73.0409 H         1 JJ31499     0.0000 
     44 H          79.9213   41.5000   73.9876 H         1 JJ31499     0.0000 
     45 H          73.6753   36.8727   74.3387 H         1 JJ31499     0.0000 
     46 H          81.4936   43.7286   67.9777 H         1 JJ31499     0.0000 
@<TRIPOS>BOND
     1    2    1 ar   
     2   13    1 ar   
     3   24    1 1    
     4    3    2 ar   
     5   25    2 1    
     6    4    3 ar   
     7   21    3 1    
     8    5    4 1    
     9   12    4 ar   
    10    6    5 1    
    11    7    6 1    
    12   14    6 1    
    13   26    6 1    
    14    8    7 1    
    15   11    7 1    
    16   27    7 1    
    17    9    8 1    
    18   28    8 1    
    19   29    8 1    
    20   10    9 1    
    21   30    9 1    
    22   31    9 1    
    23   11   10 1    
    24   32   10 1    
    25   33   10 1    
    26   12   11 1    
    27   34   11 1    
    28   13   12 ar   
    29   35   13 1    
    30   15   14 ar   
    31   20   14 ar   
    32   16   15 ar   
    33   36   15 1    
    34   17   16 ar   
    35   37   16 1    
    36   18   17 1    
    37   19   17 ar   
    38   45   18 1    
    39   20   19 ar   
    40   38   19 1    
    41   39   20 1    
    42   22   21 1    
    43   40   21 1    
    44   41   21 1    
    45   23   22 1    
    46   42   23 1    
    47   43   23 1    
    48   44   23 1    
    49   46   24 1    
@<TRIPOS>SUBSTRUCTURE
     1 JJ31499     1 GROUP   
@<TRIPOS>SET

