#    Name: 1c2t_NHS_3_INTS_M
#    Modification time : Mon Mar 24 20:08:41 2014

@<TRIPOS>MOLECULE
1c2t_NHS_3_INTS_M
   74     0    12     0     0
SMALL
NO_CHARGES


@<TRIPOS>ATOM
      1 N          38.4275   24.3450    6.8030 N.am      2 SEC2        0.0000 
      2 N          37.2490   23.5520    6.2040 N.am     10 SEL2        0.0000 
      3 N          39.6060   25.1380    7.4020 N.am      6 SEP2        0.0000 
      4 O          36.5510   24.4530    8.5595 O.2       1 ALC1        0.0000 
      5 O          35.5530   23.5940    7.7620 O.2       9 ALL1        0.0000 
      6 O          37.5490   25.3120    9.3570 O.2       5 ALP1        0.0000 
      7 O          34.1875   23.0355    7.2275 O.2       1 ALC1        0.0000 
      8 O          32.8220   22.4770    6.6930 O.2       5 ALP1        0.0000 
      9 O          34.1125   22.2585    6.2955 O.2       1 ALC1        0.0000 
     10 O          35.4030   22.0400    5.8980 O.2       9 ALL1        0.0000 
     11 N          35.0660   19.1985    4.3750 N.am      2 SEC2        0.0000 
     12 N          35.2380   20.5920    4.1870 N.am     10 SEL2        0.0000 
     13 N          34.8940   17.8050    4.5630 N.am      6 SEP2        0.0000 
     14 CA         35.4140   23.1115    4.1005 C.3       4 GLC5        0.0000 
     15 CA         37.2200   21.9760    4.2090 C.3      12 GLL5        0.0000 
     16 CA         33.6080   24.2470    3.9920 C.3       8 GLP5        0.0000 
     17 CA         38.0170   20.3680    5.5035 C.3       4 GLC5        0.0000 
     18 CA         38.8140   18.7600    6.7980 C.3       8 GLP5        0.0000 
     19 CA         42.9860   19.8410    1.1370 C.3       4 GLC5        0.0000 
     20 CA         41.2580   19.6720    2.5170 C.3      12 GLL5        0.0000 
     21 CA         44.7140   20.0100   -0.2430 C.3       8 GLP5        0.0000 
     22 CA         43.7640   22.1935    4.2560 C.3       4 GLC5        0.0000 
     23 CA         43.3450   20.1930    3.7260 C.3      12 GLL5        0.0000 
     24 CA         44.1830   24.1940    4.7860 C.3       8 GLP5        0.0000 
     25 O          45.6025   21.1010    4.8130 O.2       1 ALC1        0.0000 
     26 O          45.2470   19.7960    5.8540 O.2       9 ALL1        0.0000 
     27 O          45.9580   22.4060    3.7720 O.2       5 ALP1        0.0000 
     28 CA         46.2110   18.1535    5.3625 C.3       4 GLC5        0.0000 
     29 CA         46.4410   19.8570    6.7800 C.3      12 GLL5        0.0000 
     30 CA         45.9810   16.4500    3.9450 C.3       8 GLP5        0.0000 
     31 CA         43.7790   19.8185    8.3390 C.3       4 GLC5        0.0000 
     32 CA         45.9820   19.7510    8.2740 C.3      12 GLL5        0.0000 
     33 CA         41.5760   19.8860    8.4040 C.3       8 GLP5        0.0000 
     34 CA         43.6405   21.0615    8.3040 C.3       4 GLC5        0.0000 
     35 CA         45.6410   21.0710    9.0550 C.3      12 GLL5        0.0000 
     36 CA         41.6400   21.0520    7.5530 C.3       8 GLP5        0.0000 
     37 NZ         44.0825   23.6375    8.8860 N.4       3 LYC4        0.0000 
     38 NZ         44.5160   22.8410    7.8240 N.4      11 LYL4        0.0000 
     39 NZ         44.1430   24.6260   11.1670 N.4       7 LYP4        0.0000 
     40 N          44.0825   23.6375    8.8860 N.am      2 SEC2        0.0000 
     41 N          44.5160   22.8410    7.8240 N.am     10 SEL2        0.0000 
     42 N          43.6490   24.4340    9.9480 N.am      6 SEP2        0.0000 
     43 N          43.5530   23.1930    7.1605 N.am      2 SEC2        0.0000 
     44 N          42.5900   23.5450    6.4970 N.am      6 SEP2        0.0000 
     45 N          39.0990   16.8510   -0.0280 N.am      2 SEC2        0.0000 
     46 N          39.9690   17.7990    0.4320 N.am     10 SEL2        0.0000 
     47 N          38.2290   15.9030   -0.4880 N.am      6 SEP2        0.0000 
     48 N          37.3570   19.7790   -0.1550 N.am      2 SEC2        0.0000 
     49 N          38.3270   19.0360    0.3330 N.am     10 SEL2        0.0000 
     50 N          36.3870   20.5220   -0.6430 N.am      6 SEP2        0.0000 
     51 N          38.2780   17.4695   -0.0775 N.am      2 SEC2        0.0000 
     52 CA         37.8090   23.5695    1.9595 C.3       4 GLC5        0.0000 
     53 CA         37.8220   21.4700    3.0360 C.3      12 GLL5        0.0000 
     54 CA         37.1740   25.4130    1.1030 C.3       8 GLP5        0.0000 
     55 CA         38.2922   24.3417    2.5177 C.3       4 GLC5        0.0000 
     56 CA         39.7070   23.0110    3.3400 C.3      12 GLL5        0.0000 
     57 CA         38.7030   25.2388    5.0915 C.3       4 GLC5        0.0000 
     58 CA         39.1140   23.5300    4.5250 C.3      12 GLL5        0.0000 
     59 CA         38.9090   27.2010    5.4310 C.3       8 GLP5        0.0000 
     60 CA         39.9666   23.2929    5.7914 C.3       4 GLC5        0.0000 
     61 CA         37.8800   23.0230    4.9790 C.3      12 GLL5        0.0000 
     62 CA         41.2880   23.4390    7.1270 C.3       8 GLP5        0.0000 
     63 CA         43.3438   17.8858    3.4463 C.3       4 GLC5        0.0000 
     64 CA         43.0650   19.2390    4.7430 C.3      12 GLL5        0.0000 
     65 CA         44.2350   16.9100    2.2020 C.3       8 GLP5        0.0000 
     66 CA         40.1007   18.6755    5.4428 C.3       4 GLC5        0.0000 
     67 CA         41.8400   18.4840    4.6380 C.3      12 GLL5        0.0000 
     68 CA         42.6658   18.0475    2.6145 C.3       4 GLC5        0.0000 
     69 CA         40.9350   18.6980    3.5370 C.3      12 GLL5        0.0000 
     70 CA         44.0480   21.4370    2.3487 C.3       4 GLC5        0.0000 
     71 CA         42.4690   20.4070    2.6450 C.3      12 GLL5        0.0000 
     72 CA         45.1890   22.5740    1.5120 C.3       8 GLP5        0.0000 
     73 CA         43.5710   18.6050    2.6937 C.3       4 GLC5        0.0000 
     74 CA         42.2694   20.2896    5.8806 C.3       4 GLC5        0.0000 
@<TRIPOS>BOND
@<TRIPOS>SUBSTRUCTURE
     1 ALC1        4 GROUP        1 X    ALC  0     ROOT ALC X 1
     2 SEC2        1 GROUP        1 X    SEC  0     **** SEC X 2
     3 LYC4       37 GROUP        1 X    LYC  0     **** LYC X 4
     4 GLC5       14 GROUP        1 X    GLC  0     **** GLC X 6
     5 ALP1        6 GROUP        1 Y    ALP  0     ROOT ALP Y 8
     6 SEP2        3 GROUP        1 Y    SEP  0     **** SEP Y 9
     7 LYP4       39 GROUP        1 Y    LYP  0     **** LYP Y 11
     8 GLP5       16 GROUP        1 Y    GLP  0     **** GLP Y 13
     9 ALL1        5 GROUP        1 Z    ALL  0     ROOT ALL Z 15
    10 SEL2        2 GROUP        1 Z    SEL  0     **** SEL Z 16
    11 LYL4       38 GROUP        1 Z    LYL  0     **** LYL Z 18
    12 GLL5       15 GROUP        1 Z    GLL  0     **** GLL Z 20
@<TRIPOS>SET

