#    Name: 1c2t_NHS_3_ligand
#    Modification time : Mon Mar 24 20:08:41 2014

@<TRIPOS>MOLECULE
1c2t_NHS_3_ligand
   54    56     1     0     0
SMALL
NO_CHARGES


@<TRIPOS>ATOM
      1 N1         37.2490   23.5520    6.2040 N.2       1 NHS220      0.0000 
      2 C2         36.1100   23.0840    6.6250 C.2       1 NHS220      0.0000 
      3 NA2        35.5530   23.5940    7.7620 N.pl3     1 NHS220      0.0000 
      4 N3         35.4030   22.0400    5.8980 N.am      1 NHS220      0.0000 
      5 C4         35.8910   21.4700    4.7420 C.2       1 NHS220      0.0000 
      6 O4         35.2380   20.5920    4.1870 O.2       1 NHS220      0.0000 
      7 C4A        37.2200   21.9760    4.2090 C.ar      1 NHS220      0.0000 
      8 C5         37.8220   21.4700    3.0360 C.ar      1 NHS220      0.0000 
      9 C6         39.0660   21.9820    2.5960 C.ar      1 NHS220      0.0000 
     10 C7         39.7070   23.0110    3.3400 C.ar      1 NHS220      0.0000 
     11 C8         39.1140   23.5300    4.5250 C.ar      1 NHS220      0.0000 
     12 C8A        37.8800   23.0230    4.9790 C.ar      1 NHS220      0.0000 
     13 C9         39.7120   21.4250    1.3180 C.3       1 NHS220      0.0000 
     14 C10        40.3330   19.9700    1.2600 C.3       1 NHS220      0.0000 
     15 C11        43.0650   19.2390    4.7430 C.ar      1 NHS220      0.0000 
     16 C12        41.8400   18.4840    4.6380 C.ar      1 NHS220      0.0000 
     17 C13        40.9350   18.6980    3.5370 C.ar      1 NHS220      0.0000 
     18 C14        41.2580   19.6720    2.5170 C.ar      1 NHS220      0.0000 
     19 C15        42.4690   20.4070    2.6450 C.ar      1 NHS220      0.0000 
     20 C16        43.3450   20.1930    3.7260 C.ar      1 NHS220      0.0000 
     21 C          44.0680   19.0410    5.8940 C.2       1 NHS220      0.0000 
     22 O          43.8420   18.2050    6.8020 O.2       1 NHS220      0.0000 
     23 N          45.2470   19.7960    5.8540 N.am      1 NHS220      0.0000 
     24 CA         46.4410   19.8570    6.7800 C.3       1 NHS220      0.0000 
     25 CB         45.9820   19.7510    8.2740 C.3       1 NHS220      0.0000 
     26 CG         45.6410   21.0710    9.0550 C.3       1 NHS220      0.0000 
     27 CD         45.5650   22.3450    8.2090 C.2       1 NHS220      0.0000 
     28 OE1        44.5160   22.8410    7.8240 O.co2     1 NHS220      0.0000 
     29 OE2        46.7980   22.8640    7.9220 O.co2     1 NHS220      0.0000 
     30 CT         47.6780   18.9280    6.4670 C.2       1 NHS220      0.0000 
     31 O1         47.6290   17.6910    6.4840 O.co2     1 NHS220      0.0000 
     32 O2         48.8180   19.6310    6.1630 O.co2     1 NHS220      0.0000 
     33 CA1        39.3970   18.7950    0.8920 C.2       1 NHS220      0.0000 
     34 OA1        39.9690   17.7990    0.4320 O.co2     1 NHS220      0.0000 
     35 OA2        38.3270   19.0360    0.3330 O.co2     1 NHS220      0.0000 
     36 H          34.5537   23.5969    7.7993 H         1 NHS220      0.0000 
     37 H          36.1932   23.9199    8.4577 H         1 NHS220      0.0000 
     38 H          34.4909   21.7321    6.2946 H         1 NHS220      0.0000 
     39 H          37.3590   20.7317    2.5021 H         1 NHS220      0.0000 
     40 H          40.6048   23.3825    3.0198 H         1 NHS220      0.0000 
     41 H          39.5882   24.2708    5.0427 H         1 NHS220      0.0000 
     42 H          40.5253   22.1403    0.9853 H         1 NHS220      0.0000 
     43 H          38.9572   21.4914    0.4755 H         1 NHS220      0.0000 
     44 H          41.1025   20.0310    0.3888 H         1 NHS220      0.0000 
     45 H          41.6134   17.7936    5.3488 H         1 NHS220      0.0000 
     46 H          40.0764   18.1704    3.4753 H         1 NHS220      0.0000 
     47 H          42.7042   21.1087    1.9289 H         1 NHS220      0.0000 
     48 H          44.2187   20.7421    3.7879 H         1 NHS220      0.0000 
     49 H          45.3596   20.4831    5.0054 H         1 NHS220      0.0000 
     50 H          46.8502   20.9282    6.7054 H         1 NHS220      0.0000 
     51 H          46.7745   19.2098    8.8431 H         1 NHS220      0.0000 
     52 H          45.0873   19.0859    8.3159 H         1 NHS220      0.0000 
     53 H          46.4033   21.2017    9.8453 H         1 NHS220      0.0000 
     54 H          44.6757   20.9171    9.5719 H         1 NHS220      0.0000 
@<TRIPOS>BOND
     1    2    1 2    
     2   12    1 1    
     3    3    2 1    
     4    4    2 1    
     5   36    3 1    
     6   37    3 1    
     7    5    4 am   
     8   38    4 1    
     9    6    5 2    
    10    7    5 1    
    11    8    7 ar   
    12   12    7 ar   
    13    9    8 ar   
    14   39    8 1    
    15   10    9 ar   
    16   13    9 1    
    17   11   10 ar   
    18   40   10 1    
    19   12   11 ar   
    20   41   11 1    
    21   14   13 1    
    22   42   13 1    
    23   43   13 1    
    24   18   14 1    
    25   33   14 1    
    26   44   14 1    
    27   16   15 ar   
    28   20   15 ar   
    29   21   15 1    
    30   17   16 ar   
    31   45   16 1    
    32   18   17 ar   
    33   46   17 1    
    34   19   18 ar   
    35   20   19 ar   
    36   47   19 1    
    37   48   20 1    
    38   22   21 2    
    39   23   21 am   
    40   24   23 1    
    41   49   23 1    
    42   25   24 1    
    43   30   24 1    
    44   50   24 1    
    45   26   25 1    
    46   51   25 1    
    47   52   25 1    
    48   27   26 1    
    49   53   26 1    
    50   54   26 1    
    51   28   27 ar   
    52   29   27 ar   
    53   31   30 ar   
    54   32   30 ar   
    55   34   33 ar   
    56   35   33 ar   
@<TRIPOS>SUBSTRUCTURE
     1 NHS220      1 GROUP   
@<TRIPOS>SET

