#    Name: 1qjf_ACS_1_INTS_M
#    Modification time : Mon Mar 24 23:33:53 2014

@<TRIPOS>MOLECULE
1qjf_ACS_1_INTS_M
   56     0    12     0     0
SMALL
NO_CHARGES


@<TRIPOS>ATOM
      1 CA         16.3350   34.6425    6.7700 C.3       4 GLC5        0.0000 
      2 CA         15.9010   36.5040    6.0360 C.3      12 GLL5        0.0000 
      3 CA         16.7690   32.7810    7.5040 C.3       8 GLP5        0.0000 
      4 CA         14.4610   34.9620    5.9455 C.3       4 GLC5        0.0000 
      5 CA         13.0210   33.4200    5.8550 C.3       8 GLP5        0.0000 
      6 NZ         19.5730   36.2020    5.9405 N.4       2 LYC4        0.0000 
      7 NZ         18.2500   36.3230    6.4340 N.4      10 LYL4        0.0000 
      8 NZ         21.1200   35.5110    4.2760 N.4       6 LYP4        0.0000 
      9 N          19.5730   36.2020    5.9405 N.am      1 SEC2        0.0000 
     10 N          18.2500   36.3230    6.4340 N.am      9 SEL2        0.0000 
     11 N          20.8960   36.0810    5.4470 N.am      5 SEP2        0.0000 
     12 NZ         18.8100   35.6440    3.8985 N.4       2 LYC4        0.0000 
     13 NZ         17.4960   35.9670    4.3560 N.4      10 LYL4        0.0000 
     14 N          18.8100   35.6440    3.8985 N.am      1 SEC2        0.0000 
     15 N          17.4960   35.9670    4.3560 N.am      9 SEL2        0.0000 
     16 N          20.1240   35.3210    3.4410 N.am      5 SEP2        0.0000 
     17 N          17.0205   34.9030    3.6700 N.am      1 SEC2        0.0000 
     18 N          16.5450   33.8390    2.9840 N.am      5 SEP2        0.0000 
     19 CA         16.3160   39.1615    4.7005 C.3       4 GLC5        0.0000 
     20 CA         15.2520   37.6400    5.2810 C.3      12 GLL5        0.0000 
     21 CA         17.3800   40.6830    4.1200 C.3       8 GLP5        0.0000 
     22 CA         15.3600   39.9575    4.6135 C.3       4 GLC5        0.0000 
     23 CA         13.3400   39.2320    5.1070 C.3      12 GLL5        0.0000 
     24 CA         12.9880   41.2395    4.8775 C.3       4 GLC5        0.0000 
     25 CA         12.6360   43.2470    4.6480 C.3       8 GLP5        0.0000 
     26 CA          7.2390   36.1035    5.4735 C.3       4 GLC5        0.0000 
     27 CA          6.8960   37.6370    4.3150 C.3      12 GLL5        0.0000 
     28 CA          7.5820   34.5700    6.6320 C.3       8 GLP5        0.0000 
     29 Zn          6.9270   40.2615    1.3710 Zn        3 ZIC7        0.0000 
     30 Zn          6.1100   39.9600    1.9620 Zn       11 ZIL7        0.0000 
     31 Zn          7.7440   40.5630    0.7800 Zn        7 ZIP7        0.0000 
     32 CA          4.6460   36.2675    0.0645 C.3       4 GLC5        0.0000 
     33 CA          4.9110   37.8940    0.8020 C.3      12 GLL5        0.0000 
     34 CA          4.3810   34.6410   -0.6730 C.3       8 GLP5        0.0000 
     35 CA          3.1940   38.2625    1.0865 C.3       4 GLC5        0.0000 
     36 CA          1.4770   38.6310    1.3710 C.3       8 GLP5        0.0000 
     37 CA          5.0360   39.8400    0.0635 C.3       4 GLC5        0.0000 
     38 CA          5.1610   41.7860   -0.6750 C.3       8 GLP5        0.0000 
     39 N           4.7100   38.2530    7.1565 N.am      1 SEC2        0.0000 
     40 N           5.6040   38.3390    6.1570 N.am      9 SEL2        0.0000 
     41 N           3.8160   38.1670    8.1560 N.am      5 SEP2        0.0000 
     42 N           4.7820   35.3100    4.3920 N.am      1 SEC2        0.0000 
     43 N           4.8570   36.6600    4.8740 N.am      9 SEL2        0.0000 
     44 N           4.7070   33.9600    3.9100 N.am      5 SEP2        0.0000 
     45 CA         10.5710   38.4005    1.6215 C.3       4 GLC5        0.0000 
     46 CA          9.3430   39.6550    2.3130 C.3      12 GLL5        0.0000 
     47 CA         11.7990   37.1460    0.9300 C.3       8 GLP5        0.0000 
     48 CA         13.2469   37.1595    4.0485 C.3       4 GLC5        0.0000 
     49 CA         13.7990   37.9120    5.7130 C.3      12 GLL5        0.0000 
     50 CA         12.5610   35.8150    2.7950 C.3       8 GLP5        0.0000 
     51 CA          8.4388   41.2882    5.2160 C.3       4 GLC5        0.0000 
     52 CA          9.6190   39.6660    5.1560 C.3      12 GLL5        0.0000 
     53 CA          7.7800   42.8750    5.8430 C.3       8 GLP5        0.0000 
     54 CA          8.7637   41.5675    2.4283 C.3       4 GLC5        0.0000 
     55 CA          8.5760   39.7370    4.0220 C.3      12 GLL5        0.0000 
     56 CA          8.5680   43.4390    1.6890 C.3       8 GLP5        0.0000 
@<TRIPOS>BOND
@<TRIPOS>SUBSTRUCTURE
     1 SEC2        9 GROUP        1 X    SEC  0     ROOT SEC X 2
     2 LYC4        6 GROUP        1 X    LYC  0     **** LYC X 4
     3 ZIC7       29 GROUP        1 X    ZIC  0     **** ZIC X 5
     4 GLC5        1 GROUP        1 X    GLC  0     **** GLC X 6
     5 SEP2       11 GROUP        1 Y    SEP  0     ROOT SEP Y 9
     6 LYP4        8 GROUP        1 Y    LYP  0     **** LYP Y 11
     7 ZIP7       31 GROUP        1 Y    ZIP  0     **** ZIP Y 12
     8 GLP5        3 GROUP        1 Y    GLP  0     **** GLP Y 13
     9 SEL2       10 GROUP        1 Z    SEL  0     ROOT SEL Z 16
    10 LYL4        7 GROUP        1 Z    LYL  0     **** LYL Z 18
    11 ZIL7       30 GROUP        1 Z    ZIL  0     **** ZIL Z 19
    12 GLL5        2 GROUP        1 Z    GLL  0     **** GLL Z 20
@<TRIPOS>SET

