#    Name: 1qjf_ACS_1_ligand
#    Modification time : Mon Mar 24 23:33:53 2014

@<TRIPOS>MOLECULE
1qjf_ACS_1_ligand
   44    44     1     0     0
SMALL
NO_CHARGES


@<TRIPOS>ATOM
      1 N1         15.8020   36.5640    7.5470 N.4       1 ACS1333     0.0000 
      2 C2         15.9010   36.5040    6.0360 C.3       1 ACS1333     0.0000 
      3 C3         17.3350   36.2390    5.5800 C.2       1 ACS1333     0.0000 
      4 O4         18.2500   36.3230    6.4340 O.co2     1 ACS1333     0.0000 
      5 O5         17.4960   35.9670    4.3560 O.co2     1 ACS1333     0.0000 
      6 C6         15.2520   37.6400    5.2810 C.3       1 ACS1333     0.0000 
      7 C7         13.7990   37.9120    5.7130 C.3       1 ACS1333     0.0000 
      8 C10        13.3400   39.2320    5.1070 C.3       1 ACS1333     0.0000 
      9 C13        11.9900   39.5690    5.6700 C.2       1 ACS1333     0.0000 
     10 N16        11.0120   39.4710    4.7720 N.am      1 ACS1333     0.0000 
     11 O17        11.7750   39.9320    6.8350 O.2       1 ACS1333     0.0000 
     12 C18         9.6190   39.6660    5.1560 C.3       1 ACS1333     0.0000 
     13 C19         8.9230   38.3440    5.5430 C.2       1 ACS1333     0.0000 
     14 O20         9.1580   37.4730    6.3800 O.2       1 ACS1333     0.0000 
     15 N21         7.9680   38.5530    4.6300 N.am      1 ACS1333     0.0000 
     16 C22         6.8960   37.6370    4.3150 C.3       1 ACS1333     0.0000 
     17 C23         5.6600   37.5730    5.2490 C.2       1 ACS1333     0.0000 
     18 C24         6.6430   37.4530    2.8690 C.3       1 ACS1333     0.0000 
     19 S25         5.4040   38.6890    2.3710 S.o       1 ACS1333     0.0000 
     20 O28         6.1100   39.9600    1.9620 O.2       1 ACS1333     0.0000 
     21 C29         4.9110   37.8940    0.8020 C.3       1 ACS1333     0.0000 
     22 O35         5.6040   38.3390    6.1570 O.co2     1 ACS1333     0.0000 
     23 O36         4.8570   36.6600    4.8740 O.co2     1 ACS1333     0.0000 
     24 C42         8.5760   39.7370    4.0220 C.3       1 ACS1333     0.0000 
     25 S44         9.3430   39.6550    2.3130 S.3       1 ACS1333     0.0000 
     26 H          15.3282   35.5565    5.7301 H         1 ACS1333     0.0000 
     27 H          15.2584   37.4177    4.2030 H         1 ACS1333     0.0000 
     28 H          15.8363   38.5613    5.4269 H         1 ACS1333     0.0000 
     29 H          13.7565   37.9710    6.7908 H         1 ACS1333     0.0000 
     30 H          13.1692   37.1091    5.3583 H         1 ACS1333     0.0000 
     31 H          13.2782   39.1269    4.0316 H         1 ACS1333     0.0000 
     32 H          14.0522   40.0064    5.3610 H         1 ACS1333     0.0000 
     33 H          11.1856   39.2556    3.7745 H         1 ACS1333     0.0000 
     34 H           9.3673   40.3491    5.8600 H         1 ACS1333     0.0000 
     35 H           7.4186   36.5409    4.5880 H         1 ACS1333     0.0000 
     36 H           6.1582   36.5494    2.6096 H         1 ACS1333     0.0000 
     37 H           7.4545   37.6986    2.2366 H         1 ACS1333     0.0000 
     38 H           8.0413   40.5816    4.0991 H         1 ACS1333     0.0000 
     39 H          16.0954   35.7080    7.9727 H         1 ACS1333     0.0000 
     40 H          16.3726   37.2915    7.9280 H         1 ACS1333     0.0000 
     41 H          14.8652   36.7366    7.8512 H         1 ACS1333     0.0000 
     42 H           5.7040   37.6530    0.2425 H         1 ACS1333     0.0000 
     43 H           4.3957   37.0514    0.9585 H         1 ACS1333     0.0000 
     44 H           4.3325   38.4927    0.2480 H         1 ACS1333     0.0000 
@<TRIPOS>BOND
     1    2    1 1    
     2   39    1 1    
     3   40    1 1    
     4   41    1 1    
     5    3    2 1    
     6    6    2 1    
     7   26    2 1    
     8    4    3 ar   
     9    5    3 ar   
    10    7    6 1    
    11   27    6 1    
    12   28    6 1    
    13    8    7 1    
    14   29    7 1    
    15   30    7 1    
    16    9    8 1    
    17   31    8 1    
    18   32    8 1    
    19   10    9 am   
    20   11    9 2    
    21   12   10 1    
    22   33   10 1    
    23   13   12 1    
    24   24   12 1    
    25   34   12 1    
    26   14   13 2    
    27   15   13 am   
    28   16   15 1    
    29   24   15 1    
    30   17   16 1    
    31   18   16 1    
    32   35   16 1    
    33   22   17 ar   
    34   23   17 ar   
    35   19   18 1    
    36   36   18 1    
    37   37   18 1    
    38   20   19 2    
    39   21   19 1    
    40   42   21 1    
    41   43   21 1    
    42   44   21 1    
    43   25   24 1    
    44   38   24 1    
@<TRIPOS>SUBSTRUCTURE
     1 ACS1333     1 GROUP   
@<TRIPOS>SET

