#    Name: 1kgj_FL8_1_INTS_M
#    Modification time : Tue Mar 25 09:59:34 2014

@<TRIPOS>MOLECULE
1kgj_FL8_1_INTS_M
   66     0     6     0     0
SMALL
NO_CHARGES


@<TRIPOS>ATOM
      1 CA         43.6815   86.0775   43.6885 C.3       2 GLC5        0.0000 
      2 CA         42.0240   86.3210   42.2340 C.3       6 GLL5        0.0000 
      3 CA         45.3390   85.8340   45.1430 C.3       4 GLP5        0.0000 
      4 CA         41.0865   84.4405   42.4545 C.3       2 GLC5        0.0000 
      5 CA         40.1490   82.5600   42.6750 C.3       4 GLP5        0.0000 
      6 CA         43.2920   84.6690   41.9150 C.3       2 GLC5        0.0000 
      7 CA         44.5600   83.0170   41.5960 C.3       4 GLP5        0.0000 
      8 CA         42.9815   86.3235   40.3765 C.3       2 GLC5        0.0000 
      9 CA         43.9390   86.3260   38.5190 C.3       4 GLP5        0.0000 
     10 CA         40.6840   86.0975   40.5100 C.3       2 GLC5        0.0000 
     11 CA         39.3440   85.8740   38.7860 C.3       4 GLP5        0.0000 
     12 CA         36.5380   90.6215   40.9000 C.3       2 GLC5        0.0000 
     13 CA         37.3810   89.3440   42.2800 C.3       6 GLL5        0.0000 
     14 CA         35.6950   91.8990   39.5200 C.3       4 GLP5        0.0000 
     15 CA         36.1260   87.7260   41.7435 C.3       2 GLC5        0.0000 
     16 CA         34.8710   86.1080   41.2070 C.3       4 GLP5        0.0000 
     17 CA         35.3820   89.7035   42.6515 C.3       2 GLC5        0.0000 
     18 CA         33.3830   90.0630   43.0230 C.3       4 GLP5        0.0000 
     19 CA         43.9745   90.3565   42.0330 C.3       2 GLC5        0.0000 
     20 CA         42.2670   91.7310   42.3840 C.3       6 GLL5        0.0000 
     21 CA         45.6820   88.9820   41.6820 C.3       4 GLP5        0.0000 
     22 CA         44.1235   96.2535   40.7825 C.3       2 GLC5        0.0000 
     23 CA         45.2000   94.7480   41.7920 C.3       6 GLL5        0.0000 
     24 CA         43.0470   97.7590   39.7730 C.3       4 GLP5        0.0000 
     25 CA         45.4800   93.2860   42.9240 C.3       2 GLC5        0.0000 
     26 CA         44.2290   92.5890   41.2730 C.3       6 GLL5        0.0000 
     27 CA         46.7310   93.9830   44.5750 C.3       4 GLP5        0.0000 
     28 CA         41.5090   90.8395   44.4535 C.3       2 GLC5        0.0000 
     29 CA         41.4020   90.4550   42.3380 C.3       6 GLL5        0.0000 
     30 CA         41.6160   91.2240   46.5690 C.3       4 GLP5        0.0000 
     31 CA         43.8480   89.0845   41.9960 C.3       2 GLC5        0.0000 
     32 CA         42.0140   89.1870   42.3100 C.3       6 GLL5        0.0000 
     33 CA         39.0710   87.1180   44.0920 C.3       2 GLC5        0.0000 
     34 CA         39.8480   88.0490   42.2510 C.3       6 GLL5        0.0000 
     35 CA         38.2940   86.1870   45.9330 C.3       4 GLP5        0.0000 
     36 CA         39.5960   86.9615   40.5185 C.3       2 GLC5        0.0000 
     37 CA         38.8185   90.8220   43.9515 C.3       2 GLC5        0.0000 
     38 CA         40.0020   90.5020   42.3260 C.3       6 GLL5        0.0000 
     39 CA         37.6350   91.1420   45.5770 C.3       4 GLP5        0.0000 
     40 O          39.5105   85.3430   42.7605 O.2       1 ALC1        0.0000 
     41 O          39.1060   86.8880   42.2080 O.2       5 ALL1        0.0000 
     42 O          39.9150   83.7980   43.3130 O.2       3 ALP1        0.0000 
     43 CA         39.3675   92.1265   44.8555 C.3       2 GLC5        0.0000 
     44 CA         41.1000   93.1110   44.1340 C.3       6 GLL5        0.0000 
     45 CA         41.1985   86.6222   44.1797 C.3       2 GLC5        0.0000 
     46 CA         41.2320   88.0300   42.2670 C.3       6 GLL5        0.0000 
     47 CA         40.7690   86.0690   46.1090 C.3       4 GLP5        0.0000 
     48 CA         38.2565   91.3727   42.5730 C.3       2 GLC5        0.0000 
     49 CA         39.2650   89.3110   42.2840 C.3       6 GLL5        0.0000 
     50 CA         38.1900   93.4180   42.8640 C.3       4 GLP5        0.0000 
     51 CA         38.1580   88.6248   40.3665 C.3       2 GLC5        0.0000 
     52 CA         37.9930   87.9220   38.4510 C.3       4 GLP5        0.0000 
     53 CA         37.9790   90.2347   43.9295 C.3       2 GLC5        0.0000 
     54 CA         42.0212   91.1900   40.2795 C.3       2 GLC5        0.0000 
     55 CA         42.2080   91.2870   38.1980 C.3       4 GLP5        0.0000 
     56 CA         46.0899   94.1864   42.9704 C.3       2 GLC5        0.0000 
     57 CA         44.2090   93.7670   42.0150 C.3       6 GLL5        0.0000 
     58 CA         47.5707   92.1800   39.9210 C.3       2 GLC5        0.0000 
     59 CA         46.1820   93.3280   40.1010 C.3       6 GLL5        0.0000 
     60 CA         49.4480   91.5150   39.6320 C.3       4 GLP5        0.0000 
     61 CA         45.1995   90.7287   41.2390 C.3       2 GLC5        0.0000 
     62 CA         45.2050   92.3620   40.3190 C.3       6 GLL5        0.0000 
     63 CA         43.4625   91.8812   39.4970 C.3       2 GLC5        0.0000 
     64 CA         39.4460   91.9483   42.5980 C.3       2 GLC5        0.0000 
     65 CA         41.6386   91.9634   45.0083 C.3       2 GLC5        0.0000 
     66 CA         39.9256   93.0604   43.1557 C.3       2 GLC5        0.0000 
@<TRIPOS>BOND
@<TRIPOS>SUBSTRUCTURE
     1 ALC1       40 GROUP        1 X    ALC  0     ROOT ALC X 1
     2 GLC5        1 GROUP        1 X    GLC  0     **** GLC X 6
     3 ALP1       42 GROUP        1 Y    ALP  0     ROOT ALP Y 8
     4 GLP5        3 GROUP        1 Y    GLP  0     **** GLP Y 13
     5 ALL1       41 GROUP        1 Z    ALL  0     ROOT ALL Z 15
     6 GLL5        2 GROUP        1 Z    GLL  0     **** GLL Z 20
@<TRIPOS>SET

