#    Name: 1kgj_FL8_1_ligand
#    Modification time : Tue Mar 25 09:59:34 2014

@<TRIPOS>MOLECULE
1kgj_FL8_1_ligand
   32    34     1     0     0
SMALL
NO_CHARGES


@<TRIPOS>ATOM
      1 BR3        42.0240   86.3210   42.2340 Br        1 FL8328      0.0000 
      2 BR5        37.3810   89.3440   42.2800 Br        1 FL8328      0.0000 
      3 O1         43.2830   91.5840   41.4450 O.3       1 FL8328      0.0000 
      4 C2         42.2670   91.7310   42.3840 C.2       1 FL8328      0.0000 
      5 C3         42.1780   92.8580   43.1380 C.2       1 FL8328      0.0000 
      6 C4         43.1460   93.9500   43.0120 C.2       1 FL8328      0.0000 
      7 C4A        44.2090   93.7670   42.0150 C.ar      1 FL8328      0.0000 
      8 C5         45.2000   94.7480   41.7920 C.ar      1 FL8328      0.0000 
      9 C6         46.1930   94.5220   40.8280 C.ar      1 FL8328      0.0000 
     10 C7         46.1820   93.3280   40.1010 C.ar      1 FL8328      0.0000 
     11 C8         45.2050   92.3620   40.3190 C.ar      1 FL8328      0.0000 
     12 C8A        44.2290   92.5890   41.2730 C.ar      1 FL8328      0.0000 
     13 C1'        41.4020   90.4550   42.3380 C.ar      1 FL8328      0.0000 
     14 C2'        42.0140   89.1870   42.3100 C.ar      1 FL8328      0.0000 
     15 C3'        41.2320   88.0300   42.2670 C.ar      1 FL8328      0.0000 
     16 C4'        39.8480   88.0490   42.2510 C.ar      1 FL8328      0.0000 
     17 C5'        39.2650   89.3110   42.2840 C.ar      1 FL8328      0.0000 
     18 C6'        40.0020   90.5020   42.3260 C.ar      1 FL8328      0.0000 
     19 O4'        39.1060   86.8880   42.2080 O.3       1 FL8328      0.0000 
     20 C3B        41.1000   93.1110   44.1340 C.3       1 FL8328      0.0000 
     21 O4         43.0970   94.9860   43.6940 O.2       1 FL8328      0.0000 
     22 O6         47.1690   95.4660   40.6000 O.3       1 FL8328      0.0000 
     23 H          45.1898   95.6137   42.3308 H         1 FL8328      0.0000 
     24 H          46.9147   93.1626   39.3889 H         1 FL8328      0.0000 
     25 H          45.2111   91.4926   39.7770 H         1 FL8328      0.0000 
     26 H          43.0373   89.1178   42.3214 H         1 FL8328      0.0000 
     27 H          39.5185   91.4039   42.3479 H         1 FL8328      0.0000 
     28 H          41.0865   92.4147   44.8517 H         1 FL8328      0.0000 
     29 H          41.2123   93.9958   44.5862 H         1 FL8328      0.0000 
     30 H          40.1947   93.1117   43.7093 H         1 FL8328      0.0000 
     31 H          39.6695   86.2036   42.6706 H         1 FL8328      0.0000 
     32 H          47.7464   96.0434   41.1774 H         1 FL8328      0.0000 
@<TRIPOS>BOND
     1   15    1 1    
     2   17    2 1    
     3    4    3 1    
     4   12    3 1    
     5    5    4 2    
     6   13    4 1    
     7    6    5 1    
     8   20    5 1    
     9    7    6 1    
    10   21    6 2    
    11    8    7 ar   
    12   12    7 ar   
    13    9    8 ar   
    14   23    8 1    
    15   10    9 ar   
    16   22    9 1    
    17   11   10 ar   
    18   24   10 1    
    19   12   11 ar   
    20   25   11 1    
    21   14   13 ar   
    22   18   13 ar   
    23   15   14 ar   
    24   26   14 1    
    25   16   15 ar   
    26   17   16 ar   
    27   19   16 1    
    28   18   17 ar   
    29   27   18 1    
    30   31   19 1    
    31   28   20 1    
    32   29   20 1    
    33   30   20 1    
    34   32   22 1    
@<TRIPOS>SUBSTRUCTURE
     1 FL8328      1 GROUP   
@<TRIPOS>SET

