#    Name: 3tr9_PT1_4_INTS_M
#    Modification time : Mon Mar 24 20:50:53 2014

@<TRIPOS>MOLECULE
3tr9_PT1_4_INTS_M
   63     0     9     0     0
SMALL
NO_CHARGES


@<TRIPOS>ATOM
      1 CA        -22.2105  -31.5020  -34.4225 C.3       3 GLC5        0.0000 
      2 CA        -20.5550  -30.5080  -34.9380 C.3       9 GLL5        0.0000 
      3 CA        -23.8660  -32.4960  -33.9070 C.3       6 GLP5        0.0000 
      4 N         -17.2045  -31.9430  -34.1045 N.am      2 SEC2        0.0000 
      5 N         -18.6700  -31.3310  -33.7800 N.am      8 SEL2        0.0000 
      6 N         -15.7390  -32.5550  -34.4290 N.am      5 SEP2        0.0000 
      7 CA        -20.9080  -32.5240  -36.7985 C.3       3 GLC5        0.0000 
      8 CA        -20.6540  -30.7220  -37.2570 C.3       9 GLL5        0.0000 
      9 CA        -21.1620  -34.3260  -36.3400 C.3       6 GLP5        0.0000 
     10 CA        -19.6020  -29.8790  -38.9790 C.3       3 GLC5        0.0000 
     11 CA        -18.5500  -29.0360  -40.7010 C.3       6 GLP5        0.0000 
     12 CA        -19.6190  -29.0905  -36.8095 C.3       3 GLC5        0.0000 
     13 CA        -18.5840  -27.4590  -36.3620 C.3       6 GLP5        0.0000 
     14 N         -22.0965  -29.1560  -36.4090 N.am      2 SEC2        0.0000 
     15 N         -21.1900  -30.3220  -36.1050 N.am      8 SEL2        0.0000 
     16 N         -23.0030  -27.9900  -36.7130 N.am      5 SEP2        0.0000 
     17 O         -22.6305  -29.9420  -38.3595 O.2       1 ALC1        0.0000 
     18 O         -21.3770  -30.4890  -38.4880 O.2       7 ALL1        0.0000 
     19 O         -23.8840  -29.3950  -38.2310 O.2       4 ALP1        0.0000 
     20 O         -20.3530  -31.2155  -39.1250 O.2       1 ALC1        0.0000 
     21 O         -19.3290  -31.9420  -39.7620 O.2       4 ALP1        0.0000 
     22 CA        -20.9545  -30.5020  -30.4705 C.3       3 GLC5        0.0000 
     23 CA        -20.4680  -30.3020  -32.6170 C.3       9 GLL5        0.0000 
     24 CA        -21.4410  -30.7020  -28.3240 C.3       6 GLP5        0.0000 
     25 CA        -22.1670  -31.3990  -33.2620 C.3       3 GLC5        0.0000 
     26 N         -13.7675  -37.5160  -30.4695 N.am      2 SEC2        0.0000 
     27 N         -13.3290  -36.3630  -29.6630 N.am      8 SEL2        0.0000 
     28 N         -14.2060  -38.6690  -31.2760 N.am      5 SEP2        0.0000 
     29 N         -12.1250  -36.8315  -29.3420 N.am      2 SEC2        0.0000 
     30 N         -10.9210  -37.3000  -29.0210 N.am      5 SEP2        0.0000 
     31 N         -16.9820  -32.6940  -37.3835 N.am      2 SEC2        0.0000 
     32 N         -17.5290  -32.1590  -36.2270 N.am      8 SEL2        0.0000 
     33 N         -16.4350  -33.2290  -38.5400 N.am      5 SEP2        0.0000 
     34 CA        -19.9720  -30.9315  -29.8395 C.3       3 GLC5        0.0000 
     35 CA        -18.5030  -31.1610  -31.3550 C.3       9 GLL5        0.0000 
     36 CA        -16.7000  -31.5880  -32.3435 C.3       3 GLC5        0.0000 
     37 CA        -14.8970  -32.0150  -33.3320 C.3       6 GLP5        0.0000 
     38 O         -19.4805  -33.2935  -31.9405 O.2       1 ALC1        0.0000 
     39 O         -18.5000  -32.5710  -30.9730 O.2       7 ALL1        0.0000 
     40 O         -20.4610  -34.0160  -32.9080 O.2       4 ALP1        0.0000 
     41 CA        -17.1495  -35.7680  -29.1230 C.3       3 GLC5        0.0000 
     42 CA        -17.0420  -34.6660  -30.7750 C.3       9 GLL5        0.0000 
     43 CA        -17.2570  -36.8700  -27.4710 C.3       6 GLP5        0.0000 
     44 CA        -14.7275  -34.0480  -31.8035 C.3       3 GLC5        0.0000 
     45 CA        -15.8660  -35.3050  -30.3930 C.3       9 GLL5        0.0000 
     46 CA        -13.5890  -32.7910  -33.2140 C.3       6 GLP5        0.0000 
     47 N         -11.4345  -34.5105  -29.1615 N.am      2 SEC2        0.0000 
     48 N         -12.7200  -34.5170  -28.7120 N.am      8 SEL2        0.0000 
     49 N         -10.1490  -34.5040  -29.6110 N.am      5 SEP2        0.0000 
     50 N         -11.8205  -35.9085  -28.8665 N.am      2 SEC2        0.0000 
     51 CA        -20.4815  -32.6232  -35.7935 C.3       3 GLC5        0.0000 
     52 CA        -19.3130  -31.1320  -34.9430 C.3       9 GLL5        0.0000 
     53 CA        -19.1925  -29.1898  -35.8045 C.3       3 GLC5        0.0000 
     54 CA        -18.7810  -31.5340  -36.1690 C.3       9 GLL5        0.0000 
     55 CA        -15.8811  -32.9079  -31.9210 C.3       3 GLC5        0.0000 
     56 CA        -13.8133  -33.0170  -30.9237 C.3       3 GLC5        0.0000 
     57 CA        -14.8650  -34.5690  -29.7850 C.3       9 GLL5        0.0000 
     58 CA        -12.6820  -32.1470  -32.1750 C.3       6 GLP5        0.0000 
     59 CA        -15.7726  -35.3190  -28.4939 C.3       3 GLC5        0.0000 
     60 CA        -15.0240  -33.2050  -29.5600 C.3       9 GLL5        0.0000 
     61 CA        -16.1400  -36.0420  -26.9550 C.3       6 GLP5        0.0000 
     62 CA        -15.0763  -35.9851  -31.6777 C.3       3 GLC5        0.0000 
     63 CA        -14.4930  -37.1930  -33.1710 C.3       6 GLP5        0.0000 
@<TRIPOS>BOND
@<TRIPOS>SUBSTRUCTURE
     1 ALC1       17 GROUP        1 X    ALC  0     ROOT ALC X 1
     2 SEC2        4 GROUP        1 X    SEC  0     **** SEC X 2
     3 GLC5        1 GROUP        1 X    GLC  0     **** GLC X 6
     4 ALP1       19 GROUP        1 Y    ALP  0     ROOT ALP Y 8
     5 SEP2        6 GROUP        1 Y    SEP  0     **** SEP Y 9
     6 GLP5        3 GROUP        1 Y    GLP  0     **** GLP Y 13
     7 ALL1       18 GROUP        1 Z    ALL  0     ROOT ALL Z 15
     8 SEL2        5 GROUP        1 Z    SEL  0     **** SEL Z 16
     9 GLL5        2 GROUP        1 Z    GLL  0     **** GLL Z 20
@<TRIPOS>SET

