#    Name: 3tr9_PT1_4_ligand
#    Modification time : Mon Mar 24 20:50:53 2014

@<TRIPOS>MOLECULE
3tr9_PT1_4_ligand
   34    36     1     0     0
SMALL
NO_CHARGES


@<TRIPOS>ATOM
      1 C2        -18.7810  -31.5340  -36.1690 C.ar      1 PT11001     0.0000 
      2 C3        -19.3130  -31.1320  -34.9430 C.ar      1 PT11001     0.0000 
      3 C5        -20.5550  -30.5080  -34.9380 C.ar      1 PT11001     0.0000 
      4 N6        -18.6700  -31.3310  -33.7800 N.ar      1 PT11001     0.0000 
      5 C7        -20.6540  -30.7220  -37.2570 C.ar      1 PT11001     0.0000 
      6 N9        -21.1900  -30.3220  -36.1050 N.ar      1 PT11001     0.0000 
      7 C10       -19.2190  -30.9150  -32.6190 C.ar      1 PT11001     0.0000 
      8 N11       -21.3770  -30.4890  -38.4880 N.pl3     1 PT11001     0.0000 
      9 C12       -20.4680  -30.3020  -32.6170 C.ar      1 PT11001     0.0000 
     10 C21       -13.5810  -35.2200  -29.3720 C.2       1 PT11001     0.0000 
     11 O22       -13.3290  -36.3630  -29.6630 O.co2     1 PT11001     0.0000 
     12 O1        -17.5290  -32.1590  -36.2270 O.3       1 PT11001     0.0000 
     13 N4        -19.4580  -31.3230  -37.3090 N.ar      1 PT11001     0.0000 
     14 N8        -21.1090  -30.1090  -33.7730 N.ar      1 PT11001     0.0000 
     15 C13       -18.5030  -31.1610  -31.3550 C.3       1 PT11001     0.0000 
     16 N14       -18.5000  -32.5710  -30.9730 N.pl3     1 PT11001     0.0000 
     17 C15       -17.1920  -33.3040  -30.5480 C.ar      1 PT11001     0.0000 
     18 C16       -16.1850  -32.5670  -29.9420 C.ar      1 PT11001     0.0000 
     19 C17       -17.0420  -34.6660  -30.7750 C.ar      1 PT11001     0.0000 
     20 C18       -15.0240  -33.2050  -29.5600 C.ar      1 PT11001     0.0000 
     21 C19       -15.8660  -35.3050  -30.3930 C.ar      1 PT11001     0.0000 
     22 C20       -14.8650  -34.5690  -29.7850 C.ar      1 PT11001     0.0000 
     23 O23       -12.7200  -34.5170  -28.7120 O.co2     1 PT11001     0.0000 
     24 H         -22.2650  -30.0380  -38.3981 H         1 PT11001     0.0000 
     25 H         -20.9289  -30.7983  -39.3268 H         1 PT11001     0.0000 
     26 H         -20.8760  -30.0069  -31.7133 H         1 PT11001     0.0000 
     27 H         -18.9658  -30.5547  -30.5481 H         1 PT11001     0.0000 
     28 H         -17.4588  -30.7954  -31.4486 H         1 PT11001     0.0000 
     29 H         -19.3414  -33.1174  -30.9710 H         1 PT11001     0.0000 
     30 H         -16.3062  -31.5622  -29.7822 H         1 PT11001     0.0000 
     31 H         -17.7953  -35.2008  -31.2230 H         1 PT11001     0.0000 
     32 H         -14.2654  -32.6732  -29.1043 H         1 PT11001     0.0000 
     33 H         -15.7471  -36.3077  -30.5617 H         1 PT11001     0.0000 
     34 H         -16.8773  -31.4606  -35.9312 H         1 PT11001     0.0000 
@<TRIPOS>BOND
     1    2    1 ar   
     2   12    1 1    
     3   13    1 ar   
     4    3    2 ar   
     5    4    2 ar   
     6    6    3 ar   
     7   14    3 ar   
     8    7    4 ar   
     9    6    5 ar   
    10    8    5 1    
    11   13    5 ar   
    12    9    7 ar   
    13   15    7 1    
    14   24    8 1    
    15   25    8 1    
    16   14    9 ar   
    17   26    9 1    
    18   11   10 ar   
    19   22   10 1    
    20   23   10 ar   
    21   34   12 1    
    22   16   15 1    
    23   27   15 1    
    24   28   15 1    
    25   17   16 1    
    26   29   16 1    
    27   18   17 ar   
    28   19   17 ar   
    29   20   18 ar   
    30   30   18 1    
    31   21   19 ar   
    32   31   19 1    
    33   22   20 ar   
    34   32   20 1    
    35   22   21 ar   
    36   33   21 1    
@<TRIPOS>SUBSTRUCTURE
     1 PT11001     1 GROUP   
@<TRIPOS>SET

