#    Name: 4dcm_SAM_1_INTS_M
#    Modification time : Tue Mar 25 09:36:11 2014

@<TRIPOS>MOLECULE
4dcm_SAM_1_INTS_M
   66     0    12     0     0
SMALL
NO_CHARGES


@<TRIPOS>ATOM
      1 OD1        44.6475   -4.1485   45.0355 O.co2     3 ASC3        0.0000 
      2 OD1        43.4610   -5.3960   45.9200 O.co2    11 ASL3        0.0000 
      3 OD1        45.8340   -2.9010   44.1510 O.co2     7 ASP3        0.0000 
      4 O          42.8585   -4.1565   46.0785 O.2       1 ALC1        0.0000 
      5 O          43.4610   -5.3960   45.9200 O.2       9 ALL1        0.0000 
      6 O          42.2560   -2.9170   46.2370 O.2       5 ALP1        0.0000 
      7 O          44.9260   -5.4805   46.2465 O.2       1 ALC1        0.0000 
      8 O          46.3910   -5.5650   46.5730 O.2       5 ALP1        0.0000 
      9 N          41.7250   -8.4720   44.6150 N.am      2 SEC2        0.0000 
     10 N          43.0670   -7.8720   44.9400 N.am     10 SEL2        0.0000 
     11 N          40.3830   -9.0720   44.2900 N.am      6 SEP2        0.0000 
     12 CA         42.6595   -4.8715   49.0735 C.3       4 GLC5        0.0000 
     13 CA         41.7740   -6.1160   47.5790 C.3      12 GLL5        0.0000 
     14 CA         43.5450   -3.6270   50.5680 C.3       8 GLP5        0.0000 
     15 CA         40.5580   -6.4840   44.8650 C.3       4 GLC5        0.0000 
     16 CA         40.5380   -5.9690   46.6930 C.3      12 GLL5        0.0000 
     17 CA         40.5780   -6.9990   43.0370 C.3       8 GLP5        0.0000 
     18 CA         39.4980   -7.0855   48.6720 C.3       4 GLC5        0.0000 
     19 CA         39.0060   -5.7540   47.6570 C.3      12 GLL5        0.0000 
     20 CA         39.9900   -8.4170   49.6870 C.3       8 GLP5        0.0000 
     21 CA         38.1110   -8.3670   47.7300 C.3       4 GLC5        0.0000 
     22 CA         37.8660   -6.8390   46.7610 C.3      12 GLL5        0.0000 
     23 CA         38.3560   -9.8950   48.6990 C.3       8 GLP5        0.0000 
     24 CA         36.0460   -5.8430   46.2295 C.3       4 GLC5        0.0000 
     25 CA         34.2260   -4.8470   45.6980 C.3       8 GLP5        0.0000 
     26 CA         36.4465   -3.3335   46.6625 C.3       4 GLC5        0.0000 
     27 CA         38.3570   -4.1470   47.1120 C.3      12 GLL5        0.0000 
     28 CA         34.5360   -2.5200   46.2130 C.3       8 GLP5        0.0000 
     29 CA         40.2480   -1.8095   46.8805 C.3       4 GLC5        0.0000 
     30 CA         38.9650   -2.9600   47.8540 C.3      12 GLL5        0.0000 
     31 CA         41.5310   -0.6590   45.9070 C.3       8 GLP5        0.0000 
     32 CA         39.0130   -4.8650   50.4160 C.3       4 GLC5        0.0000 
     33 CA         38.6480   -2.9610   49.3410 C.3      12 GLL5        0.0000 
     34 CA         39.3780   -6.7690   51.4910 C.3       8 GLP5        0.0000 
     35 O          40.7025   -1.8500   49.7925 O.2       1 ALC1        0.0000 
     36 O          39.8860   -2.9790   50.0190 O.2       9 ALL1        0.0000 
     37 O          41.5190   -0.7210   49.5660 O.2       5 ALP1        0.0000 
     38 O          39.9035   -0.8775   50.1870 O.2       1 ALC1        0.0000 
     39 O          38.2880   -1.0340   50.8080 O.2       9 ALL1        0.0000 
     40 O          39.3265   -0.0910   50.7050 O.2       1 ALC1        0.0000 
     41 O          40.3650    0.8520   50.6020 O.2       5 ALP1        0.0000 
     42 CA         39.9455   -0.7335   47.1525 C.3       4 GLC5        0.0000 
     43 CA         38.3600   -0.8080   48.3980 C.3      12 GLL5        0.0000 
     44 CA         38.1465   -0.0280   46.3390 C.3       4 GLC5        0.0000 
     45 CA         37.9330    0.7520   44.2800 C.3       8 GLP5        0.0000 
     46 O          35.3070    5.5875   46.0920 O.2       1 ALC1        0.0000 
     47 O          35.3530    4.0170   46.4630 O.2       9 ALL1        0.0000 
     48 O          35.2610    7.1580   45.7210 O.2       5 ALP1        0.0000 
     49 N          38.0830    5.1240   45.7735 N.am      2 SEC2        0.0000 
     50 N          37.7020    3.9950   46.4700 N.am     10 SEL2        0.0000 
     51 N          38.4640    6.2530   45.0770 N.am      6 SEP2        0.0000 
     52 CA         40.5545    2.9870   47.8760 C.3       4 GLC5        0.0000 
     53 CA         38.8850    3.3360   46.7360 C.3      12 GLL5        0.0000 
     54 CA         42.2240    2.6380   49.0160 C.3       8 GLP5        0.0000 
     55 CA         38.3270    3.5980   48.4815 C.3       4 GLC5        0.0000 
     56 CA         37.7690    3.8600   50.2270 C.3       8 GLP5        0.0000 
     57 CA         38.9425    4.6210   45.2540 C.3       4 GLC5        0.0000 
     58 CA         39.0000    5.9060   43.7720 C.3       8 GLP5        0.0000 
     59 CA         38.4090    2.0440   45.5080 C.3       4 GLC5        0.0000 
     60 N          39.4980    2.7280   48.5885 N.am      2 SEC2        0.0000 
     61 N          38.8680    2.0510   47.2550 N.am     10 SEL2        0.0000 
     62 N          40.1280    3.4050   49.9220 N.am      6 SEP2        0.0000 
     63 CA         40.5730   -7.2297   48.4115 C.3       4 GLC5        0.0000 
     64 CA         37.4286    2.9721   48.7351 C.3       4 GLC5        0.0000 
     65 CA         36.4850    2.0840   47.2420 C.3      12 GLL5        0.0000 
     66 CA         37.5106    1.4181   45.7616 C.3       4 GLC5        0.0000 
@<TRIPOS>BOND
@<TRIPOS>SUBSTRUCTURE
     1 ALC1        4 GROUP        1 X    ALC  0     ROOT ALC X 1
     2 SEC2        9 GROUP        1 X    SEC  0     **** SEC X 2
     3 ASC3        1 GROUP        1 X    ASC  0     **** ASC X 3
     4 GLC5       12 GROUP        1 X    GLC  0     **** GLC X 6
     5 ALP1        6 GROUP        1 Y    ALP  0     ROOT ALP Y 8
     6 SEP2       11 GROUP        1 Y    SEP  0     **** SEP Y 9
     7 ASP3        3 GROUP        1 Y    ASP  0     **** ASP Y 10
     8 GLP5       14 GROUP        1 Y    GLP  0     **** GLP Y 13
     9 ALL1        5 GROUP        1 Z    ALL  0     ROOT ALL Z 15
    10 SEL2       10 GROUP        1 Z    SEL  0     **** SEL Z 16
    11 ASL3        2 GROUP        1 Z    ASL  0     **** ASL Z 17
    12 GLL5       13 GROUP        1 Z    GLL  0     **** GLL Z 20
@<TRIPOS>SET

