#    Name: 4dcm_SAM_1_ligand
#    Modification time : Tue Mar 25 09:36:11 2014

@<TRIPOS>MOLECULE
4dcm_SAM_1_ligand
   50    52     1     0     0
SMALL
NO_CHARGES


@<TRIPOS>ATOM
      1 N          43.4610   -5.3960   45.9200 N.4       1 SAM401      0.0000 
      2 CA         43.0830   -6.4420   46.8680 C.3       1 SAM401      0.0000 
      3 C          42.9830   -7.7920   46.1690 C.2       1 SAM401      0.0000 
      4 O          42.8260   -8.8280   46.8180 O.co2     1 SAM401      0.0000 
      5 OXT        43.0670   -7.8720   44.9400 O.co2     1 SAM401      0.0000 
      6 CB         41.7740   -6.1160   47.5790 C.3       1 SAM401      0.0000 
      7 CG         40.5380   -5.9690   46.6930 C.3       1 SAM401      0.0000 
      8 SD         39.0060   -5.7540   47.6570 S.3       1 SAM401      0.0000 
      9 CE         37.8660   -6.8390   46.7610 C.3       1 SAM401      0.0000 
     10 C5'        38.3570   -4.1470   47.1120 C.3       1 SAM401      0.0000 
     11 C4'        38.9650   -2.9600   47.8540 C.3       1 SAM401      0.0000 
     12 O4'        38.4810   -1.7330   47.3400 O.3       1 SAM401      0.0000 
     13 C3'        38.6480   -2.9610   49.3410 C.3       1 SAM401      0.0000 
     14 O3'        39.8860   -2.9790   50.0190 O.3       1 SAM401      0.0000 
     15 C2'        37.9250   -1.6470   49.5880 C.3       1 SAM401      0.0000 
     16 O2'        38.2880   -1.0340   50.8080 O.3       1 SAM401      0.0000 
     17 C1'        38.3600   -0.8080   48.3980 C.3       1 SAM401      0.0000 
     18 N9         37.3780    0.2030   48.0060 N.pl3     1 SAM401      0.0000 
     19 C8         36.0120    0.0870   48.0530 C.2       1 SAM401      0.0000 
     20 N7         35.4810    1.2410   47.5820 N.2       1 SAM401      0.0000 
     21 C5         36.4850    2.0840   47.2420 C.ar      1 SAM401      0.0000 
     22 C6         36.4940    3.3770   46.7210 C.ar      1 SAM401      0.0000 
     23 N6         35.3530    4.0170   46.4630 N.pl3     1 SAM401      0.0000 
     24 N1         37.7020    3.9950   46.4700 N.ar      1 SAM401      0.0000 
     25 C2         38.8850    3.3360   46.7360 C.ar      1 SAM401      0.0000 
     26 N3         38.8680    2.0510   47.2550 N.ar      1 SAM401      0.0000 
     27 C4         37.6870    1.4380   47.5050 C.ar      1 SAM401      0.0000 
     28 H          43.8607   -6.5342   47.6392 H         1 SAM401      0.0000 
     29 H          41.9081   -5.1750   48.1593 H         1 SAM401      0.0000 
     30 H          41.5741   -6.9060   48.3380 H         1 SAM401      0.0000 
     31 H          40.3182   -6.8432   46.1129 H         1 SAM401      0.0000 
     32 H          40.5471   -5.0863   46.0849 H         1 SAM401      0.0000 
     33 H          37.2991   -4.2610   47.2773 H         1 SAM401      0.0000 
     34 H          38.5816   -4.1563   46.0590 H         1 SAM401      0.0000 
     35 H          40.0491   -3.0082   47.7516 H         1 SAM401      0.0000 
     36 H          38.0216   -3.7631   49.5572 H         1 SAM401      0.0000 
     37 H          36.8756   -1.8267   49.4850 H         1 SAM401      0.0000 
     38 H          39.3058   -0.3667   48.6215 H         1 SAM401      0.0000 
     39 H          35.5292   -0.6777   48.3649 H         1 SAM401      0.0000 
     40 H          35.4408    4.9277   46.0594 H         1 SAM401      0.0000 
     41 H          34.5122    3.5286   46.6962 H         1 SAM401      0.0000 
     42 H          39.7884    3.8002   46.5484 H         1 SAM401      0.0000 
     43 H          43.1277   -5.5924   44.9978 H         1 SAM401      0.0000 
     44 H          43.0898   -4.5052   46.1823 H         1 SAM401      0.0000 
     45 H          44.4537   -5.2929   45.8571 H         1 SAM401      0.0000 
     46 H          37.8931   -6.6733   45.7752 H         1 SAM401      0.0000 
     47 H          38.0843   -7.8047   46.9020 H         1 SAM401      0.0000 
     48 H          36.9193   -6.7066   47.0546 H         1 SAM401      0.0000 
     49 H          40.4645   -2.3349   49.5184 H         1 SAM401      0.0000 
     50 H          39.0506   -0.4298   50.5771 H         1 SAM401      0.0000 
@<TRIPOS>BOND
     1    2    1 1    
     2   43    1 1    
     3   44    1 1    
     4   45    1 1    
     5    3    2 1    
     6    6    2 1    
     7   28    2 1    
     8    4    3 ar   
     9    5    3 ar   
    10    7    6 1    
    11   29    6 1    
    12   30    6 1    
    13    8    7 1    
    14   31    7 1    
    15   32    7 1    
    16    9    8 1    
    17   10    8 1    
    18   46    9 1    
    19   47    9 1    
    20   48    9 1    
    21   11   10 1    
    22   33   10 1    
    23   34   10 1    
    24   12   11 1    
    25   13   11 1    
    26   35   11 1    
    27   17   12 1    
    28   14   13 1    
    29   15   13 1    
    30   36   13 1    
    31   49   14 1    
    32   16   15 1    
    33   17   15 1    
    34   37   15 1    
    35   50   16 1    
    36   18   17 1    
    37   38   17 1    
    38   19   18 1    
    39   27   18 1    
    40   20   19 2    
    41   39   19 1    
    42   21   20 1    
    43   22   21 ar   
    44   27   21 ar   
    45   23   22 1    
    46   24   22 ar   
    47   40   23 1    
    48   41   23 1    
    49   25   24 ar   
    50   26   25 ar   
    51   42   25 1    
    52   27   26 ar   
@<TRIPOS>SUBSTRUCTURE
     1 SAM401      1 GROUP   
@<TRIPOS>SET

