#    Name: 3M5A_1_CAVITY_N1_6.mol2
#    Modification time : Tue Mar 11 12:58:24 2014

@<TRIPOS>MOLECULE
3M5A_1_CAVITY_N1_6.mol2
   93     0     6     0     0
SMALL
NO_CHARGES


@<TRIPOS>ATOM
      1 CA        -38.9219   44.6964    9.7891 C.3       5 GLY6        0.0000 
      2 CA        -40.9108   43.9658    9.6874 C.3       5 GLY6        0.0000 
      3 N         -36.4150   44.0195    9.8739 N.2       2 ALA2        0.0000 
      4 N         -37.3658   43.6830    8.7637 N.2       2 ALA2        0.0000 
      5 O         -38.4039   43.2888    9.7721 O.2       2 ALA2        0.0000 
      6 O         -39.3547   42.9523    8.6619 O.2       2 ALA2        0.0000 
      7 O         -40.3928   42.5581    9.6703 O.2       2 ALA2        0.0000 
      8 CA        -36.9351   42.2177   10.8654 C.3       5 GLY6        0.0000 
      9 CA        -36.8478   42.2754    8.7467 C.3       5 GLY6        0.0000 
     10 CA        -37.8859   41.8812    9.7551 C.3       5 GLY6        0.0000 
     11 O         -38.9240   41.4870   10.7636 O.2       2 ALA2        0.0000 
     12 CA        -37.7987   41.9389    7.6364 C.3       5 GLY6        0.0000 
     13 CA        -38.8367   41.5447    8.6449 C.3       5 GLY6        0.0000 
     14 O         -39.8748   41.1505    9.6533 O.2       2 ALA2        0.0000 
     15 DU        -39.7876   41.2082    7.5346 H         6 CUB7        0.0000 
     16 DU        -40.8256   40.8140    8.5431 H         6 CUB7        0.0000 
     17 O         -41.8637   40.4198    9.5516 O.2       2 ALA2        0.0000 
     18 DU        -42.8145   40.0833    8.4413 H         6 CUB7        0.0000 
     19 DU        -42.7273   40.1410    6.3226 H         6 CUB7        0.0000 
     20 N         -43.7654   39.7468    7.3310 N.2       2 ALA2        0.0000 
     21 DU        -42.6401   40.1987    4.2038 H         6 CUB7        0.0000 
     22 N         -43.6781   39.8045    5.2123 N.2       2 ALA2        0.0000 
     23 CA        -44.6290   39.4680    4.1020 C.3       5 GLY6        0.0000 
     24 CA        -38.4060   40.0794   10.7466 C.3       5 GLY6        0.0000 
     25 CA        -38.3187   40.1371    8.6279 C.3       5 GLY6        0.0000 
     26 N         -39.3568   39.7429    9.6363 N.2       2 ALA2        0.0000 
     27 CZ        -40.3949   39.3487   10.6448 C.ar      4 PHE5        0.0000 
     28 CA        -39.2696   39.8006    7.5176 C.3       5 GLY6        0.0000 
     29 DU        -40.3076   39.4064    8.5261 H         6 CUB7        0.0000 
     30 DU        -41.3457   39.0122    9.5346 H         6 CUB7        0.0000 
     31 CZ        -42.3838   38.6180   10.5430 C.ar      4 PHE5        0.0000 
     32 N         -39.1823   39.8583    5.3989 N.2       2 ALA2        0.0000 
     33 DU        -40.2204   39.4641    6.4073 H         6 CUB7        0.0000 
     34 DU        -41.2585   39.0699    7.4158 H         6 CUB7        0.0000 
     35 DU        -42.2965   38.6757    8.4243 H         6 CUB7        0.0000 
     36 N         -43.3346   38.2815    9.4328 N.2       2 ALA2        0.0000 
     37 DU        -40.1332   39.5218    4.2886 H         6 CUB7        0.0000 
     38 DU        -41.1712   39.1276    5.2971 H         6 CUB7        0.0000 
     39 DU        -42.2093   38.7334    6.3056 H         6 CUB7        0.0000 
     40 N         -43.2474   38.3392    7.3140 N.2       2 ALA2        0.0000 
     41 O         -41.0840   39.1853    3.1783 O.2       2 ALA2        0.0000 
     42 N         -43.1601   38.3969    5.1953 N.2       2 ALA2        0.0000 
     43 N         -44.1982   38.0027    6.2038 N.2       2 ALA2        0.0000 
     44 DU        -43.0729   38.4546    3.0765 H         6 CUB7        0.0000 
     45 O         -44.1110   38.0604    4.0850 O.2       2 ALA2        0.0000 
     46 DU        -44.0237   38.1181    1.9663 H         6 CUB7        0.0000 
     47 O         -45.0618   37.7239    2.9748 O.2       2 ALA2        0.0000 
     48 CZ        -39.8769   37.9411   10.6278 C.ar      4 PHE5        0.0000 
     49 N         -38.7516   38.3930    7.5006 N.2       2 ALA2        0.0000 
     50 N         -39.7896   37.9988    8.5091 N.2       2 ALA2        0.0000 
     51 OG        -40.8277   37.6046    9.5176 O.2       1 SER1        0.0000 
     52 O         -37.6263   38.8449    4.3734 O.2       2 ALA2        0.0000 
     53 N         -38.6643   38.4507    5.3819 N.2       2 ALA2        0.0000 
     54 N         -39.7024   38.0565    6.3903 N.2       2 ALA2        0.0000 
     55 N         -40.7405   37.6623    7.3988 N.2       2 ALA2        0.0000 
     56 N         -41.7785   37.2681    8.4073 N.2       2 ALA2        0.0000 
     57 N         -42.8166   36.8739    9.4158 N.2       2 ALA2        0.0000 
     58 O         -38.5771   38.5084    3.2631 O.2       2 ALA2        0.0000 
     59 N         -39.6152   38.1142    4.2716 N.2       2 ALA2        0.0000 
     60 N         -40.6532   37.7200    5.2801 N.2       2 ALA2        0.0000 
     61 DU        -41.6913   37.3258    6.2886 H         6 CUB7        0.0000 
     62 N         -42.7294   36.9316    7.2970 N.2       2 ALA2        0.0000 
     63 O         -40.5660   37.7777    3.1613 O.2       2 ALA2        0.0000 
     64 DU        -41.6041   37.3835    4.1698 H         6 CUB7        0.0000 
     65 DU        -42.6421   36.9893    5.1783 H         6 CUB7        0.0000 
     66 N         -43.6802   36.5951    6.1868 N.2       2 ALA2        0.0000 
     67 O         -41.5168   37.4412    2.0511 O.2       2 ALA2        0.0000 
     68 OD1       -42.5549   37.0470    3.0595 O.3       3 ASP3        0.0000 
     69 O         -43.5930   36.6528    4.0680 O.2       2 ALA2        0.0000 
     70 N         -44.6310   36.2586    5.0765 N.2       2 ALA2        0.0000 
     71 OD1       -43.5057   36.7105    1.9493 O.3       3 ASP3        0.0000 
     72 CA        -44.5438   36.3163    2.9578 C.3       5 GLY6        0.0000 
     73 N         -39.2716   36.5912    8.4921 N.2       2 ALA2        0.0000 
     74 OG        -40.3097   36.1970    9.5006 O.2       1 SER1        0.0000 
     75 N         -40.2225   36.2547    7.3818 N.2       2 ALA2        0.0000 
     76 OG        -41.2605   35.8605    8.3903 O.2       1 SER1        0.0000 
     77 N         -39.0972   36.7066    4.2546 N.2       2 ALA2        0.0000 
     78 N         -40.1352   36.3124    5.2631 N.2       2 ALA2        0.0000 
     79 N         -41.1733   35.9182    6.2716 N.2       2 ALA2        0.0000 
     80 N         -42.2114   35.5240    7.2800 N.2       2 ALA2        0.0000 
     81 CA        -40.0480   36.3701    3.1443 C.3       5 GLY6        0.0000 
     82 OD1       -41.0861   35.9759    4.1528 O.3       3 ASP3        0.0000 
     83 CA        -42.1241   35.5817    5.1613 C.3       5 GLY6        0.0000 
     84 N         -43.1622   35.1875    6.1698 N.2       2 ALA2        0.0000 
     85 N         -40.9988   36.0336    2.0341 N.2       2 ALA2        0.0000 
     86 OD1       -43.0750   35.2452    4.0510 O.3       3 ASP3        0.0000 
     87 N         -44.1130   34.8510    5.0595 N.2       2 ALA2        0.0000 
     88 N         -39.7045   34.8471    7.3648 N.2       2 ALA2        0.0000 
     89 N         -39.6172   34.9048    5.2461 N.2       2 ALA2        0.0000 
     90 N         -40.6553   34.5106    6.2545 N.2       2 ALA2        0.0000 
     91 OD1       -40.5681   34.5683    4.1358 O.3       3 ASP3        0.0000 
     92 CA        -41.6061   34.1741    5.1443 C.3       5 GLY6        0.0000 
     93 CA        -42.6442   33.7799    6.1528 C.3       5 GLY6        0.0000 
@<TRIPOS>BOND
@<TRIPOS>SUBSTRUCTURE
     1 SER1       51 GROUP   
     2 ALA2        3 GROUP   
     3 ASP3       68 GROUP   
     4 PHE5       27 GROUP   
     5 GLY6        1 GROUP   
     6 CUB7       15 GROUP   
@<TRIPOS>SET

