#    Name: 3m5a_SAH_1_INTS_M
#    Modification time : Mon Mar 24 22:45:08 2014

@<TRIPOS>MOLECULE
3m5a_SAH_1_INTS_M
   58     0    12     0     0
SMALL
NO_CHARGES


@<TRIPOS>ATOM
      1 O         -45.4120   35.8730    6.5765 O.2       1 ALC1        0.0000 
      2 O         -44.4020   36.7590    6.8490 O.2       9 ALL1        0.0000 
      3 O         -46.4220   34.9870    6.3040 O.2       5 ALP1        0.0000 
      4 O         -44.7720   36.3120    8.1880 O.2       1 ALC1        0.0000 
      5 O         -45.1420   35.8650    9.5270 O.2       5 ALP1        0.0000 
      6 NZ        -42.4165   34.7940    2.9600 N.4       3 LYC4        0.0000 
      7 NZ        -42.2040   35.6890    4.1250 N.4      11 LYL4        0.0000 
      8 NZ        -42.6290   33.8990    1.7950 N.4       7 LYP4        0.0000 
      9 N         -42.4165   34.7940    2.9600 N.am      2 SEC2        0.0000 
     10 N         -42.2040   35.6890    4.1250 N.am     10 SEL2        0.0000 
     11 N         -42.6290   33.8990    1.7950 N.am      6 SEP2        0.0000 
     12 NZ        -43.3815   35.2435    2.9660 N.4       3 LYC4        0.0000 
     13 NZ        -44.1340   36.5880    4.1370 N.4      11 LYL4        0.0000 
     14 N         -45.6125   36.6440    4.2345 N.am      2 SEC2        0.0000 
     15 N         -44.1340   36.5880    4.1370 N.am     10 SEL2        0.0000 
     16 N         -47.0910   36.7000    4.3320 N.am      6 SEP2        0.0000 
     17 CA        -40.3980   36.7210   11.2550 C.3       4 GLC5        0.0000 
     18 CA        -40.3740   37.1210    9.2460 C.3      12 GLL5        0.0000 
     19 CA        -40.4220   36.3210   13.2640 C.3       8 GLP5        0.0000 
     20 CA        -41.0155   39.8825   11.5305 C.3       4 GLC5        0.0000 
     21 CA        -40.9010   39.5900    9.6360 C.3      12 GLL5        0.0000 
     22 CA        -41.1300   40.1750   13.4250 C.3       8 GLP5        0.0000 
     23 CA        -41.8145   40.9290   11.3345 C.3       4 GLC5        0.0000 
     24 CA        -42.1970   40.3540    9.5590 C.3      12 GLL5        0.0000 
     25 CA        -41.4320   41.5040   13.1100 C.3       8 GLP5        0.0000 
     26 CA        -45.3780   39.6875    8.9680 C.3       4 GLC5        0.0000 
     27 CA        -43.2330   39.2710    9.3940 C.3      12 GLL5        0.0000 
     28 CA        -47.5230   40.1040    8.5420 C.3       8 GLP5        0.0000 
     29 N         -44.4885   36.3960   13.1875 N.am      2 SEC2        0.0000 
     30 N         -44.4100   37.6680   12.4740 N.am     10 SEL2        0.0000 
     31 N         -44.5670   35.1240   13.9010 N.am      6 SEP2        0.0000 
     32 CA        -45.6450   36.8255   11.9680 C.3       4 GLC5        0.0000 
     33 CA        -45.0790   38.8350   12.5490 C.3      12 GLL5        0.0000 
     34 CA        -46.2110   34.8160   11.3870 C.3       8 GLP5        0.0000 
     35 CA        -44.2525   37.5885   14.1175 C.3       4 GLC5        0.0000 
     36 CA        -43.4260   36.3420   15.6860 C.3       8 GLP5        0.0000 
     37 CA        -48.0185   39.2675   13.1090 C.3       4 GLC5        0.0000 
     38 CA        -46.0300   39.4420   13.4980 C.3      12 GLL5        0.0000 
     39 CA        -50.0070   39.0930   12.7200 C.3       8 GLP5        0.0000 
     40 O         -46.4810   37.3675   15.1480 O.2       1 ALC1        0.0000 
     41 O         -46.4300   38.7710   14.6170 O.2       9 ALL1        0.0000 
     42 O         -46.5320   35.9640   15.6790 O.2       5 ALP1        0.0000 
     43 O         -46.2250   39.6630   15.7335 O.2       1 ALC1        0.0000 
     44 O         -46.0200   40.5550   16.8500 O.2       5 ALP1        0.0000 
     45 O         -47.2970   39.4120   15.7675 O.2       1 ALC1        0.0000 
     46 O         -48.1640   40.0530   16.9180 O.2       5 ALP1        0.0000 
     47 CA        -46.9670   40.2500   10.8995 C.3       4 GLC5        0.0000 
     48 CA        -46.0860   41.3510   12.0950 C.3      12 GLL5        0.0000 
     49 CA        -47.8480   39.1490    9.7040 C.3       8 GLP5        0.0000 
     50 CA        -44.7915   42.9915   12.7680 C.3       4 GLC5        0.0000 
     51 CA        -43.4970   44.6320   13.4410 C.3       8 GLP5        0.0000 
     52 CA        -42.5008   33.0902    7.0780 C.3       4 GLC5        0.0000 
     53 CA        -42.0480   35.0990    8.2580 C.3      12 GLL5        0.0000 
     54 CA        -42.5910   31.1820    6.5660 C.3       8 GLP5        0.0000 
     55 CA        -39.1720   35.5517    9.7775 C.3       4 GLC5        0.0000 
     56 CA        -40.4140   35.7940    8.0720 C.3      12 GLL5        0.0000 
     57 CA        -37.9500   34.6460   10.8960 C.3       8 GLP5        0.0000 
     58 CA        -46.4876   39.2659   10.9496 C.3       4 GLC5        0.0000 
@<TRIPOS>BOND
@<TRIPOS>SUBSTRUCTURE
     1 ALC1        1 GROUP        1 X    ALC  0     ROOT ALC X 1
     2 SEC2        9 GROUP        1 X    SEC  0     **** SEC X 2
     3 LYC4        6 GROUP        1 X    LYC  0     **** LYC X 4
     4 GLC5       17 GROUP        1 X    GLC  0     **** GLC X 6
     5 ALP1        3 GROUP        1 Y    ALP  0     ROOT ALP Y 8
     6 SEP2       11 GROUP        1 Y    SEP  0     **** SEP Y 9
     7 LYP4        8 GROUP        1 Y    LYP  0     **** LYP Y 11
     8 GLP5       19 GROUP        1 Y    GLP  0     **** GLP Y 13
     9 ALL1        2 GROUP        1 Z    ALL  0     ROOT ALL Z 15
    10 SEL2       10 GROUP        1 Z    SEL  0     **** SEL Z 16
    11 LYL4        7 GROUP        1 Z    LYL  0     **** LYL Z 18
    12 GLL5       18 GROUP        1 Z    GLL  0     **** GLL Z 20
@<TRIPOS>SET

