#    Name: 3m5a_SAH_1_ligand
#    Modification time : Mon Mar 24 22:45:08 2014

@<TRIPOS>MOLECULE
3m5a_SAH_1_ligand
   46    48     1     0     0
SMALL
NO_CHARGES


@<TRIPOS>ATOM
      1 N         -44.4020   36.7590    6.8490 N.4       1 SAH1        0.0000 
      2 CA        -43.1220   36.2440    6.2790 C.3       1 SAH1        0.0000 
      3 CB        -42.7730   34.8980    6.9220 C.3       1 SAH1        0.0000 
      4 CG        -42.0480   35.0990    8.2580 C.3       1 SAH1        0.0000 
      5 SD        -40.4140   35.7940    8.0720 S.3       1 SAH1        0.0000 
      6 C         -43.1600   36.1630    4.7740 C.2       1 SAH1        0.0000 
      7 O         -42.2040   35.6890    4.1250 O.co2     1 SAH1        0.0000 
      8 OXT       -44.1340   36.5880    4.1370 O.co2     1 SAH1        0.0000 
      9 C5'       -40.3740   37.1210    9.2460 C.3       1 SAH1        0.0000 
     10 C4'       -41.1510   38.3550    8.7760 C.3       1 SAH1        0.0000 
     11 O4'       -42.5590   38.1570    8.8240 O.3       1 SAH1        0.0000 
     12 C3'       -40.9010   39.5900    9.6360 C.3       1 SAH1        0.0000 
     13 O3'       -39.8090   40.3340    9.0840 O.3       1 SAH1        0.0000 
     14 C2'       -42.1970   40.3540    9.5590 C.3       1 SAH1        0.0000 
     15 O2'       -42.2700   41.0610    8.3160 O.3       1 SAH1        0.0000 
     16 C1'       -43.2330   39.2710    9.3940 C.3       1 SAH1        0.0000 
     17 N9        -43.8440   38.8810   10.6820 N.pl3     1 SAH1        0.0000 
     18 C8        -43.6750   37.7170   11.3320 C.2       1 SAH1        0.0000 
     19 N7        -44.4100   37.6680   12.4740 N.2       1 SAH1        0.0000 
     20 C5        -45.0790   38.8350   12.5490 C.ar      1 SAH1        0.0000 
     21 C6        -46.0300   39.4420   13.4980 C.ar      1 SAH1        0.0000 
     22 N6        -46.4300   38.7710   14.6170 N.pl3     1 SAH1        0.0000 
     23 N1        -46.4720   40.6870   13.2020 N.ar      1 SAH1        0.0000 
     24 C2        -46.0860   41.3510   12.0950 C.ar      1 SAH1        0.0000 
     25 N3        -45.2230   40.8640   11.1850 N.ar      1 SAH1        0.0000 
     26 C4        -44.7000   39.6270   11.3670 C.ar      1 SAH1        0.0000 
     27 H         -42.3179   36.9486    6.5632 H         1 SAH1        0.0000 
     28 H         -42.1308   34.3344    6.2479 H         1 SAH1        0.0000 
     29 H         -43.6882   34.3343    7.0931 H         1 SAH1        0.0000 
     30 H         -41.8617   34.1752    8.7768 H         1 SAH1        0.0000 
     31 H         -42.5416   35.8069    8.9003 H         1 SAH1        0.0000 
     32 H         -39.3229   37.3127    9.3689 H         1 SAH1        0.0000 
     33 H         -40.7906   36.6800   10.1341 H         1 SAH1        0.0000 
     34 H         -40.8432   38.6011    7.7631 H         1 SAH1        0.0000 
     35 H         -40.7378   39.2718   10.6298 H         1 SAH1        0.0000 
     36 H         -42.3788   40.9030   10.3857 H         1 SAH1        0.0000 
     37 H         -43.9932   39.6331    8.7189 H         1 SAH1        0.0000 
     38 H         -43.0915   36.9838   11.0250 H         1 SAH1        0.0000 
     39 H         -46.6317   39.3335   15.4188 H         1 SAH1        0.0000 
     40 H         -46.4863   37.7758   14.5368 H         1 SAH1        0.0000 
     41 H         -46.4924   42.3284   11.9297 H         1 SAH1        0.0000 
     42 H         -45.1944   36.4451    6.3259 H         1 SAH1        0.0000 
     43 H         -44.5359   36.4577    7.7931 H         1 SAH1        0.0000 
     44 H         -44.4310   37.7586    6.8535 H         1 SAH1        0.0000 
     45 H         -39.2589   40.6094    9.8724 H         1 SAH1        0.0000 
     46 H         -41.3205   41.2677    8.0798 H         1 SAH1        0.0000 
@<TRIPOS>BOND
     1    2    1 1    
     2   42    1 1    
     3   43    1 1    
     4   44    1 1    
     5    3    2 1    
     6    6    2 1    
     7   27    2 1    
     8    4    3 1    
     9   28    3 1    
    10   29    3 1    
    11    5    4 1    
    12   30    4 1    
    13   31    4 1    
    14    9    5 1    
    15    7    6 ar   
    16    8    6 ar   
    17   10    9 1    
    18   32    9 1    
    19   33    9 1    
    20   11   10 1    
    21   12   10 1    
    22   34   10 1    
    23   16   11 1    
    24   13   12 1    
    25   14   12 1    
    26   35   12 1    
    27   45   13 1    
    28   15   14 1    
    29   16   14 1    
    30   36   14 1    
    31   46   15 1    
    32   17   16 1    
    33   37   16 1    
    34   18   17 1    
    35   26   17 1    
    36   19   18 2    
    37   38   18 1    
    38   20   19 1    
    39   21   20 ar   
    40   26   20 ar   
    41   22   21 1    
    42   23   21 ar   
    43   39   22 1    
    44   40   22 1    
    45   24   23 ar   
    46   25   24 ar   
    47   41   24 1    
    48   26   25 ar   
@<TRIPOS>SUBSTRUCTURE
     1 SAH1        1 GROUP   
@<TRIPOS>SET

