#    Name: 2ix5_FAD_6_INTS_M
#    Modification time : Tue Mar 25 18:54:27 2014

@<TRIPOS>MOLECULE
2ix5_FAD_6_INTS_M
  121     0    12     0     0
SMALL
NO_CHARGES


@<TRIPOS>ATOM
      1 NZ         37.2605  -24.0625   29.8530 N.4       3 LYC4        0.0000 
      2 NZ         37.7110  -24.6910   28.6620 N.4      11 LYL4        0.0000 
      3 NZ         37.3920  -23.6730   32.2150 N.4       7 LYP4        0.0000 
      4 N          37.2605  -24.0625   29.8530 N.am      2 SEC2        0.0000 
      5 N          37.7110  -24.6910   28.6620 N.am     10 SEL2        0.0000 
      6 N          36.8100  -23.4340   31.0440 N.am      6 SEP2        0.0000 
      7 N          41.6855  -24.1175   28.8235 N.am      2 SEC2        0.0000 
      8 N          40.2340  -24.0800   28.2850 N.am     10 SEL2        0.0000 
      9 N          43.1370  -24.1550   29.3620 N.am      6 SEP2        0.0000 
     10 N          41.2150  -24.0745   27.4440 N.am      2 SEC2        0.0000 
     11 N          42.1960  -24.0690   26.6030 N.am      6 SEP2        0.0000 
     12 CA         37.3540  -26.7790   25.7955 C.3       4 GLC5        0.0000 
     13 CA         37.3990  -24.7750   25.7890 C.3      12 GLL5        0.0000 
     14 CA         37.3090  -28.7830   25.8020 C.3       8 GLP5        0.0000 
     15 CA         35.7105  -25.2885   23.1480 C.3       4 GLC5        0.0000 
     16 CA         37.3380  -24.3500   24.3320 C.3      12 GLL5        0.0000 
     17 CA         34.0830  -26.2270   21.9640 C.3       8 GLP5        0.0000 
     18 N          36.9770  -21.6130   23.4480 N.am      2 SEC2        0.0000 
     19 N          37.7020  -22.9720   24.1870 N.am     10 SEL2        0.0000 
     20 N          36.2520  -20.2540   22.7090 N.am      6 SEP2        0.0000 
     21 CA         37.8005  -26.9735   24.6390 C.3       4 GLC5        0.0000 
     22 CA         38.2920  -25.1640   23.4760 C.3      12 GLL5        0.0000 
     23 O          37.0100  -26.6475   22.2435 O.2       1 ALC1        0.0000 
     24 O          37.6070  -25.5280   22.2700 O.2       9 ALL1        0.0000 
     25 O          36.4130  -27.7670   22.2170 O.2       5 ALP1        0.0000 
     26 CA         40.5055  -23.8570   21.2720 C.3       4 GLC5        0.0000 
     27 CA         39.4370  -24.2110   23.1910 C.3      12 GLL5        0.0000 
     28 CA         41.5740  -23.5030   19.3530 C.3       8 GLP5        0.0000 
     29 N          41.4095  -25.0955   22.1325 N.am      2 SEC2        0.0000 
     30 N          40.0280  -24.4820   21.9200 N.am     10 SEL2        0.0000 
     31 N          42.7910  -25.7090   22.3450 N.am      6 SEP2        0.0000 
     32 O          42.8815  -16.7280   23.5665 O.2       1 ALC1        0.0000 
     33 O          42.5330  -18.1230   23.6690 O.2       9 ALL1        0.0000 
     34 O          43.2300  -15.3330   23.4640 O.2       5 ALP1        0.0000 
     35 N          41.6195  -17.4565   20.8465 N.am      2 SEC2        0.0000 
     36 N          41.3810  -18.6510   21.7360 N.am     10 SEL2        0.0000 
     37 N          41.8580  -16.2620   19.9570 N.am      6 SEP2        0.0000 
     38 CA         42.3820  -19.2310   20.1810 C.3       4 GLC5        0.0000 
     39 CA         40.5220  -19.4170   21.0470 C.3      12 GLL5        0.0000 
     40 CA         44.2420  -19.0450   19.3150 C.3       8 GLP5        0.0000 
     41 CA         39.1905  -18.1010   21.3595 C.3       4 GLC5        0.0000 
     42 CA         37.8590  -16.7850   21.6720 C.3       8 GLP5        0.0000 
     43 CA         40.9005  -19.6475   19.2275 C.3       4 GLC5        0.0000 
     44 CA         41.2790  -19.8780   17.4080 C.3       8 GLP5        0.0000 
     45 N          45.3300  -30.6190   32.4950 N.am      2 SEC2        0.0000 
     46 N          45.6750  -31.9460   32.3250 N.am     10 SEL2        0.0000 
     47 N          44.9850  -29.2920   32.6650 N.am      6 SEP2        0.0000 
     48 N          48.0270  -30.6415   34.8760 N.am      2 SEC2        0.0000 
     49 N          47.3740  -31.1220   33.5720 N.am     10 SEL2        0.0000 
     50 N          48.6800  -30.1610   36.1800 N.am      6 SEP2        0.0000 
     51 N          46.8955  -29.9320   34.3065 N.am      2 SEC2        0.0000 
     52 N          46.4170  -28.7420   35.0410 N.am      6 SEP2        0.0000 
     53 N          46.1795  -30.2070   33.1185 N.am      2 SEC2        0.0000 
     54 O          48.3090  -33.5510   34.3535 O.2       1 ALC1        0.0000 
     55 O          47.2800  -33.3740   33.3060 O.2       9 ALL1        0.0000 
     56 O          49.3380  -33.7280   35.4010 O.2       5 ALP1        0.0000 
     57 N          46.2620  -36.6615   33.9710 N.am      2 SEC2        0.0000 
     58 N          47.1080  -35.6160   32.9780 N.am     10 SEL2        0.0000 
     59 N          45.4160  -37.7070   34.9640 N.am      6 SEP2        0.0000 
     60 CA         40.3430  -36.2955   30.5480 C.3       4 GLC5        0.0000 
     61 CA         41.3550  -37.3620   28.8630 C.3      12 GLL5        0.0000 
     62 CA         39.3310  -35.2290   32.2330 C.3       8 GLP5        0.0000 
     63 CA         41.9995  -38.7760   27.7940 C.3       4 GLC5        0.0000 
     64 CA         42.6440  -40.1900   26.7250 C.3       8 GLP5        0.0000 
     65 CA         42.9125  -36.7260   27.8720 C.3       4 GLC5        0.0000 
     66 CA         44.4700  -36.0900   26.8810 C.3       8 GLP5        0.0000 
     67 CA         39.7815  -34.9165   30.2905 C.3       4 GLC5        0.0000 
     68 CA         40.2320  -34.6040   28.3480 C.3      12 GLL5        0.0000 
     69 CA         38.9020  -33.0815   28.3725 C.3       4 GLC5        0.0000 
     70 CA         37.5720  -31.5590   28.3970 C.3       8 GLP5        0.0000 
     71 CA         38.5825  -35.9765   28.1425 C.3       4 GLC5        0.0000 
     72 CA         36.9330  -37.3490   27.9370 C.3       8 GLP5        0.0000 
     73 CA         43.8300  -30.2515   32.3410 C.3       4 GLC5        0.0000 
     74 CA         43.4150  -31.4380   30.8180 C.3      12 GLL5        0.0000 
     75 CA         44.2450  -29.0650   33.8640 C.3       8 GLP5        0.0000 
     76 CA         42.5435  -32.3525   32.1425 C.3       4 GLC5        0.0000 
     77 CA         41.6720  -33.2670   33.4670 C.3       8 GLP5        0.0000 
     78 CA         44.0660  -32.2355   28.1345 C.3       4 GLC5        0.0000 
     79 CA         43.5910  -30.9080   29.3980 C.3      12 GLL5        0.0000 
     80 CA         44.5410  -33.5630   26.8710 C.3       8 GLP5        0.0000 
     81 CA         42.8040  -29.0455   31.3580 C.3       4 GLC5        0.0000 
     82 CA         42.6860  -29.6960   29.2210 C.3      12 GLL5        0.0000 
     83 CA         42.9220  -28.3950   33.4950 C.3       8 GLP5        0.0000 
     84 CA         41.6665  -29.9785   26.7255 C.3       4 GLC5        0.0000 
     85 CA         43.0410  -28.8060   28.0320 C.3      12 GLL5        0.0000 
     86 CA         40.2920  -31.1510   25.4190 C.3       8 GLP5        0.0000 
     87 CA         43.7675  -30.6050   26.9450 C.3       4 GLC5        0.0000 
     88 CA         44.4940  -32.4040   25.8580 C.3       8 GLP5        0.0000 
     89 O          44.5470  -26.8205   29.2065 O.2       1 ALC1        0.0000 
     90 O          44.3140  -28.1740   28.2290 O.2       9 ALL1        0.0000 
     91 O          44.7800  -25.4670   30.1840 O.2       5 ALP1        0.0000 
     92 CA         42.3710  -26.5300   29.6020 C.3       4 GLC5        0.0000 
     93 CA         42.0000  -27.7160   27.7750 C.3      12 GLL5        0.0000 
     94 CA         42.7420  -25.3440   31.4290 C.3       8 GLP5        0.0000 
     95 CA         41.8750  -27.5545   25.7555 C.3       4 GLC5        0.0000 
     96 CA         41.7500  -27.3930   23.7360 C.3       8 GLP5        0.0000 
     97 N          38.4575  -29.4390   28.4015 N.am      2 SEC2        0.0000 
     98 N          39.2590  -28.5780   29.1480 N.am     10 SEL2        0.0000 
     99 N          37.6560  -30.3000   27.6550 N.am      6 SEP2        0.0000 
    100 NZ         38.8895  -25.5015   31.3540 N.4       3 LYC4        0.0000 
    101 NZ         39.5450  -26.3070   30.3800 N.4      11 LYL4        0.0000 
    102 N          38.8895  -25.5015   31.3540 N.am      2 SEC2        0.0000 
    103 N          39.5450  -26.3070   30.3800 N.am     10 SEL2        0.0000 
    104 N          38.2340  -24.6960   32.3280 N.am      6 SEP2        0.0000 
    105 CA         36.1793  -23.3837   26.0517 C.3       4 GLC5        0.0000 
    106 CA         34.9900  -22.2050   27.0430 C.3       8 GLP5        0.0000 
    107 CA         40.3072  -26.0403   23.5348 C.3       4 GLC5        0.0000 
    108 CA         43.0293  -20.5162   23.5057 C.3       4 GLC5        0.0000 
    109 CA         41.0630  -20.0200   23.6320 C.3      12 GLL5        0.0000 
    110 CA         44.6940  -21.5600   23.6870 C.3       8 GLP5        0.0000 
    111 CA         40.9025  -36.9915   27.3775 C.3       4 GLC5        0.0000 
    112 CA         41.9950  -36.1140   29.4090 C.3      12 GLL5        0.0000 
    113 CA         40.1300  -37.2450   25.6190 C.3       8 GLP5        0.0000 
    114 CA         40.4917  -35.9820   27.1893 C.3       4 GLC5        0.0000 
    115 CA         41.4750  -34.8340   29.1710 C.3      12 GLL5        0.0000 
    116 CA         42.2474  -33.6950   31.8114 C.3       4 GLC5        0.0000 
    117 CA         42.1200  -33.7240   29.7130 C.3      12 GLL5        0.0000 
    118 CA         45.5495  -31.8140   29.8285 C.3       4 GLC5        0.0000 
    119 CA         47.5960  -32.4550   29.5490 C.3       8 GLP5        0.0000 
    120 CA         43.4099  -34.1808   28.2969 C.3       4 GLC5        0.0000 
    121 CA         43.2770  -33.8780   30.4870 C.3      12 GLL5        0.0000 
@<TRIPOS>BOND
@<TRIPOS>SUBSTRUCTURE
     1 ALC1       23 GROUP        1 X    ALC  0     ROOT ALC X 1
     2 SEC2        4 GROUP        1 X    SEC  0     **** SEC X 2
     3 LYC4        1 GROUP        1 X    LYC  0     **** LYC X 4
     4 GLC5       12 GROUP        1 X    GLC  0     **** GLC X 6
     5 ALP1       25 GROUP        1 Y    ALP  0     ROOT ALP Y 8
     6 SEP2        6 GROUP        1 Y    SEP  0     **** SEP Y 9
     7 LYP4        3 GROUP        1 Y    LYP  0     **** LYP Y 11
     8 GLP5       14 GROUP        1 Y    GLP  0     **** GLP Y 13
     9 ALL1       24 GROUP        1 Z    ALL  0     ROOT ALL Z 15
    10 SEL2        5 GROUP        1 Z    SEL  0     **** SEL Z 16
    11 LYL4        2 GROUP        1 Z    LYL  0     **** LYL Z 18
    12 GLL5       13 GROUP        1 Z    GLL  0     **** GLL Z 20
@<TRIPOS>SET

