#    Name: 2ix5_FAD_6_ligand
#    Modification time : Tue Mar 25 18:54:28 2014

@<TRIPOS>MOLECULE
2ix5_FAD_6_ligand
   84    89     1     0     0
SMALL
NO_CHARGES


@<TRIPOS>ATOM
      1 PA         39.0020  -24.8440   27.8770 P.3       1 FAD1433     0.0000 
      2 O1A        37.7110  -24.6910   28.6620 O.co2     1 FAD1433     0.0000 
      3 O2A        40.2340  -24.0800   28.2850 O.co2     1 FAD1433     0.0000 
      4 O5B        38.6950  -24.5150   26.3310 O.3       1 FAD1433     0.0000 
      5 C5B        37.3990  -24.7750   25.7890 C.3       1 FAD1433     0.0000 
      6 C4B        37.3380  -24.3500   24.3320 C.3       1 FAD1433     0.0000 
      7 O4B        37.7020  -22.9720   24.1870 O.3       1 FAD1433     0.0000 
      8 C3B        38.2920  -25.1640   23.4760 C.3       1 FAD1433     0.0000 
      9 O3B        37.6070  -25.5280   22.2700 O.3       1 FAD1433     0.0000 
     10 C2B        39.4370  -24.2110   23.1910 C.3       1 FAD1433     0.0000 
     11 O2B        40.0280  -24.4820   21.9200 O.3       1 FAD1433     0.0000 
     12 C1B        38.7760  -22.8360   23.2530 C.3       1 FAD1433     0.0000 
     13 N9A        39.7370  -21.7850   23.6760 N.pl3     1 FAD1433     0.0000 
     14 C8A        40.3090  -21.6410   24.8810 C.2       1 FAD1433     0.0000 
     15 N7A        41.1300  -20.5620   24.8670 N.2       1 FAD1433     0.0000 
     16 C5A        41.0630  -20.0200   23.6320 C.ar      1 FAD1433     0.0000 
     17 C6A        41.6660  -18.9250   23.0170 C.ar      1 FAD1433     0.0000 
     18 N6A        42.5330  -18.1230   23.6690 N.pl3     1 FAD1433     0.0000 
     19 N1A        41.3810  -18.6510   21.7360 N.ar      1 FAD1433     0.0000 
     20 C2A        40.5220  -19.4170   21.0470 C.ar      1 FAD1433     0.0000 
     21 N3A        39.9240  -20.4750   21.6060 N.ar      1 FAD1433     0.0000 
     22 C4A        40.1790  -20.7980   22.8950 C.ar      1 FAD1433     0.0000 
     23 N1         45.6750  -31.9460   32.3250 N.2       1 FAD1433     0.0000 
     24 C2         46.7940  -32.1230   33.0810 C.2       1 FAD1433     0.0000 
     25 O2         47.3740  -31.1220   33.5720 O.2       1 FAD1433     0.0000 
     26 N3         47.2800  -33.3740   33.3060 N.am      1 FAD1433     0.0000 
     27 C4         46.6590  -34.4610   32.7750 C.2       1 FAD1433     0.0000 
     28 O4         47.1080  -35.6160   32.9780 O.2       1 FAD1433     0.0000 
     29 C4X        45.5170  -34.2820   31.9900 C.2       1 FAD1433     0.0000 
     30 N5         44.8870  -35.3480   31.4470 N.2       1 FAD1433     0.0000 
     31 C5X        43.7740  -35.1660   30.7100 C.ar      1 FAD1433     0.0000 
     32 C6         43.1370  -36.2750   30.1790 C.ar      1 FAD1433     0.0000 
     33 C7         41.9950  -36.1140   29.4090 C.ar      1 FAD1433     0.0000 
     34 C7M        41.3550  -37.3620   28.8630 C.3       1 FAD1433     0.0000 
     35 C8         41.4750  -34.8340   29.1710 C.ar      1 FAD1433     0.0000 
     36 C8M        40.2320  -34.6040   28.3480 C.3       1 FAD1433     0.0000 
     37 C9         42.1200  -33.7240   29.7130 C.ar      1 FAD1433     0.0000 
     38 C9A        43.2770  -33.8780   30.4870 C.ar      1 FAD1433     0.0000 
     39 N10        43.9210  -32.8100   31.0160 N.pl3     1 FAD1433     0.0000 
     40 C10        45.0200  -32.9970   31.7730 C.2       1 FAD1433     0.0000 
     41 C1'        43.4150  -31.4380   30.8180 C.3       1 FAD1433     0.0000 
     42 C2'        43.5910  -30.9080   29.3980 C.3       1 FAD1433     0.0000 
     43 O2'        44.9750  -30.6220   29.1370 O.3       1 FAD1433     0.0000 
     44 C3'        42.6860  -29.6960   29.2210 C.3       1 FAD1433     0.0000 
     45 O3'        41.3640  -30.2020   29.0400 O.3       1 FAD1433     0.0000 
     46 C4'        43.0410  -28.8060   28.0320 C.3       1 FAD1433     0.0000 
     47 O4'        44.3140  -28.1740   28.2290 O.3       1 FAD1433     0.0000 
     48 C5'        42.0000  -27.7160   27.7750 C.3       1 FAD1433     0.0000 
     49 O5'        41.4310  -27.2390   28.9960 O.3       1 FAD1433     0.0000 
     50 P          39.8230  -27.1830   29.1850 P.3       1 FAD1433     0.0000 
     51 O1P        39.2590  -28.5780   29.1480 O.co2     1 FAD1433     0.0000 
     52 O2P        39.5450  -26.3070   30.3800 O.co2     1 FAD1433     0.0000 
     53 O3P        39.3430  -26.4170   27.8490 O.3       1 FAD1433     0.0000 
     54 H          36.6161  -24.2275   26.3340 H         1 FAD1433     0.0000 
     55 H          37.1470  -25.8444   25.8401 H         1 FAD1433     0.0000 
     56 H          36.3347  -24.5167   23.9621 H         1 FAD1433     0.0000 
     57 H          38.6377  -25.9795   24.0327 H         1 FAD1433     0.0000 
     58 H          40.1280  -24.2792   24.0047 H         1 FAD1433     0.0000 
     59 H          38.3927  -22.6184   22.2688 H         1 FAD1433     0.0000 
     60 H          40.1627  -22.2174   25.6512 H         1 FAD1433     0.0000 
     61 H          42.5593  -17.1688   23.3708 H         1 FAD1433     0.0000 
     62 H          43.0722  -18.5539   24.3925 H         1 FAD1433     0.0000 
     63 H          40.3140  -19.1779   20.0399 H         1 FAD1433     0.0000 
     64 H          48.1339  -33.4994   33.8892 H         1 FAD1433     0.0000 
     65 H          43.5100  -37.2180   30.3551 H         1 FAD1433     0.0000 
     66 H          41.7443  -32.7791   29.5444 H         1 FAD1433     0.0000 
     67 H          43.9258  -30.7399   31.5120 H         1 FAD1433     0.0000 
     68 H          42.3367  -31.3894   31.0727 H         1 FAD1433     0.0000 
     69 H          43.2247  -31.6911   28.7238 H         1 FAD1433     0.0000 
     70 H          42.7301  -29.1034   30.1265 H         1 FAD1433     0.0000 
     71 H          43.0787  -29.4362   27.1375 H         1 FAD1433     0.0000 
     72 H          41.2310  -28.1407   27.1080 H         1 FAD1433     0.0000 
     73 H          42.4974  -26.9058   27.2158 H         1 FAD1433     0.0000 
     74 H          41.9803  -37.8722   28.2725 H         1 FAD1433     0.0000 
     75 H          41.0692  -37.9827   29.5931 H         1 FAD1433     0.0000 
     76 H          40.5417  -37.1549   28.3192 H         1 FAD1433     0.0000 
     77 H          40.0046  -33.6324   28.2823 H         1 FAD1433     0.0000 
     78 H          40.3371  -34.9442   27.4135 H         1 FAD1433     0.0000 
     79 H          39.4362  -35.0655   28.7402 H         1 FAD1433     0.0000 
     80 H          36.8282  -26.0785   22.5709 H         1 FAD1433     0.0000 
     81 H          39.4185  -25.1464   21.4877 H         1 FAD1433     0.0000 
     82 H          44.9832  -29.6883   28.7792 H         1 FAD1433     0.0000 
     83 H          40.7670  -29.4053   29.1337 H         1 FAD1433     0.0000 
     84 H          44.1309  -27.4112   28.8492 H         1 FAD1433     0.0000 
@<TRIPOS>BOND
     1    2    1 ar   
     2    3    1 ar   
     3    4    1 1    
     4   53    1 1    
     5    5    4 1    
     6    6    5 1    
     7   54    5 1    
     8   55    5 1    
     9    7    6 1    
    10    8    6 1    
    11   56    6 1    
    12   12    7 1    
    13    9    8 1    
    14   10    8 1    
    15   57    8 1    
    16   80    9 1    
    17   11   10 1    
    18   12   10 1    
    19   58   10 1    
    20   81   11 1    
    21   13   12 1    
    22   59   12 1    
    23   14   13 1    
    24   22   13 1    
    25   15   14 2    
    26   60   14 1    
    27   16   15 1    
    28   17   16 ar   
    29   22   16 ar   
    30   18   17 1    
    31   19   17 ar   
    32   61   18 1    
    33   62   18 1    
    34   20   19 ar   
    35   21   20 ar   
    36   63   20 1    
    37   22   21 ar   
    38   24   23 1    
    39   40   23 2    
    40   25   24 2    
    41   26   24 am   
    42   27   26 am   
    43   64   26 1    
    44   28   27 2    
    45   29   27 1    
    46   30   29 2    
    47   40   29 1    
    48   31   30 1    
    49   32   31 ar   
    50   38   31 ar   
    51   33   32 ar   
    52   65   32 1    
    53   34   33 1    
    54   35   33 ar   
    55   74   34 1    
    56   75   34 1    
    57   76   34 1    
    58   36   35 1    
    59   37   35 ar   
    60   77   36 1    
    61   78   36 1    
    62   79   36 1    
    63   38   37 ar   
    64   66   37 1    
    65   39   38 1    
    66   40   39 1    
    67   41   39 1    
    68   42   41 1    
    69   67   41 1    
    70   68   41 1    
    71   43   42 1    
    72   44   42 1    
    73   69   42 1    
    74   82   43 1    
    75   45   44 1    
    76   46   44 1    
    77   70   44 1    
    78   83   45 1    
    79   47   46 1    
    80   48   46 1    
    81   71   46 1    
    82   84   47 1    
    83   49   48 1    
    84   72   48 1    
    85   73   48 1    
    86   50   49 1    
    87   51   50 ar   
    88   52   50 ar   
    89   53   50 1    
@<TRIPOS>SUBSTRUCTURE
     1 FAD1433     1 GROUP   
@<TRIPOS>SET

