#    Name: 1g9b_BAB_2_INTS_M
#    Modification time : Tue Mar 25 02:51:46 2014

@<TRIPOS>MOLECULE
1g9b_BAB_2_INTS_M
   43     0     6     0     0
SMALL
NO_CHARGES


@<TRIPOS>ATOM
      1 CA          6.6285   -6.3355   22.6125 C.3       2 GLC5        0.0000 
      2 CA          8.2250   -7.6410   22.7150 C.3       6 GLL5        0.0000 
      3 CA          5.0320   -5.0300   22.5100 C.3       4 GLP5        0.0000 
      4 CA          5.9080   -5.8825   20.9105 C.3       2 GLC5        0.0000 
      5 CA          6.7840   -6.7350   19.3110 C.3       6 GLL5        0.0000 
      6 CA          6.7265   -5.1760   17.7335 C.3       2 GLC5        0.0000 
      7 CA          6.6690   -3.6170   16.1560 C.3       4 GLP5        0.0000 
      8 CA          8.6915   -7.2220   18.7740 C.3       2 GLC5        0.0000 
      9 CA         10.5990   -7.7090   18.2370 C.3       4 GLP5        0.0000 
     10 O          12.9625  -11.2120   24.3185 O.2       1 ALC1        0.0000 
     11 O          11.2560  -11.4530   24.3500 O.2       5 ALL1        0.0000 
     12 O          14.6690  -10.9710   24.2870 O.2       3 ALP1        0.0000 
     13 O          13.6825  -10.1350   24.4510 O.2       1 ALC1        0.0000 
     14 O          12.6960   -9.2990   24.6150 O.2       5 ALL1        0.0000 
     15 CA         10.3822   -7.1048   24.1005 C.3       2 GLC5        0.0000 
     16 CA         10.2930   -9.1460   23.7070 C.3       6 GLL5        0.0000 
     17 CA         10.9100   -5.4000   24.0480 C.3       4 GLP5        0.0000 
     18 CA         10.6867   -9.7323   25.7710 C.3       2 GLC5        0.0000 
     19 CA          9.4160   -8.4730   24.5990 C.3       6 GLL5        0.0000 
     20 CA         11.5190  -10.6550   27.3890 C.3       4 GLP5        0.0000 
     21 CA          8.7985  -10.0970   22.0545 C.3       2 GLC5        0.0000 
     22 CA          7.3920  -11.0950   21.0900 C.3       4 GLP5        0.0000 
     23 CA          9.6002   -6.5353   23.7245 C.3       2 GLC5        0.0000 
     24 CA          8.0225   -9.5323   21.6930 C.3       2 GLC5        0.0000 
     25 CA         10.2545   -7.0375   23.0760 C.3       2 GLC5        0.0000 
     26 CA          9.0810   -8.2980   21.8770 C.3       6 GLL5        0.0000 
     27 CA         10.0990   -8.1920   20.1705 C.3       2 GLC5        0.0000 
     28 CA          2.5243  -10.1200   18.1063 C.3       2 GLC5        0.0000 
     29 CA          1.8350  -10.4280   19.8660 C.3       6 GLL5        0.0000 
     30 CA          3.5510  -10.4100   16.4860 C.3       4 GLP5        0.0000 
     31 CA          0.3150   -8.4260   18.2227 C.3       2 GLC5        0.0000 
     32 CA          1.8660   -8.0600   19.3720 C.3       6 GLL5        0.0000 
     33 CA         -0.8830   -8.2060   16.9660 C.3       4 GLP5        0.0000 
     34 CA          3.0475   -9.2420   17.9443 C.3       2 GLC5        0.0000 
     35 CA          3.2220   -8.0880   19.4330 C.3       6 GLL5        0.0000 
     36 CA          1.3062   -7.3065   20.8526 C.3       2 GLC5        0.0000 
     37 CA          0.2450   -6.2460   22.2490 C.3       4 GLP5        0.0000 
     38 CA          3.6863   -7.4665   21.0184 C.3       2 GLC5        0.0000 
     39 CA          4.1470   -6.2780   22.4830 C.3       4 GLP5        0.0000 
     40 CA          3.5663  -10.1248   18.1523 C.3       2 GLC5        0.0000 
     41 CA          3.9070   -9.2360   19.7050 C.3       6 GLL5        0.0000 
     42 CA          5.1987  -10.7517   19.8107 C.3       2 GLC5        0.0000 
     43 CA          6.8160  -11.6640   19.8030 C.3       4 GLP5        0.0000 
@<TRIPOS>BOND
@<TRIPOS>SUBSTRUCTURE
     1 ALC1       10 GROUP        1 X    ALC  0     ROOT ALC X 1
     2 GLC5        1 GROUP        1 X    GLC  0     **** GLC X 6
     3 ALP1       12 GROUP        1 Y    ALP  0     ROOT ALP Y 8
     4 GLP5        3 GROUP        1 Y    GLP  0     **** GLP Y 13
     5 ALL1       11 GROUP        1 Z    ALL  0     ROOT ALL Z 15
     6 GLL5        2 GROUP        1 Z    GLL  0     **** GLL Z 20
@<TRIPOS>SET

