#    Name: 1g9b_BAB_2_ligand
#    Modification time : Tue Mar 25 02:51:46 2014

@<TRIPOS>MOLECULE
1g9b_BAB_2_ligand
   43    46     1     0     0
SMALL
NO_CHARGES


@<TRIPOS>ATOM
      1 C1         10.2930   -9.1460   23.7070 C.ar      1 BAB1293     0.0000 
      2 C2          9.4160   -8.4730   24.5990 C.ar      1 BAB1293     0.0000 
      3 C3          8.3560   -7.7000   24.0870 C.ar      1 BAB1293     0.0000 
      4 C4          8.2250   -7.6410   22.7150 C.ar      1 BAB1293     0.0000 
      5 C5          9.0810   -8.2980   21.8770 C.ar      1 BAB1293     0.0000 
      6 C6         10.1170   -9.0520   22.3310 C.ar      1 BAB1293     0.0000 
      7 C7         11.4180   -9.9690   24.2270 C.ar      1 BAB1293     0.0000 
      8 C8          7.5360   -7.2090   20.5100 C.2       1 BAB1293     0.0000 
      9 C9          6.7840   -6.7350   19.3110 C.3       1 BAB1293     0.0000 
     10 N1         11.2560  -11.4530   24.3500 N.pl3     1 BAB1293     0.0000 
     11 N2         12.6960   -9.2990   24.6150 N.pl3     1 BAB1293     0.0000 
     12 N3          7.2100   -6.9190   21.9220 N.2       1 BAB1293     0.0000 
     13 N4          8.7090   -8.0740   20.4770 N.pl3     1 BAB1293     0.0000 
     14 C1'         1.8350  -10.4280   19.8660 C.ar      1 BAB1293     0.0000 
     15 C2'         1.1600   -9.2320   19.5870 C.ar      1 BAB1293     0.0000 
     16 C3'         1.8660   -8.0600   19.3720 C.ar      1 BAB1293     0.0000 
     17 C4'         3.2220   -8.0880   19.4330 C.ar      1 BAB1293     0.0000 
     18 C5'         3.9070   -9.2360   19.7050 C.ar      1 BAB1293     0.0000 
     19 C6'         3.2560  -10.4430   19.9320 C.ar      1 BAB1293     0.0000 
     20 C7'         1.0030  -11.6750   20.0760 C.ar      1 BAB1293     0.0000 
     21 C8'         5.4920   -7.4980   19.4010 C.2       1 BAB1293     0.0000 
     22 N1'         1.6490  -13.0040   20.2970 N.pl3     1 BAB1293     0.0000 
     23 N2'        -0.4860  -11.5690   20.0180 N.pl3     1 BAB1293     0.0000 
     24 N3'         4.1480   -6.9480   19.2280 N.2       1 BAB1293     0.0000 
     25 N4'         5.3580   -8.9510   19.7050 N.pl3     1 BAB1293     0.0000 
     26 H           9.5579   -8.5526   25.6046 H         1 BAB1293     0.0000 
     27 H           7.7274   -7.2158   24.7078 H         1 BAB1293     0.0000 
     28 H          10.7496   -9.5363   21.6980 H         1 BAB1293     0.0000 
     29 H           7.3012   -7.0007   18.4202 H         1 BAB1293     0.0000 
     30 H           6.5944   -5.6906   19.3814 H         1 BAB1293     0.0000 
     31 H          10.3524  -11.8172   24.1246 H         1 BAB1293     0.0000 
     32 H          12.0645  -11.9607   24.6477 H         1 BAB1293     0.0000 
     33 H          12.7202   -8.3046   24.5126 H         1 BAB1293     0.0000 
     34 H          13.4245   -9.8989   24.9459 H         1 BAB1293     0.0000 
     35 H           9.1249   -8.4063   19.7460 H         1 BAB1293     0.0000 
     36 H           0.1300   -9.2320   19.5430 H         1 BAB1293     0.0000 
     37 H           1.3594   -7.1887   19.1702 H         1 BAB1293     0.0000 
     38 H           3.7491  -11.2902   20.1333 H         1 BAB1293     0.0000 
     39 H           1.0301  -13.7837   20.3924 H         1 BAB1293     0.0000 
     40 H           2.6484  -13.0071   20.3317 H         1 BAB1293     0.0000 
     41 H          -0.8556  -10.6567   19.8416 H         1 BAB1293     0.0000 
     42 H          -0.9935  -12.4188   20.1602 H         1 BAB1293     0.0000 
     43 H           6.0261   -9.5292   19.8562 H         1 BAB1293     0.0000 
@<TRIPOS>BOND
     1    2    1 ar   
     2    6    1 ar   
     3    7    1 1    
     4    3    2 ar   
     5   26    2 1    
     6    4    3 ar   
     7   27    3 1    
     8    5    4 ar   
     9   12    4 1    
    10    6    5 ar   
    11   13    5 1    
    12   28    6 1    
    13   10    7 ar   
    14   11    7 ar   
    15    9    8 1    
    16   12    8 2    
    17   13    8 1    
    18   21    9 1    
    19   29    9 1    
    20   30    9 1    
    21   31   10 1    
    22   32   10 1    
    23   33   11 1    
    24   34   11 1    
    25   35   13 1    
    26   15   14 ar   
    27   19   14 ar   
    28   20   14 1    
    29   16   15 ar   
    30   36   15 1    
    31   17   16 ar   
    32   37   16 1    
    33   18   17 ar   
    34   24   17 1    
    35   19   18 ar   
    36   25   18 1    
    37   38   19 1    
    38   22   20 ar   
    39   23   20 ar   
    40   24   21 2    
    41   25   21 1    
    42   39   22 1    
    43   40   22 1    
    44   41   23 1    
    45   42   23 1    
    46   43   25 1    
@<TRIPOS>SUBSTRUCTURE
     1 BAB1293     1 GROUP   
@<TRIPOS>SET

