#    Name: 2brc_CT5_1_INTS_M
#    Modification time : Mon Mar 24 21:32:05 2014

@<TRIPOS>MOLECULE
2brc_CT5_1_INTS_M
   52     0     6     0     0
SMALL
NO_CHARGES


@<TRIPOS>ATOM
      1 CA         18.2895   -0.2910   -6.2975 C.3       2 GLC5        0.0000 
      2 CA         17.4630   -2.2010   -6.7400 C.3       6 GLL5        0.0000 
      3 CA         19.1160    1.6190   -5.8550 C.3       4 GLP5        0.0000 
      4 CA         18.0960   -1.0800  -10.0715 C.3       2 GLC5        0.0000 
      5 CA         16.8980   -0.6970   -8.8830 C.3       6 GLL5        0.0000 
      6 CA         19.2940   -1.4630  -11.2600 C.3       4 GLP5        0.0000 
      7 CA         18.0070    0.4610   -7.3690 C.3       2 GLC5        0.0000 
      8 O          21.2690   -1.9295   -6.0710 O.2       1 ALC1        0.0000 
      9 O          19.7220   -2.0590   -6.8290 O.2       5 ALL1        0.0000 
     10 O          22.8160   -1.8000   -5.3130 O.2       3 ALP1        0.0000 
     11 CA         16.9220   -3.8715    0.0420 C.3       2 GLC5        0.0000 
     12 CA         16.9710   -3.7600   -1.6480 C.3       6 GLL5        0.0000 
     13 CA         16.8730   -3.9830    1.7320 C.3       4 GLP5        0.0000 
     14 CA         15.0585   -3.8220   -0.3650 C.3       2 GLC5        0.0000 
     15 CA         15.6760   -3.0930   -2.0710 C.3       6 GLL5        0.0000 
     16 CA         14.4410   -4.5510    1.3410 C.3       4 GLP5        0.0000 
     17 CA         14.5895   -7.3095   -5.2850 C.3       2 GLC5        0.0000 
     18 CA         12.9140   -6.1600   -5.7600 C.3       6 GLL5        0.0000 
     19 CA         16.2650   -8.4590   -4.8100 C.3       4 GLP5        0.0000 
     20 CA         13.8740   -7.0000   -7.3070 C.3       2 GLC5        0.0000 
     21 CA         14.8340   -7.8400   -8.8540 C.3       4 GLP5        0.0000 
     22 CA         19.7765   -7.1190   -4.9455 C.3       2 GLC5        0.0000 
     23 CA         19.7380   -5.3620   -3.7660 C.3       6 GLL5        0.0000 
     24 CA         19.8150   -8.8760   -6.1250 C.3       4 GLP5        0.0000 
     25 CA         21.3080   -3.9640   -3.4240 C.3       2 GLC5        0.0000 
     26 CA         22.8780   -2.5660   -3.0820 C.3       4 GLP5        0.0000 
     27 CA         21.5680   -3.6890   -4.6810 C.3       2 GLC5        0.0000 
     28 CA         19.7430   -4.5250   -4.8680 C.3       6 GLL5        0.0000 
     29 CA         23.3930   -2.8530   -4.4940 C.3       4 GLP5        0.0000 
     30 O          21.5060   -5.5730   -5.7745 O.2       1 ALC1        0.0000 
     31 O          20.5910   -4.6930   -5.8990 O.2       5 ALL1        0.0000 
     32 O          22.4210   -6.4530   -5.6500 O.2       3 ALP1        0.0000 
     33 CA         15.7988   -5.9035   -4.7722 C.3       2 GLC5        0.0000 
     34 CA         15.8320   -3.9980   -6.2080 C.3       6 GLL5        0.0000 
     35 CA         16.3880   -7.5820   -3.5590 C.3       4 GLP5        0.0000 
     36 CA         18.7730   -3.7722   -7.5905 C.3       2 GLC5        0.0000 
     37 CA         19.4320   -5.1560   -8.7480 C.3       4 GLP5        0.0000 
     38 CA         19.1710   -1.4715   -4.6025 C.3       2 GLC5        0.0000 
     39 CA         18.7650   -2.5760   -6.1260 C.3       6 GLL5        0.0000 
     40 CA         19.5710    0.0580   -3.6790 C.3       4 GLP5        0.0000 
     41 CA         19.3460   -4.5658   -6.8225 C.3       2 GLC5        0.0000 
     42 CA         18.7770   -3.4260   -4.9260 C.3       6 GLL5        0.0000 
     43 CA         18.7373   -1.7540   -3.5168 C.3       2 GLC5        0.0000 
     44 CA         17.8940   -3.1560   -3.9040 C.3       6 GLL5        0.0000 
     45 CA         16.9150   -5.7250   -2.8928 C.3       2 GLC5        0.0000 
     46 CA         17.9130   -3.9760   -2.8050 C.3       6 GLL5        0.0000 
     47 CA         16.2632   -1.6482   -1.1002 C.3       2 GLC5        0.0000 
     48 CA         16.2030    0.1300   -0.3410 C.3       4 GLP5        0.0000 
     49 CA         17.8430   -6.4030   -3.4025 C.3       2 GLC5        0.0000 
     50 CA         18.8580   -5.0860   -2.7260 C.3       6 GLL5        0.0000 
     51 CA         20.4285   -4.8210   -1.7235 C.3       2 GLC5        0.0000 
     52 CA         21.5590   -4.4180   -0.2010 C.3       4 GLP5        0.0000 
@<TRIPOS>BOND
@<TRIPOS>SUBSTRUCTURE
     1 ALC1        8 GROUP        1 X    ALC  0     ROOT ALC X 1
     2 GLC5        1 GROUP        1 X    GLC  0     **** GLC X 6
     3 ALP1       10 GROUP        1 Y    ALP  0     ROOT ALP Y 8
     4 GLP5        3 GROUP        1 Y    GLP  0     **** GLP Y 13
     5 ALL1        9 GROUP        1 Z    ALL  0     ROOT ALL Z 15
     6 GLL5        2 GROUP        1 Z    GLL  0     **** GLL Z 20
@<TRIPOS>SET

