#    Name: 2brc_CT5_1_ligand
#    Modification time : Mon Mar 24 21:32:06 2014

@<TRIPOS>MOLECULE
2brc_CT5_1_ligand
   46    49     1     0     0
SMALL
NO_CHARGES


@<TRIPOS>ATOM
      1 C15        15.8320   -3.9980   -6.2080 C.ar      1 CT51215     0.0000 
      2 C12        14.5870   -4.4520   -5.7630 C.ar      1 CT51215     0.0000 
      3 O17        14.3010   -5.7910   -5.6770 O.3       1 CT51215     0.0000 
      4 O18        12.3190   -3.9240   -4.9620 O.3       1 CT51215     0.0000 
      5 C16        13.5520   -3.4690   -5.4030 C.ar      1 CT51215     0.0000 
      6 C22        13.8600   -2.1150   -5.5050 C.ar      1 CT51215     0.0000 
      7 C20        15.1210   -1.6830   -5.9400 C.ar      1 CT51215     0.0000 
      8 C8         16.1060   -2.6260   -6.2720 C.ar      1 CT51215     0.0000 
      9 C4         17.4630   -2.2010   -6.7400 C.2       1 CT51215     0.0000 
     10 C1         17.7930   -1.3650   -7.8890 C.2       1 CT51215     0.0000 
     11 C7         16.8980   -0.6970   -8.8830 C.3       1 CT51215     0.0000 
     12 N5         19.1350   -1.3250   -7.8920 N.2       1 CT51215     0.0000 
     13 C2         18.7650   -2.5760   -6.1260 C.2       1 CT51215     0.0000 
     14 N3         19.7220   -2.0590   -6.8290 N.pl3     1 CT51215     0.0000 
     15 C6         18.7770   -3.4260   -4.9260 C.ar      1 CT51215     0.0000 
     16 C10        17.8940   -3.1560   -3.9040 C.ar      1 CT51215     0.0000 
     17 C14        17.9130   -3.9760   -2.8050 C.ar      1 CT51215     0.0000 
     18 C26        16.9710   -3.7600   -1.6480 C.3       1 CT51215     0.0000 
     19 C27        15.6760   -3.0930   -2.0710 C.3       1 CT51215     0.0000 
     20 C13        18.8580   -5.0860   -2.7260 C.ar      1 CT51215     0.0000 
     21 C17        12.9140   -6.1600   -5.7600 C.3       1 CT51215     0.0000 
     22 O25        18.7630   -5.8500   -1.6080 O.3       1 CT51215     0.0000 
     23 C11        19.7380   -5.3620   -3.7660 C.ar      1 CT51215     0.0000 
     24 C18        12.1530   -5.3280   -4.7220 C.3       1 CT51215     0.0000 
     25 C9         19.7430   -4.5250   -4.8680 C.ar      1 CT51215     0.0000 
     26 O24        20.5910   -4.6930   -5.8990 O.3       1 CT51215     0.0000 
     27 H          16.5527   -4.6754   -6.4907 H         1 CT51215     0.0000 
     28 H          13.1449   -1.4081   -5.2551 H         1 CT51215     0.0000 
     29 H          15.3232   -0.6829   -6.0154 H         1 CT51215     0.0000 
     30 H          20.6745   -2.1183   -6.7130 H         1 CT51215     0.0000 
     31 H          17.2474   -2.3702   -3.9653 H         1 CT51215     0.0000 
     32 H          17.4633   -3.1368   -0.8880 H         1 CT51215     0.0000 
     33 H          16.7395   -4.7275   -1.1803 H         1 CT51215     0.0000 
     34 H          12.7602   -7.2088   -5.5273 H         1 CT51215     0.0000 
     35 H          12.4955   -5.9415   -6.7372 H         1 CT51215     0.0000 
     36 H          20.3649   -6.1643   -3.7153 H         1 CT51215     0.0000 
     37 H          11.0939   -5.6239   -4.7701 H         1 CT51215     0.0000 
     38 H          12.5263   -5.6149   -3.7271 H         1 CT51215     0.0000 
     39 H          17.4185   -0.1823   -9.5643 H         1 CT51215     0.0000 
     40 H          16.3370   -1.3583   -9.3809 H         1 CT51215     0.0000 
     41 H          16.2716   -0.0525   -8.4445 H         1 CT51215     0.0000 
     42 H          15.8376   -2.1971   -2.4849 H         1 CT51215     0.0000 
     43 H          15.1783   -3.6410   -2.7433 H         1 CT51215     0.0000 
     44 H          15.0608   -2.9510   -1.2955 H         1 CT51215     0.0000 
     45 H          19.3657   -6.6302   -1.7758 H         1 CT51215     0.0000 
     46 H          21.4432   -5.0115   -5.4838 H         1 CT51215     0.0000 
@<TRIPOS>BOND
     1    2    1 ar   
     2    8    1 ar   
     3   27    1 1    
     4    3    2 1    
     5    5    2 ar   
     6   21    3 1    
     7    5    4 1    
     8   24    4 1    
     9    6    5 ar   
    10    7    6 ar   
    11   28    6 1    
    12    8    7 ar   
    13   29    7 1    
    14    9    8 1    
    15   10    9 1    
    16   13    9 2    
    17   11   10 1    
    18   12   10 2    
    19   39   11 1    
    20   40   11 1    
    21   41   11 1    
    22   14   12 1    
    23   14   13 1    
    24   15   13 1    
    25   30   14 1    
    26   16   15 ar   
    27   25   15 ar   
    28   17   16 ar   
    29   31   16 1    
    30   18   17 1    
    31   20   17 ar   
    32   19   18 1    
    33   32   18 1    
    34   33   18 1    
    35   42   19 1    
    36   43   19 1    
    37   44   19 1    
    38   22   20 1    
    39   23   20 ar   
    40   24   21 1    
    41   34   21 1    
    42   35   21 1    
    43   45   22 1    
    44   25   23 ar   
    45   36   23 1    
    46   37   24 1    
    47   38   24 1    
    48   26   25 1    
    49   46   26 1    
@<TRIPOS>SUBSTRUCTURE
     1 CT51215     1 GROUP   
@<TRIPOS>SET

