#    Name: 4L0T_1_CAVITY_N1_ALL.mol2
#    Modification time : Tue Mar 11 12:36:34 2014

@<TRIPOS>MOLECULE
4L0T_1_CAVITY_N1_ALL.mol2
   73     0     6     0     0
SMALL
NO_CHARGES


@<TRIPOS>ATOM
      1 N           3.6332   38.6997    3.6566 N.2       2 ALA2        0.0000 
      2 N           5.0790   38.4239    3.3673 N.2       2 ALA2        0.0000 
      3 DU          6.5247   38.1480    3.0779 H         6 CUB7        0.0000 
      4 CA          5.4044   36.9748    6.3747 C.3       5 GLY6        0.0000 
      5 CA          6.8501   36.6990    6.0853 C.3       5 GLY6        0.0000 
      6 CA          8.2959   36.4232    5.7960 C.3       5 GLY6        0.0000 
      7 CA          9.7416   36.1474    5.5067 C.3       5 GLY6        0.0000 
      8 N           5.4407   38.1467    5.4391 N.2       2 ALA2        0.0000 
      9 CA          6.8865   37.8709    5.1497 C.3       5 GLY6        0.0000 
     10 DU          8.3322   37.5951    4.8604 H         6 CUB7        0.0000 
     11 CA          9.7780   37.3193    4.5711 C.3       5 GLY6        0.0000 
     12 CA         11.2237   37.0435    4.2818 C.3       5 GLY6        0.0000 
     13 N           5.4770   39.3186    4.5034 N.2       2 ALA2        0.0000 
     14 CZ          6.9228   39.0428    4.2141 C.ar      4 PHE5        0.0000 
     15 CZ          8.3686   38.7670    3.9248 C.ar      4 PHE5        0.0000 
     16 CZ          9.8143   38.4912    3.6355 C.ar      4 PHE5        0.0000 
     17 CZ          5.7661   36.6977    8.4465 C.ar      4 PHE5        0.0000 
     18 CA          7.2119   36.4219    8.1571 C.3       5 GLY6        0.0000 
     19 O           8.6576   36.1461    7.8678 O.2       2 ALA2        0.0000 
     20 CA          4.3567   38.1454    7.8002 C.3       5 GLY6        0.0000 
     21 N           5.8024   37.8696    7.5109 N.2       2 ALA2        0.0000 
     22 CA          7.2482   37.5938    7.2215 C.3       5 GLY6        0.0000 
     23 CA          8.6940   37.3180    6.9322 C.3       5 GLY6        0.0000 
     24 N           5.8388   39.0415    6.5752 N.2       2 ALA2        0.0000 
     25 CZ          7.2845   38.7657    6.2859 C.ar      4 PHE5        0.0000 
     26 CA          8.7303   38.4899    5.9966 C.3       5 GLY6        0.0000 
     27 N           5.8751   40.2134    5.6396 N.2       2 ALA2        0.0000 
     28 OG          4.5367   32.0088   14.5500 O.2       1 SER1        0.0000 
     29 CZ          3.1273   33.4565   13.9037 C.ar      4 PHE5        0.0000 
     30 CZ          4.6821   36.6964   10.8076 C.ar      4 PHE5        0.0000 
     31 CZ          6.1278   36.4206   10.5183 C.ar      4 PHE5        0.0000 
     32 CA          4.7184   37.8683    9.8720 C.3       5 GLY6        0.0000 
     33 CZ          6.1642   37.5925    9.5827 C.ar      4 PHE5        0.0000 
     34 CZ          7.6099   37.3167    9.2933 C.ar      4 PHE5        0.0000 
     35 N           4.7547   39.0402    8.9364 N.2       2 ALA2        0.0000 
     36 N           6.2005   38.7644    8.6470 N.2       2 ALA2        0.0000 
     37 DU          7.6463   38.4886    8.3577 H         6 CUB7        0.0000 
     38 CA          9.0920   38.2127    8.0684 C.3       5 GLY6        0.0000 
     39 N           6.2368   39.9363    7.7114 N.2       2 ALA2        0.0000 
     40 OG          7.6826   39.6604    7.4221 O.2       1 SER1        0.0000 
     41 NZ          4.9348   32.9036   15.6862 N.2       3 LYS4        0.0000 
     42 CZ          3.5254   34.3513   15.0399 C.ar      4 PHE5        0.0000 
     43 OG          4.9711   34.0755   14.7506 O.2       1 SER1        0.0000 
     44 CA          5.0075   35.2474   13.8150 C.3       5 GLY6        0.0000 
     45 CA          5.0438   36.4193   12.8794 C.3       5 GLY6        0.0000 
     46 CZ          6.4896   36.1435   12.5901 C.ar      4 PHE5        0.0000 
     47 CA          5.0801   37.5912   11.9438 C.3       5 GLY6        0.0000 
     48 CZ          6.5259   37.3154   11.6545 C.ar      4 PHE5        0.0000 
     49 CA          5.1165   38.7631   11.0082 C.3       5 GLY6        0.0000 
     50 N           6.5622   38.4872   10.7188 N.2       2 ALA2        0.0000 
     51 N           8.0080   38.2114   10.4295 N.2       2 ALA2        0.0000 
     52 N           5.1528   39.9349   10.0726 N.2       2 ALA2        0.0000 
     53 N           6.5986   39.6591    9.7832 N.2       2 ALA2        0.0000 
     54 N           8.0443   39.3833    9.4939 N.2       2 ALA2        0.0000 
     55 NZ          3.9234   35.2461   16.1761 N.2       3 LYS4        0.0000 
     56 NZ          5.3692   34.9703   15.8868 N.2       3 LYS4        0.0000 
     57 CZ          6.8150   34.6944   15.5975 C.ar      4 PHE5        0.0000 
     58 CA          5.4055   36.1421   14.9512 C.3       5 GLY6        0.0000 
     59 CA          5.4419   37.3140   14.0156 C.3       5 GLY6        0.0000 
     60 CZ          6.8876   37.0382   13.7262 C.ar      4 PHE5        0.0000 
     61 N           5.4782   38.4859   13.0800 N.2       2 ALA2        0.0000 
     62 N           6.9240   38.2101   12.7906 N.2       2 ALA2        0.0000 
     63 N           6.9603   39.3820   11.8550 N.2       2 ALA2        0.0000 
     64 O           5.8036   37.0369   16.0874 O.2       2 ALA2        0.0000 
     65 OG          7.2494   36.7611   15.7980 O.2       1 SER1        0.0000 
     66 N           7.2857   37.9330   14.8624 N.2       2 ALA2        0.0000 
     67 CA          3.1988   36.6330    3.4560 C.3       5 GLY6        0.0000 
     68 CA          4.6446   36.3572    3.1667 C.3       5 GLY6        0.0000 
     69 O           9.3436   35.2526    4.3705 O.2       2 ALA2        0.0000 
     70 N           3.5969   37.5278    4.5922 N.2       2 ALA2        0.0000 
     71 CA          5.0426   37.2520    4.3029 C.3       5 GLY6        0.0000 
     72 CA          6.4884   36.9761    4.0135 C.3       5 GLY6        0.0000 
     73 CA          7.9342   36.7003    3.7242 C.3       5 GLY6        0.0000 
@<TRIPOS>BOND
@<TRIPOS>SUBSTRUCTURE
     1 SER1       28 GROUP   
     2 ALA2        1 GROUP   
     3 LYS4       41 GROUP   
     4 PHE5       14 GROUP   
     5 GLY6        4 GROUP   
     6 CUB7        3 GROUP   
@<TRIPOS>SET

