#    Name: 4l0t_1V0_1_INTS_M
#    Modification time : Mon Apr  7 23:49:17 2014

@<TRIPOS>MOLECULE
4l0t_1V0_1_INTS_M
   51     0     6     0     0
SMALL
NO_CHARGES


@<TRIPOS>ATOM
      1 CA          9.6480   39.1650   13.2665 C.3       2 GLC5        0.0000 
      2 CA          7.6070   38.2660   13.0280 C.3       6 GLL5        0.0000 
      3 CA         11.6890   40.0640   13.5050 C.3       4 GLP5        0.0000 
      4 CA          8.9030   37.2160   12.2355 C.3       2 GLC5        0.0000 
      5 CA         10.1990   36.1660   11.4430 C.3       4 GLP5        0.0000 
      6 N           9.4710   39.4370   14.7950 N.am      1 SEC2        0.0000 
      7 N           8.3480   38.5420   15.1500 N.am      5 SEL2        0.0000 
      8 N          10.5940   40.3320   14.4400 N.am      3 SEP2        0.0000 
      9 N           8.9735   38.4570   16.3505 N.am      1 SEC2        0.0000 
     10 N           9.5990   38.3720   17.5510 N.am      3 SEP2        0.0000 
     11 CA          5.6180   38.2615   16.9525 C.3       2 GLC5        0.0000 
     12 CA          6.5550   36.5910   16.1600 C.3       6 GLL5        0.0000 
     13 CA          4.6810   39.9320   17.7450 C.3       4 GLP5        0.0000 
     14 CA          8.7225   36.6095   16.3165 C.3       2 GLC5        0.0000 
     15 CA         10.8900   36.6280   16.4730 C.3       4 GLP5        0.0000 
     16 CA          4.7615   34.6770   18.1770 C.3       2 GLC5        0.0000 
     17 CA          5.7000   35.5450   16.5120 C.3       6 GLL5        0.0000 
     18 CA          3.8230   33.8090   19.8420 C.3       4 GLP5        0.0000 
     19 CA          6.4050   33.5695   16.3440 C.3       2 GLC5        0.0000 
     20 CA          4.9800   34.7770   15.5660 C.3       6 GLL5        0.0000 
     21 CA          7.8300   32.3620   17.1220 C.3       4 GLP5        0.0000 
     22 CA          4.8930   37.7010   13.0750 C.3       2 GLC5        0.0000 
     23 CA          6.8050   37.5490   12.1350 C.3       6 GLL5        0.0000 
     24 CA          2.9810   37.8530   14.0150 C.3       4 GLP5        0.0000 
     25 CA          7.9785   36.3485   11.9240 C.3       2 GLC5        0.0000 
     26 CA          9.1520   35.1480   11.7130 C.3       4 GLP5        0.0000 
     27 CA          9.4025   39.2115    7.9120 C.3       2 GLC5        0.0000 
     28 CA          7.3330   38.9760    8.7060 C.3       6 GLL5        0.0000 
     29 CA         11.4720   39.4470    7.1180 C.3       4 GLP5        0.0000 
     30 CA          6.8415   39.8503   12.5478 C.3       2 GLC5        0.0000 
     31 CA          6.4770   41.7930   12.5140 C.3       4 GLP5        0.0000 
     32 CA          4.8022   37.3053   14.7540 C.3       2 GLC5        0.0000 
     33 CA          6.6920   36.9240   14.8260 C.3       6 GLL5        0.0000 
     34 CA          6.7168   36.3970   18.0355 C.3       2 GLC5        0.0000 
     35 CA          7.3060   36.7260   19.7350 C.3       4 GLP5        0.0000 
     36 CA          7.0267   34.7430   17.2680 C.3       2 GLC5        0.0000 
     37 CA          7.9260   33.4180   18.2000 C.3       4 GLP5        0.0000 
     38 CA          4.1605   36.5070   15.0270 C.3       2 GLC5        0.0000 
     39 CA          4.2530   36.7542   14.0305 C.3       2 GLC5        0.0000 
     40 CA          5.1000   35.1260   14.2180 C.3       6 GLL5        0.0000 
     41 CA          8.6490   37.2205   10.9230 C.3       2 GLC5        0.0000 
     42 CA          6.7480   37.7590   10.7280 C.3       6 GLL5        0.0000 
     43 CA          8.8663   40.3863    9.5385 C.3       2 GLC5        0.0000 
     44 CA          7.4500   38.7910   10.0780 C.3       6 GLL5        0.0000 
     45 CA         10.3410   41.8890    9.6850 C.3       4 GLP5        0.0000 
     46 CA          6.5985   35.7922    7.4153 C.3       2 GLC5        0.0000 
     47 CA          6.5400   38.1070    7.9630 C.3       6 GLL5        0.0000 
     48 CA          6.9980   33.9990    6.5510 C.3       4 GLP5        0.0000 
     49 CA          4.1115   36.8830    9.2363 C.3       2 GLC5        0.0000 
     50 CA          5.8580   37.0640    8.5960 C.3       6 GLL5        0.0000 
     51 CA          2.3150   36.7880    9.1930 C.3       4 GLP5        0.0000 
@<TRIPOS>BOND
@<TRIPOS>SUBSTRUCTURE
     1 SEC2        6 GROUP        1 X    SEC  0     ROOT SEC X 2
     2 GLC5        1 GROUP        1 X    GLC  0     **** GLC X 6
     3 SEP2        8 GROUP        1 Y    SEP  0     ROOT SEP Y 9
     4 GLP5        3 GROUP        1 Y    GLP  0     **** GLP Y 13
     5 SEL2        7 GROUP        1 Z    SEL  0     ROOT SEL Z 16
     6 GLL5        2 GROUP        1 Z    GLL  0     **** GLL Z 20
@<TRIPOS>SET

