#    Name: 4l0t_1V0_1_ligand
#    Modification time : Mon Apr  7 23:49:17 2014

@<TRIPOS>MOLECULE
4l0t_1V0_1_ligand
   29    31     1     0     0
SMALL
NO_CHARGES


@<TRIPOS>ATOM
      1 CAC         7.6070   38.2660   13.0280 C.2       1 1V01201     0.0000 
      2 CAE         7.5530   37.9680   14.3940 C.2       1 1V01201     0.0000 
      3 OAL         8.3480   38.5420   15.1500 O.2       1 1V01201     0.0000 
      4 CAF         6.6920   36.9240   14.8260 C.ar      1 1V01201     0.0000 
      5 CAQ         6.5550   36.5910   16.1600 C.ar      1 1V01201     0.0000 
      6 CAS         5.7000   35.5450   16.5120 C.ar      1 1V01201     0.0000 
      7 CAT         4.9800   34.7770   15.5660 C.ar      1 1V01201     0.0000 
      8 CAR         5.1000   35.1260   14.2180 C.ar      1 1V01201     0.0000 
      9 CAG         5.9500   36.1850   13.8740 C.ar      1 1V01201     0.0000 
     10 OAD         6.0390   36.5170   12.5650 O.3       1 1V01201     0.0000 
     11 CAA         6.8050   37.5490   12.1350 C.2       1 1V01201     0.0000 
     12 CAI         6.7480   37.7590   10.7280 C.ar      1 1V01201     0.0000 
     13 CAO         7.4500   38.7910   10.0780 C.ar      1 1V01201     0.0000 
     14 CAM         7.3330   38.9760    8.7060 C.ar      1 1V01201     0.0000 
     15 CAH         6.5400   38.1070    7.9630 C.ar      1 1V01201     0.0000 
     16 NAB         6.4430   38.2300    6.6450 N.pl3     1 1V01201     0.0000 
     17 OAK         7.5600   38.4710    5.8970 O.2       1 1V01201     0.0000 
     18 OAJ         5.2990   38.0270    6.0850 O.2       1 1V01201     0.0000 
     19 CAN         5.8580   37.0640    8.5960 C.ar      1 1V01201     0.0000 
     20 CAP         5.9580   36.8920    9.9630 C.ar      1 1V01201     0.0000 
     21 H           8.2280   39.0021   12.6861 H         1 1V01201     0.0000 
     22 H           7.0688   37.0986   16.8828 H         1 1V01201     0.0000 
     23 H           5.5799   35.3106   17.5254 H         1 1V01201     0.0000 
     24 H           4.4030   34.0067   15.8625 H         1 1V01201     0.0000 
     25 H           4.5832   34.6241   13.5028 H         1 1V01201     0.0000 
     26 H           8.0565   39.4132   10.6335 H         1 1V01201     0.0000 
     27 H           7.8265   39.7461    8.2440 H         1 1V01201     0.0000 
     28 H           5.2787   36.4230    8.0329 H         1 1V01201     0.0000 
     29 H           5.4525   36.1251   10.4296 H         1 1V01201     0.0000 
@<TRIPOS>BOND
     1    2    1 1    
     2   11    1 2    
     3   21    1 1    
     4    3    2 2    
     5    4    2 1    
     6    5    4 ar   
     7    9    4 ar   
     8    6    5 ar   
     9   22    5 1    
    10    7    6 ar   
    11   23    6 1    
    12    8    7 ar   
    13   24    7 1    
    14    9    8 ar   
    15   25    8 1    
    16   10    9 1    
    17   11   10 1    
    18   12   11 1    
    19   13   12 ar   
    20   20   12 ar   
    21   14   13 ar   
    22   26   13 1    
    23   15   14 ar   
    24   27   14 1    
    25   16   15 1    
    26   19   15 ar   
    27   17   16 2    
    28   18   16 2    
    29   20   19 ar   
    30   28   19 1    
    31   29   20 1    
@<TRIPOS>SUBSTRUCTURE
     1 1V01201     1 GROUP   
@<TRIPOS>SET

