#    Name: 3kqb_LGJ_1_INTS_M
#    Modification time : Mon Mar 24 20:07:20 2014

@<TRIPOS>MOLECULE
3kqb_LGJ_1_INTS_M
   69     0     9     0     0
SMALL
NO_CHARGES


@<TRIPOS>ATOM
      1 CA         39.1225   29.1480   14.5425 C.3       3 GLC5        0.0000 
      2 CA         38.3830   28.2770   12.7510 C.3       9 GLL5        0.0000 
      3 CA         39.8620   30.0190   16.3340 C.3       6 GLP5        0.0000 
      4 CA         34.3765   36.6520   21.9225 C.3       3 GLC5        0.0000 
      5 CA         34.1500   35.5420   23.5310 C.3       9 GLL5        0.0000 
      6 CA         34.6030   37.7620   20.3140 C.3       6 GLP5        0.0000 
      7 O          36.6725   30.1020   10.9540 O.2       1 ALC1        0.0000 
      8 O          38.0050   29.6770   10.8090 O.2       7 ALL1        0.0000 
      9 O          35.3400   30.5270   11.0990 O.2       4 ALP1        0.0000 
     10 O          40.8680   29.5475    8.9155 O.2       1 ALC1        0.0000 
     11 O          40.0330   29.7040    9.9920 O.2       7 ALL1        0.0000 
     12 O          41.7030   29.3910    7.8390 O.2       4 ALP1        0.0000 
     13 N          37.3225   30.5730    7.7055 N.am      2 SEC2        0.0000 
     14 N          38.3580   30.8980    8.8320 N.am      8 SEL2        0.0000 
     15 N          36.2870   30.2480    6.5790 N.am      5 SEP2        0.0000 
     16 N          37.5160   30.2725   15.7550 N.am      2 SEC2        0.0000 
     17 N          36.4830   29.3160   16.7620 N.am      8 SEL2        0.0000 
     18 N          38.5490   31.2290   14.7480 N.am      5 SEP2        0.0000 
     19 CA         34.6955   35.4675   17.2815 C.3       3 GLC5        0.0000 
     20 CA         34.6310   33.5280   16.6040 C.3       9 GLL5        0.0000 
     21 CA         34.7600   37.4070   17.9590 C.3       6 GLP5        0.0000 
     22 CA         36.7220   33.7675   16.6590 C.3       3 GLC5        0.0000 
     23 CA         38.8130   34.0070   16.7140 C.3       6 GLP5        0.0000 
     24 CA         34.8050   33.7670   14.8180 C.3       3 GLC5        0.0000 
     25 CA         34.9790   34.0060   13.0320 C.3       6 GLP5        0.0000 
     26 CA         31.0720   28.3925   10.9980 C.3       3 GLC5        0.0000 
     27 CA         31.2780   28.1370   12.7110 C.3       9 GLL5        0.0000 
     28 CA         30.8660   28.6480    9.2850 C.3       6 GLP5        0.0000 
     29 CA         32.1800   29.7240   11.9545 C.3       3 GLC5        0.0000 
     30 CA         33.0820   31.3110   11.1980 C.3       6 GLP5        0.0000 
     31 CA         32.1245   23.9570   12.4115 C.3       3 GLC5        0.0000 
     32 CA         32.0090   26.1490   12.8290 C.3       9 GLL5        0.0000 
     33 CA         32.2400   21.7650   11.9940 C.3       6 GLP5        0.0000 
     34 CA         31.4375   27.3985   11.0570 C.3       3 GLC5        0.0000 
     35 CA         33.2455   25.7210   11.4280 C.3       3 GLC5        0.0000 
     36 CA         34.4820   25.2930   10.0270 C.3       6 GLP5        0.0000 
     37 CA         39.6292   34.2770   22.1247 C.3       3 GLC5        0.0000 
     38 CA         38.2440   36.2550   22.3950 C.3       9 GLL5        0.0000 
     39 CA         40.6770   32.5510   22.4160 C.3       6 GLP5        0.0000 
     40 CA         40.7542   26.3540   13.9110 C.3       3 GLC5        0.0000 
     41 CA         38.6930   26.7360   14.6070 C.3       9 GLL5        0.0000 
     42 CA         42.5530   25.6270   13.7710 C.3       6 GLP5        0.0000 
     43 CA         39.1478   33.5795   21.4953 C.3       3 GLC5        0.0000 
     44 CA         38.2750   34.8280   20.4390 C.3       9 GLL5        0.0000 
     45 CA         38.2711   37.0733   20.1641 C.3       3 GLC5        0.0000 
     46 CA         38.1140   38.7310   19.1920 C.3       6 GLP5        0.0000 
     47 CA         38.0143   26.5427   11.8725 C.3       3 GLC5        0.0000 
     48 CA         39.2180   27.4260   13.4950 C.3       9 GLL5        0.0000 
     49 CA         37.2280   25.2340   10.6220 C.3       6 GLP5        0.0000 
     50 CA         39.0061   28.5045   15.4230 C.3       3 GLC5        0.0000 
     51 CA         38.9994   35.9758   23.8396 C.3       3 GLC5        0.0000 
     52 CA         38.9190   35.7510   21.2720 C.3       9 GLL5        0.0000 
     53 CA         40.2380   36.0390   25.4270 C.3       6 GLP5        0.0000 
     54 CA         37.0058   26.6655   12.1433 C.3       3 GLC5        0.0000 
     55 CA         36.5250   27.7630   14.2190 C.3       9 GLL5        0.0000 
     56 CA         37.9742   30.2220   13.2717 C.3       3 GLC5        0.0000 
     57 CA         37.0420   28.4310   13.1100 C.3       9 GLL5        0.0000 
     58 CA         38.2360   32.0900   13.6130 C.3       6 GLP5        0.0000 
     59 CA         35.7173   27.7000   11.9482 C.3       3 GLC5        0.0000 
     60 CA         34.6510   27.3030   10.2320 C.3       6 GLP5        0.0000 
     61 CA         36.5040   25.5016   14.1677 C.3       3 GLC5        0.0000 
     62 CA         35.7360   23.7130   13.8310 C.3       6 GLP5        0.0000 
     63 CA         37.5213   31.2241   18.1402 C.3       3 GLC5        0.0000 
     64 CA         35.2700   31.6520   17.9000 C.3       9 GLL5        0.0000 
     65 CA         39.3210   30.8290   17.5690 C.3       6 GLP5        0.0000 
     66 CA         33.0880   25.2470   13.7047 C.3       3 GLC5        0.0000 
     67 CA         31.8610   27.2770   13.6040 C.3       9 GLL5        0.0000 
     68 CA         34.2410   23.7810   14.1930 C.3       6 GLP5        0.0000 
     69 CA         33.2201   27.1155   11.6126 C.3       3 GLC5        0.0000 
@<TRIPOS>BOND
@<TRIPOS>SUBSTRUCTURE
     1 ALC1        7 GROUP        1 X    ALC  0     ROOT ALC X 1
     2 SEC2       13 GROUP        1 X    SEC  0     **** SEC X 2
     3 GLC5        1 GROUP        1 X    GLC  0     **** GLC X 6
     4 ALP1        9 GROUP        1 Y    ALP  0     ROOT ALP Y 8
     5 SEP2       15 GROUP        1 Y    SEP  0     **** SEP Y 9
     6 GLP5        3 GROUP        1 Y    GLP  0     **** GLP Y 13
     7 ALL1        8 GROUP        1 Z    ALL  0     ROOT ALL Z 15
     8 SEL2       14 GROUP        1 Z    SEL  0     **** SEL Z 16
     9 GLL5        2 GROUP        1 Z    GLL  0     **** GLL Z 20
@<TRIPOS>SET

