#    Name: 3kqb_LGJ_1_ligand
#    Modification time : Mon Mar 24 20:07:20 2014

@<TRIPOS>MOLECULE
3kqb_LGJ_1_ligand
   59    63     1     0     0
SMALL
NO_CHARGES


@<TRIPOS>ATOM
      1 C1         38.9190   35.7510   21.2720 C.ar      1 LGJ301      0.0000 
      2 C2         38.2440   36.2550   22.3950 C.ar      1 LGJ301      0.0000 
      3 C3         38.6930   26.7360   14.6070 C.ar      1 LGJ301      0.0000 
      4 C4         38.2750   34.8280   20.4390 C.ar      1 LGJ301      0.0000 
      5 C5         36.4510   32.0370   19.9900 C.ar      1 LGJ301      0.0000 
      6 C6         39.2180   27.4260   13.4950 C.ar      1 LGJ301      0.0000 
      7 C7         37.3450   26.8990   14.9730 C.ar      1 LGJ301      0.0000 
      8 C8         35.8950   31.1360   19.0560 C.ar      1 LGJ301      0.0000 
      9 C9         36.9400   35.8220   22.6710 C.ar      1 LGJ301      0.0000 
     10 C10        35.7750   33.9240   18.6160 C.ar      1 LGJ301      0.0000 
     11 C11        37.0420   28.4310   13.1100 C.ar      1 LGJ301      0.0000 
     12 C12        33.2470   28.6910   15.2880 C.2       1 LGJ301      0.0000 
     13 C13        36.3820   33.4310   19.7730 C.ar      1 LGJ301      0.0000 
     14 C14        36.9620   34.3880   20.7100 C.ar      1 LGJ301      0.0000 
     15 C15        38.3830   28.2770   12.7510 C.ar      1 LGJ301      0.0000 
     16 C16        36.5250   27.7630   14.2190 C.ar      1 LGJ301      0.0000 
     17 C17        35.2700   31.6520   17.9000 C.ar      1 LGJ301      0.0000 
     18 C18        35.2200   33.0360   17.6950 C.ar      1 LGJ301      0.0000 
     19 C19        36.2820   34.8950   21.8310 C.ar      1 LGJ301      0.0000 
     20 C20        34.6110   28.8150   15.4440 C.2       1 LGJ301      0.0000 
     21 C21        33.1070   27.7780   14.2230 C.2       1 LGJ301      0.0000 
     22 C22        38.8780   28.9660   11.5720 C.2       1 LGJ301      0.0000 
     23 C23        38.7380   30.1840    9.7610 C.2       1 LGJ301      0.0000 
     24 C24        35.3560   29.6420   16.4190 C.2       1 LGJ301      0.0000 
     25 C25        34.1500   35.5420   23.5310 C.3       1 LGJ301      0.0000 
     26 C26        31.8610   27.2770   13.6040 C.3       1 LGJ301      0.0000 
     27 N27        34.2780   27.3450   13.7420 N.2       1 LGJ301      0.0000 
     28 N28        40.0900   28.9300   11.1240 N.2       1 LGJ301      0.0000 
     29 N29        35.1710   27.9790   14.5030 N.pl3     1 LGJ301      0.0000 
     30 N30        38.0050   29.6770   10.8090 N.am      1 LGJ301      0.0000 
     31 N31        40.0330   29.7040    9.9920 N.am      1 LGJ301      0.0000 
     32 N32        34.7260   30.7960   16.9360 N.am      1 LGJ301      0.0000 
     33 O33        38.3580   30.8980    8.8320 O.2       1 LGJ301      0.0000 
     34 O34        36.4830   29.3160   16.7620 O.2       1 LGJ301      0.0000 
     35 O35        33.7780   34.6220   21.0970 O.2       1 LGJ301      0.0000 
     36 O36        34.6910   33.0830   22.8820 O.2       1 LGJ301      0.0000 
     37 F37        34.6310   33.5280   16.6040 F         1 LGJ301      0.0000 
     38 F38        31.2780   28.1370   12.7110 F         1 LGJ301      0.0000 
     39 F39        32.0090   26.1490   12.8290 F         1 LGJ301      0.0000 
     40 F40        30.8880   27.0000   14.5180 F         1 LGJ301      0.0000 
     41 S41        34.6300   34.4100   22.2560 S.o2      1 LGJ301      0.0000 
     42 H          39.8709   36.0557   21.0659 H         1 LGJ301      0.0000 
     43 H          38.7015   36.9332   23.0066 H         1 LGJ301      0.0000 
     44 H          39.2985   26.1126   15.1504 H         1 LGJ301      0.0000 
     45 H          38.7664   34.4594   19.6092 H         1 LGJ301      0.0000 
     46 H          36.9091   31.6765   20.8335 H         1 LGJ301      0.0000 
     47 H          40.1960   27.3070   13.2345 H         1 LGJ301      0.0000 
     48 H          36.9640   26.3993   15.7733 H         1 LGJ301      0.0000 
     49 H          35.9437   30.1362   19.2126 H         1 LGJ301      0.0000 
     50 H          36.4466   36.1836   23.5016 H         1 LGJ301      0.0000 
     51 H          35.7380   34.9335   18.4454 H         1 LGJ301      0.0000 
     52 H          36.4312   29.0433   12.5501 H         1 LGJ301      0.0000 
     53 H          32.5705   29.0997   15.7585 H         1 LGJ301      0.0000 
     54 H          37.0817   29.8028   10.9598 H         1 LGJ301      0.0000 
     55 H          40.7884   29.9029    9.4132 H         1 LGJ301      0.0000 
     56 H          33.7613   31.0282   16.5590 H         1 LGJ301      0.0000 
     57 H          34.7550   35.4851   24.3252 H         1 LGJ301      0.0000 
     58 H          34.1716   36.4900   23.2134 H         1 LGJ301      0.0000 
     59 H          33.2215   35.3630   23.8564 H         1 LGJ301      0.0000 
@<TRIPOS>BOND
     1    2    1 ar   
     2    4    1 ar   
     3   42    1 1    
     4    9    2 ar   
     5   43    2 1    
     6    6    3 ar   
     7    7    3 ar   
     8   44    3 1    
     9   14    4 ar   
    10   45    4 1    
    11    8    5 ar   
    12   13    5 ar   
    13   46    5 1    
    14   15    6 ar   
    15   47    6 1    
    16   16    7 ar   
    17   48    7 1    
    18   17    8 ar   
    19   49    8 1    
    20   19    9 ar   
    21   50    9 1    
    22   13   10 ar   
    23   18   10 ar   
    24   51   10 1    
    25   15   11 ar   
    26   16   11 ar   
    27   52   11 1    
    28   20   12 2    
    29   21   12 1    
    30   53   12 1    
    31   14   13 1    
    32   19   14 ar   
    33   22   15 1    
    34   29   16 1    
    35   18   17 ar   
    36   32   17 1    
    37   37   18 1    
    38   41   19 1    
    39   24   20 1    
    40   29   20 1    
    41   26   21 1    
    42   27   21 2    
    43   28   22 2    
    44   30   22 1    
    45   30   23 am   
    46   31   23 am   
    47   33   23 2    
    48   32   24 am   
    49   34   24 2    
    50   41   25 1    
    51   57   25 1    
    52   58   25 1    
    53   59   25 1    
    54   38   26 1    
    55   39   26 1    
    56   40   26 1    
    57   29   27 1    
    58   31   28 1    
    59   54   30 1    
    60   55   31 1    
    61   56   32 1    
    62   41   35 2    
    63   41   36 2    
@<TRIPOS>SUBSTRUCTURE
     1 LGJ301      1 GROUP   
@<TRIPOS>SET

