#    Name: 3gie_ACP_2_INTS_M
#    Modification time : Tue Mar 25 12:34:52 2014

@<TRIPOS>MOLECULE
3gie_ACP_2_INTS_M
   51     0     9     0     0
SMALL
NO_CHARGES


@<TRIPOS>ATOM
      1 N          29.5580   15.4310   25.7940 N.am      1 SEC2        0.0000 
      2 N          28.4740   16.0410   26.3330 N.am      7 SEL2        0.0000 
      3 N          30.6420   14.8210   25.2550 N.am      4 SEP2        0.0000 
      4 Zn         30.1535   18.8235   25.0100 Zn        2 ZIC7        0.0000 
      5 Zn         29.8710   17.9090   25.3730 Zn        8 ZIL7        0.0000 
      6 Zn         30.4360   19.7380   24.6470 Zn        5 ZIP7        0.0000 
      7 Zn         29.9560   20.0645   25.4930 Zn        2 ZIC7        0.0000 
      8 Zn         29.4760   20.3910   26.3390 Zn        8 ZIL7        0.0000 
      9 Zn         30.9630   19.5175   25.5025 Zn        2 ZIC7        0.0000 
     10 Zn         31.4900   19.2970   26.3580 Zn        8 ZIL7        0.0000 
     11 N          32.3645   17.9625   25.8715 N.am      1 SEC2        0.0000 
     12 N          31.4900   19.2970   26.3580 N.am      7 SEL2        0.0000 
     13 N          33.2390   16.6280   25.3850 N.am      4 SEP2        0.0000 
     14 N          31.4380   16.6730   28.6625 N.am      1 SEC2        0.0000 
     15 N          32.3110   17.7510   28.3310 N.am      7 SEL2        0.0000 
     16 N          30.5650   15.5950   28.9940 N.am      4 SEP2        0.0000 
     17 N          32.7750   17.1895   26.8580 N.am      1 SEC2        0.0000 
     18 CA         29.5745   24.5810   28.9175 C.3       3 GLC5        0.0000 
     19 CA         30.5300   23.5960   30.4830 C.3       9 GLL5        0.0000 
     20 CA         28.6190   25.5660   27.3520 C.3       6 GLP5        0.0000 
     21 CA         33.7260   24.3135   30.4065 C.3       3 GLC5        0.0000 
     22 CA         32.0340   23.7720   30.6300 C.3       9 GLL5        0.0000 
     23 CA         35.4180   24.8550   30.1830 C.3       6 GLP5        0.0000 
     24 CA         32.9025   23.8175   32.3530 C.3       3 GLC5        0.0000 
     25 CA         33.7710   23.8630   34.0760 C.3       6 GLP5        0.0000 
     26 CA         32.3700   28.8670   27.2265 C.3       3 GLC5        0.0000 
     27 CA         33.3960   27.3130   27.5720 C.3       9 GLL5        0.0000 
     28 CA         31.3440   30.4210   26.8810 C.3       6 GLP5        0.0000 
     29 CA         35.5075   27.9425   27.2975 C.3       3 GLC5        0.0000 
     30 CA         37.6190   28.5720   27.0230 C.3       6 GLP5        0.0000 
     31 CA         30.8350   27.4920   28.6265 C.3       3 GLC5        0.0000 
     32 CA         32.4740   28.0820   29.5690 C.3       9 GLL5        0.0000 
     33 CA         29.1960   26.9020   27.6840 C.3       6 GLP5        0.0000 
     34 CA         31.9090   29.2515   28.2250 C.3       3 GLC5        0.0000 
     35 CA         33.6230   28.4455   30.6665 C.3       3 GLC5        0.0000 
     36 CA         34.7720   28.8090   31.7640 C.3       6 GLP5        0.0000 
     37 CA         31.3165   28.1255   30.6815 C.3       3 GLC5        0.0000 
     38 CA         30.1590   28.1690   31.7940 C.3       6 GLP5        0.0000 
     39 N          32.5615   27.1710   31.2390 N.am      1 SEC2        0.0000 
     40 N          32.2890   26.8320   30.0050 N.am      7 SEL2        0.0000 
     41 N          32.8340   27.5100   32.4730 N.am      4 SEP2        0.0000 
     42 CA         33.7095   27.2935   30.5005 C.3       3 GLC5        0.0000 
     43 CA         32.6470   25.7780   29.2370 C.3       9 GLL5        0.0000 
     44 CA         31.4030   26.9735   30.5155 C.3       3 GLC5        0.0000 
     45 CA         32.1880   20.5117   32.0455 C.3       3 GLC5        0.0000 
     46 CA         31.5540   21.4730   30.7380 C.3       9 GLL5        0.0000 
     47 CA         32.5870   20.1970   33.6880 C.3       6 GLP5        0.0000 
     48 CA         30.8595   25.3420   31.6373 C.3       3 GLC5        0.0000 
     49 CA         30.4370   27.0000   32.7180 C.3       6 GLP5        0.0000 
     50 CA         31.0860   26.5606   28.0976 C.3       3 GLC5        0.0000 
     51 CA         33.2140   26.0080   27.9990 C.3       9 GLL5        0.0000 
@<TRIPOS>BOND
@<TRIPOS>SUBSTRUCTURE
     1 SEC2        1 GROUP        1 X    SEC  0     ROOT SEC X 2
     2 ZIC7        4 GROUP        1 X    ZIC  0     **** ZIC X 5
     3 GLC5       18 GROUP        1 X    GLC  0     **** GLC X 6
     4 SEP2        3 GROUP        1 Y    SEP  0     ROOT SEP Y 9
     5 ZIP7        6 GROUP        1 Y    ZIP  0     **** ZIP Y 12
     6 GLP5       20 GROUP        1 Y    GLP  0     **** GLP Y 13
     7 SEL2        2 GROUP        1 Z    SEL  0     ROOT SEL Z 16
     8 ZIL7        5 GROUP        1 Z    ZIL  0     **** ZIL Z 19
     9 GLL5       19 GROUP        1 Z    GLL  0     **** GLL Z 20
@<TRIPOS>SET

