#    Name: 3gie_ACP_2_ligand
#    Modification time : Tue Mar 25 12:34:52 2014

@<TRIPOS>MOLECULE
3gie_ACP_2_ligand
   45    47     1     0     0
SMALL
NO_CHARGES


@<TRIPOS>ATOM
      1 PG         28.4980   17.3210   25.5290 P.3       1 ACP1303     0.0000 
      2 O1G        28.4740   16.0410   26.3330 O.co2     1 ACP1303     0.0000 
      3 O2G        27.6850   17.3230   24.2580 O.co2     1 ACP1303     0.0000 
      4 O3G        29.8710   17.9090   25.3730 O.co2     1 ACP1303     0.0000 
      5 PB         28.7960   19.6090   27.4420 P.3       1 ACP1303     0.0000 
      6 O1B        28.0400   20.3510   28.5130 O.co2     1 ACP1303     0.0000 
      7 O2B        29.4760   20.3910   26.3390 O.co2     1 ACP1303     0.0000 
      8 C3B        27.6580   18.5130   26.5860 C.3       1 ACP1303     0.0000 
      9 PA         31.4740   18.9080   27.8170 P.3       1 ACP1303     0.0000 
     10 O1A        31.4900   19.2970   26.3580 O.co2     1 ACP1303     0.0000 
     11 O2A        32.3110   17.7510   28.3310 O.co2     1 ACP1303     0.0000 
     12 O3A        29.9140   18.6960   28.1740 O.3       1 ACP1303     0.0000 
     13 O5'        31.8350   20.2330   28.6570 O.3       1 ACP1303     0.0000 
     14 C5'        32.0240   20.1800   30.0680 C.3       1 ACP1303     0.0000 
     15 C4'        31.5540   21.4730   30.7380 C.3       1 ACP1303     0.0000 
     16 O4'        32.5940   22.4580   30.7690 O.3       1 ACP1303     0.0000 
     17 C3'        30.3680   22.1520   30.0700 C.3       1 ACP1303     0.0000 
     18 O3'        29.1330   21.6390   30.5680 O.3       1 ACP1303     0.0000 
     19 C2'        30.5300   23.5960   30.4830 C.3       1 ACP1303     0.0000 
     20 O2'        29.8940   23.8050   31.7510 O.3       1 ACP1303     0.0000 
     21 C1'        32.0340   23.7720   30.6300 C.3       1 ACP1303     0.0000 
     22 N9         32.5790   24.4540   29.4230 N.pl3     1 ACP1303     0.0000 
     23 C8         33.0830   23.8600   28.3310 C.2       1 ACP1303     0.0000 
     24 N7         33.4770   24.8090   27.4500 N.2       1 ACP1303     0.0000 
     25 C5         33.2140   26.0080   27.9990 C.ar      1 ACP1303     0.0000 
     26 C6         33.3960   27.3130   27.5720 C.ar      1 ACP1303     0.0000 
     27 N6         33.9430   27.5710   26.3620 N.pl3     1 ACP1303     0.0000 
     28 N1         33.0210   28.3280   28.3750 N.ar      1 ACP1303     0.0000 
     29 C2         32.4740   28.0820   29.5690 C.ar      1 ACP1303     0.0000 
     30 N3         32.2890   26.8320   30.0050 N.ar      1 ACP1303     0.0000 
     31 C4         32.6470   25.7780   29.2370 C.ar      1 ACP1303     0.0000 
     32 H          27.1548   17.9666   27.3160 H         1 ACP1303     0.0000 
     33 H          27.0727   19.1083   25.9633 H         1 ACP1303     0.0000 
     34 H          33.0845   20.0363   30.3325 H         1 ACP1303     0.0000 
     35 H          31.4630   19.3478   30.5239 H         1 ACP1303     0.0000 
     36 H          31.2552   21.2407   31.7685 H         1 ACP1303     0.0000 
     37 H          30.4775   22.0810   29.0269 H         1 ACP1303     0.0000 
     38 H          30.1803   24.2213   29.7221 H         1 ACP1303     0.0000 
     39 H          32.2155   24.3641   31.5020 H         1 ACP1303     0.0000 
     40 H          33.1566   22.9019   28.1885 H         1 ACP1303     0.0000 
     41 H          34.2368   26.7748   25.8331 H         1 ACP1303     0.0000 
     42 H          34.0050   28.5351   26.1037 H         1 ACP1303     0.0000 
     43 H          32.1819   28.8911   30.1806 H         1 ACP1303     0.0000 
     44 H          28.7282   21.1462   29.7977 H         1 ACP1303     0.0000 
     45 H          29.1474   23.1402   31.7786 H         1 ACP1303     0.0000 
@<TRIPOS>BOND
     1    2    1 ar   
     2    3    1 ar   
     3    4    1 ar   
     4    8    1 1    
     5    6    5 ar   
     6    7    5 ar   
     7    8    5 1    
     8   12    5 1    
     9   32    8 1    
    10   33    8 1    
    11   10    9 ar   
    12   11    9 ar   
    13   12    9 1    
    14   13    9 1    
    15   14   13 1    
    16   15   14 1    
    17   34   14 1    
    18   35   14 1    
    19   16   15 1    
    20   17   15 1    
    21   36   15 1    
    22   21   16 1    
    23   18   17 1    
    24   19   17 1    
    25   37   17 1    
    26   44   18 1    
    27   20   19 1    
    28   21   19 1    
    29   38   19 1    
    30   45   20 1    
    31   22   21 1    
    32   39   21 1    
    33   23   22 1    
    34   31   22 1    
    35   24   23 2    
    36   40   23 1    
    37   25   24 1    
    38   26   25 ar   
    39   31   25 ar   
    40   27   26 1    
    41   28   26 ar   
    42   41   27 1    
    43   42   27 1    
    44   29   28 ar   
    45   30   29 ar   
    46   43   29 1    
    47   31   30 ar   
@<TRIPOS>SUBSTRUCTURE
     1 ACP1303     1 GROUP   
@<TRIPOS>SET

