#    Name: 1HSB_1_CAVITY_N1_6.mol2
#    Modification time : Tue Mar 11 05:42:27 2014

@<TRIPOS>MOLECULE
1HSB_1_CAVITY_N1_6.mol2
   90     0     5     0     0
SMALL
NO_CHARGES


@<TRIPOS>ATOM
      1 CA         61.7569   32.5677  107.4601 C.3       4 GLY6        0.0000 
      2 O          62.8368   32.4907  106.4219 O.2       2 ALA2        0.0000 
      3 O          62.4036   31.0973  106.0746 O.2       2 ALA2        0.0000 
      4 O          61.9704   29.7039  105.7272 O.2       2 ALA2        0.0000 
      5 O          61.8902   33.0407  105.3965 O.2       2 ALA2        0.0000 
      6 O          62.9701   32.9637  104.3583 O.2       2 ALA2        0.0000 
      7 CA         61.4570   31.6472  105.0492 C.3       4 GLY6        0.0000 
      8 O          62.5369   31.5703  104.0109 O.2       2 ALA2        0.0000 
      9 CA         58.8640   30.4076  106.7782 C.3       4 GLY6        0.0000 
     10 CA         59.9439   30.3307  105.7400 C.3       4 GLY6        0.0000 
     11 O          61.0237   30.2538  104.7018 O.2       2 ALA2        0.0000 
     12 N          62.1036   30.1769  103.6636 N.2       2 ALA2        0.0000 
     13 CZ         58.4307   29.0142  106.4309 C.ar      3 PHE5        0.0000 
     14 O          59.5106   28.9373  105.3927 O.2       2 ALA2        0.0000 
     15 O          60.5905   28.8603  104.3544 O.2       2 ALA2        0.0000 
     16 CZ         56.9176   27.6977  107.1218 C.ar      3 PHE5        0.0000 
     17 CZ         57.9975   27.6207  106.0835 C.ar      3 PHE5        0.0000 
     18 O          59.0774   27.5438  105.0453 O.2       2 ALA2        0.0000 
     19 DU         57.5643   26.2273  105.7362 H         5 CUB7        0.0000 
     20 O          58.6442   26.1504  104.6980 O.2       2 ALA2        0.0000 
     21 N          58.2110   24.7569  104.3506 N.2       2 ALA2        0.0000 
     22 CA         59.2909   24.6800  103.3124 C.3       4 GLY6        0.0000 
     23 DU         57.7778   23.3635  104.0032 H         5 CUB7        0.0000 
     24 N          58.8577   23.2866  102.9650 N.2       2 ALA2        0.0000 
     25 N          58.4245   21.8931  102.6177 N.2       2 ALA2        0.0000 
     26 CA         60.9435   33.5906  104.3711 C.3       4 GLY6        0.0000 
     27 CZ         62.0234   33.5137  103.3329 C.ar      3 PHE5        0.0000 
     28 CA         59.4304   32.2741  105.0620 C.3       4 GLY6        0.0000 
     29 CA         60.5103   32.1971  104.0238 C.3       4 GLY6        0.0000 
     30 N          61.5902   32.1202  102.9855 N.2       2 ALA2        0.0000 
     31 CZ         58.9972   30.8806  104.7146 C.ar      3 PHE5        0.0000 
     32 DU         60.0771   30.8037  103.6764 H         5 CUB7        0.0000 
     33 N          61.1570   30.7268  102.6382 N.2       2 ALA2        0.0000 
     34 CZ         58.5640   29.4872  104.3673 C.ar      3 PHE5        0.0000 
     35 O          59.6439   29.4103  103.3290 O.2       2 ALA2        0.0000 
     36 N          60.7238   29.3333  102.2908 N.2       2 ALA2        0.0000 
     37 CZ         57.0509   28.1707  105.0581 C.ar      3 PHE5        0.0000 
     38 CZ         58.1308   28.0937  104.0199 C.ar      3 PHE5        0.0000 
     39 O          59.2107   28.0168  102.9817 O.2       2 ALA2        0.0000 
     40 O          60.2906   27.9399  101.9435 O.2       2 ALA2        0.0000 
     41 CZ         55.5378   26.8541  105.7490 C.ar      3 PHE5        0.0000 
     42 DU         56.6177   26.7772  104.7108 H         5 CUB7        0.0000 
     43 DU         57.6976   26.7003  103.6726 H         5 CUB7        0.0000 
     44 CA         58.7775   26.6234  102.6343 C.3       4 GLY6        0.0000 
     45 DU         55.1046   25.4607  105.4016 H         5 CUB7        0.0000 
     46 DU         56.1845   25.3838  104.3634 H         5 CUB7        0.0000 
     47 DU         57.2644   25.3069  103.3252 H         5 CUB7        0.0000 
     48 CA         58.3443   25.2299  102.2870 C.3       4 GLY6        0.0000 
     49 DU         54.6714   24.0673  105.0543 H         5 CUB7        0.0000 
     50 DU         55.7513   23.9903  104.0161 H         5 CUB7        0.0000 
     51 DU         56.8312   23.9134  102.9778 H         5 CUB7        0.0000 
     52 N          57.9111   23.8365  101.9396 N.2       2 ALA2        0.0000 
     53 N          55.3181   22.5969  103.6687 N.2       2 ALA2        0.0000 
     54 N          56.3980   22.5200  102.6305 N.2       2 ALA2        0.0000 
     55 N          57.4779   22.4431  101.5923 N.2       2 ALA2        0.0000 
     56 CA         59.9969   34.1405  103.3457 C.3       4 GLY6        0.0000 
     57 OG         61.0768   34.0636  102.3075 O.2       1 SER1        0.0000 
     58 OG         58.4838   32.8240  104.0366 O.2       1 SER1        0.0000 
     59 OG         59.5637   32.7471  102.9984 O.2       1 SER1        0.0000 
     60 N          60.6435   32.6701  101.9601 N.2       2 ALA2        0.0000 
     61 OG         59.1304   31.3536  102.6510 O.2       1 SER1        0.0000 
     62 N          60.2103   31.2767  101.6128 N.2       2 ALA2        0.0000 
     63 CZ         57.6173   30.0371  103.3419 C.ar      3 PHE5        0.0000 
     64 OG         58.6972   29.9602  102.3036 O.2       1 SER1        0.0000 
     65 N          59.7771   29.8833  101.2654 N.2       2 ALA2        0.0000 
     66 CZ         56.1042   28.7206  104.0327 C.ar      3 PHE5        0.0000 
     67 OG         57.1841   28.6437  102.9945 O.2       1 SER1        0.0000 
     68 OG         58.2640   28.5667  101.9563 O.2       1 SER1        0.0000 
     69 CA         59.3439   28.4898  100.9181 C.3       4 GLY6        0.0000 
     70 N          60.4238   28.4129   99.8798 N.2       2 ALA2        0.0000 
     71 OG         55.6710   27.3271  103.6854 O.2       1 SER1        0.0000 
     72 OG         56.7509   27.2502  102.6472 O.2       1 SER1        0.0000 
     73 OG         57.8308   27.1733  101.6089 O.2       1 SER1        0.0000 
     74 CA         58.9107   27.0964  100.5707 C.3       4 GLY6        0.0000 
     75 CZ         54.1579   26.0106  104.3762 C.ar      3 PHE5        0.0000 
     76 CZ         55.2378   25.9337  103.3380 C.ar      3 PHE5        0.0000 
     77 OG         56.3177   25.8568  102.2998 O.2       1 SER1        0.0000 
     78 OG         57.3976   25.7799  101.2616 O.2       1 SER1        0.0000 
     79 CZ         54.8046   24.5403  102.9907 C.ar      3 PHE5        0.0000 
     80 N          55.8845   24.4633  101.9524 N.2       2 ALA2        0.0000 
     81 OG         56.9644   24.3864  100.9142 O.2       1 SER1        0.0000 
     82 N          54.3714   23.1468  102.6433 N.2       2 ALA2        0.0000 
     83 OG         58.1838   31.9035  101.6256 O.2       1 SER1        0.0000 
     84 OG         57.7506   30.5101  101.2782 O.2       1 SER1        0.0000 
     85 CZ         58.8305   30.4332  100.2400 C.ar      3 PHE5        0.0000 
     86 OG         58.3973   29.0397   99.8927 O.2       1 SER1        0.0000 
     87 CZ         54.7244   27.8771  102.6600 C.ar      3 PHE5        0.0000 
     88 CZ         54.2912   26.4836  102.3126 C.ar      3 PHE5        0.0000 
     89 CZ         53.8580   25.0902  101.9653 C.ar      3 PHE5        0.0000 
     90 N          54.9379   25.0133  100.9270 N.2       2 ALA2        0.0000 
@<TRIPOS>BOND
@<TRIPOS>SUBSTRUCTURE
     1 SER1       57 GROUP   
     2 ALA2        2 GROUP   
     3 PHE5       13 GROUP   
     4 GLY6        1 GROUP   
     5 CUB7       19 GROUP   
@<TRIPOS>SET

