#    Name: 1hsb_ALA_VAL_ALA_1_INTS_M
#    Modification time : Tue Mar 25 05:44:20 2014

@<TRIPOS>MOLECULE
1hsb_ALA_VAL_ALA_1_INTS_M
   47     0     9     0     0
SMALL
NO_CHARGES


@<TRIPOS>ATOM
      1 O          59.5510   33.9880  100.3560 O.2       1 ALC1        0.0000 
      2 O          59.9510   34.4950  101.6470 O.2       7 ALL1        0.0000 
      3 O          59.1510   33.4810   99.0650 O.2       4 ALP1        0.0000 
      4 O          60.8355   35.3965  101.2690 O.2       1 ALC1        0.0000 
      5 O          61.7200   36.2980  100.8910 O.2       4 ALP1        0.0000 
      6 CA         59.2990   33.0405  100.2930 C.3       3 GLC5        0.0000 
      7 CA         60.5640   33.2320  102.0270 C.3       9 GLL5        0.0000 
      8 CA         58.0340   32.8490   98.5590 C.3       6 GLP5        0.0000 
      9 N          57.0585   32.3330  102.9155 N.am      2 SEC2        0.0000 
     10 N          58.3770   32.5570  102.6840 N.am      8 SEL2        0.0000 
     11 N          55.7400   32.1090  103.1470 N.am      5 SEP2        0.0000 
     12 CA         61.1660   34.9590  104.3515 C.3       3 GLC5        0.0000 
     13 CA         61.2210   33.3360  103.4040 C.3       9 GLL5        0.0000 
     14 CA         61.1110   36.5820  105.2990 C.3       6 GLP5        0.0000 
     15 O          60.9945   30.9380  100.8845 O.2       1 ALC1        0.0000 
     16 O          59.5690   31.0880  101.4470 O.2       7 ALL1        0.0000 
     17 O          62.4200   30.7880  100.3220 O.2       4 ALP1        0.0000 
     18 CA         58.6190   30.7730   98.1915 C.3       3 GLC5        0.0000 
     19 CA         59.1260   29.4650   98.9820 C.3       9 GLL5        0.0000 
     20 CA         58.1120   32.0810   97.4010 C.3       6 GLP5        0.0000 
     21 CA         60.3305   29.4555   97.6980 C.3       3 GLC5        0.0000 
     22 CA         61.5350   29.4460   96.4140 C.3       6 GLP5        0.0000 
     23 CA         62.3185   28.3120  100.4335 C.3       3 GLC5        0.0000 
     24 CA         60.4470   28.4880  100.8330 C.3       9 GLL5        0.0000 
     25 CA         64.1900   28.1360  100.0340 C.3       6 GLP5        0.0000 
     26 O          56.3405   28.7805  101.5225 O.2       1 ALC1        0.0000 
     27 O          57.0530   28.6990  102.7750 O.2       7 ALL1        0.0000 
     28 O          55.6280   28.8620  100.2700 O.2       4 ALP1        0.0000 
     29 CA         56.4455   29.6110  104.6575 C.3       3 GLC5        0.0000 
     30 CA         56.6010   27.9530  103.9410 C.3       9 GLL5        0.0000 
     31 CA         56.2900   31.2690  105.3740 C.3       6 GLP5        0.0000 
     32 CA         53.3680   26.9310  103.4125 C.3       3 GLC5        0.0000 
     33 CA         55.1810   27.4560  103.7610 C.3       9 GLL5        0.0000 
     34 CA         51.5550   26.4060  103.0640 C.3       6 GLP5        0.0000 
     35 CA         54.6020   29.3785  104.1570 C.3       3 GLC5        0.0000 
     36 CA         54.0230   31.3010  104.5530 C.3       6 GLP5        0.0000 
     37 CA         62.7818   33.9895  101.9892 C.3       3 GLC5        0.0000 
     38 CA         64.6710   34.6950  101.2630 C.3       6 GLP5        0.0000 
     39 CA         58.4333   31.1630   99.7217 C.3       3 GLC5        0.0000 
     40 CA         58.5920   30.0100  101.3770 C.3       9 GLL5        0.0000 
     41 CA         60.4790   26.9930  101.1167 C.3       3 GLC5        0.0000 
     42 CA         59.0730   28.9440  100.3920 C.3       9 GLL5        0.0000 
     43 CA         61.1980   25.2700  101.6210 C.3       6 GLP5        0.0000 
     44 CA         60.0091   27.6856   98.6900 C.3       3 GLC5        0.0000 
     45 CA         60.2450   26.5250   97.1200 C.3       6 GLP5        0.0000 
     46 CA         55.0780   28.3912  102.0580 C.3       3 GLC5        0.0000 
     47 CA         54.2650   29.0780  100.2650 C.3       6 GLP5        0.0000 
@<TRIPOS>BOND
@<TRIPOS>SUBSTRUCTURE
     1 ALC1        1 GROUP        1 X    ALC  0     ROOT ALC X 1
     2 SEC2        9 GROUP        1 X    SEC  0     **** SEC X 2
     3 GLC5        6 GROUP        1 X    GLC  0     **** GLC X 6
     4 ALP1        3 GROUP        1 Y    ALP  0     ROOT ALP Y 8
     5 SEP2       11 GROUP        1 Y    SEP  0     **** SEP Y 9
     6 GLP5        8 GROUP        1 Y    GLP  0     **** GLP Y 13
     7 ALL1        2 GROUP        1 Z    ALL  0     ROOT ALL Z 15
     8 SEL2       10 GROUP        1 Z    SEL  0     **** SEL Z 16
     9 GLL5        7 GROUP        1 Z    GLL  0     **** GLL Z 20
@<TRIPOS>SET

