#    Name: 1hsb_ALA_VAL_ALA_1_ligand
#    Modification time : Tue Mar 25 05:44:20 2014

@<TRIPOS>MOLECULE
1hsb_ALA_VAL_ALA_1_ligand
   39    38     3     0     0
SMALL
NO_CHARGES


@<TRIPOS>ATOM
      1 N          59.9510   34.4950  101.6470 N.4       1 ALA1        0.0000
      2 CA         60.5640   33.2320  102.0270 C.3       1 ALA1        0.0000
      3 C          59.4170   32.2170  102.1140 C.2       1 ALA1        0.0000
      4 O          58.3770   32.5570  102.6840 O.2       1 ALA1        0.0000
      5 CB         61.2210   33.3360  103.4040 C.3       1 ALA1        0.0000
      6 HA         61.2600   32.8971  101.3137 H         1 ALA1        0.0000
      7 H          60.6281   35.2261  101.5631 H         1 ALA1        0.0000
      8 H          59.4800   34.4294  100.7673 H         1 ALA1        0.0000
      9 H          59.2753   34.7971  102.3195 H         1 ALA1        0.0000
     10 HB1        61.6443   32.4730  103.6797 H         1 ALA1        0.0000
     11 HB2        61.9379   34.0329  103.4218 H         1 ALA1        0.0000
     12 HB3        60.5595   33.5779  104.1138 H         1 ALA1        0.0000
     13 N          59.5690   31.0880  101.4470 N.am      2 VAL2        0.0000
     14 CA         58.5920   30.0100  101.3770 C.3       2 VAL2        0.0000
     15 C          58.2350   29.2970  102.6780 C.2       2 VAL2        0.0000
     16 O          59.0500   29.2870  103.5900 O.2       2 VAL2        0.0000
     17 CB         59.0730   28.9440  100.3920 C.3       2 VAL2        0.0000
     18 CG1        59.1260   29.4650   98.9820 C.3       2 VAL2        0.0000
     19 CG2        60.4470   28.4880  100.8330 C.3       2 VAL2        0.0000
     20 HNCA       60.4650   30.8983  100.8951 H         2 VAL2        0.0000
     21 HA         57.6415   30.3917  100.9449 H         2 VAL2        0.0000
     22 HB         58.4010   28.1024  100.4462 H         2 VAL2        0.0000
     23 H          59.7509   30.2409   98.8960 H         2 VAL2        0.0000
     24 H          59.4373   28.7653   98.3390 H         2 VAL2        0.0000
     25 H          58.2290   29.7747   98.6665 H         2 VAL2        0.0000
     26 HG21       60.8192   27.7877  100.2238 H         2 VAL2        0.0000
     27 HG22       61.1024   29.2432  100.8464 H         2 VAL2        0.0000
     28 HG23       60.4310   28.0974  101.7534 H         2 VAL2        0.0000
     29 N          57.0530   28.6990  102.7750 N.am      3 ALA3        0.0000
     30 CA         56.6010   27.9530  103.9410 C.3       3 ALA3        0.0000
     31 C          57.4510   26.7210  104.2210 C.2       3 ALA3        0.0000
     32 O          57.9450   26.0780  103.2890 O.2       3 ALA3        0.0000
     33 CB         55.1810   27.4560  103.7610 C.3       3 ALA3        0.0000
     34 H          56.3550   28.7377  101.9774 H         3 ALA3        0.0000
     35 HA         56.6178   28.5724  104.8327 H         3 ALA3        0.0000
     36 H          57.5403   26.5255  105.2413 H         3 ALA3        0.0000
     37 HB1        55.0964   26.8526  102.9681 H         3 ALA3        0.0000
     38 HB2        54.8644   26.9401  104.5570 H         3 ALA3        0.0000
     39 HB3        54.5380   28.2098  103.6256 H         3 ALA3        0.0000
@<TRIPOS>BOND
     1    2    1 1
     2    7    1 1
     3    8    1 1
     4    9    1 1
     5    3    2 1
     6    5    2 1
     7    6    2 1
     8    4    3 2
     9   10    5 1
    10   11    5 1
    11   12    5 1
    12   14   13 1
    13   20   13 1
    14   15   14 1
    15   17   14 1
    16   21   14 1
    17   16   15 2
    18   18   17 1
    19   19   17 1
    20   22   17 1
    21   23   18 1
    22   24   18 1
    23   25   18 1
    24   26   19 1
    25   27   19 1
    26   28   19 1
    27   30   29 1
    28   34   29 1
    29   31   30 1
    30   33   30 1
    31   35   30 1
    32   32   31 2
    33   36   31 1
    34   37   33 1
    35   38   33 1
    36   39   33 1
    37   13    3 am
    38   29   15 am
@<TRIPOS>SUBSTRUCTURE
     1 ALA1        1 RESIDUE
     2 VAL2       13 RESIDUE
     3 ALA3       29 RESIDUE
@<TRIPOS>SET

