#    Name: 4jv8_1M1_1_INTS_M
#    Modification time : Tue Mar 25 06:33:07 2014

@<TRIPOS>MOLECULE
4jv8_1M1_1_INTS_M
   61     0     6     0     0
SMALL
NO_CHARGES


@<TRIPOS>ATOM
      1 CA         24.9370  -11.9045  -14.0140 C.3       2 GLC5        0.0000 
      2 CA         24.2050  -11.2500  -15.8690 C.3       6 GLL5        0.0000 
      3 CA         25.6690  -12.5590  -12.1590 C.3       4 GLP5        0.0000 
      4 CA         25.6710  -12.0810  -15.8845 C.3       2 GLC5        0.0000 
      5 CA         27.1370  -12.9120  -15.9000 C.3       4 GLP5        0.0000 
      6 CA         24.2075   -8.3705  -17.3655 C.3       2 GLC5        0.0000 
      7 CA         24.6170   -8.9640  -15.2950 C.3       6 GLL5        0.0000 
      8 CA         23.7980   -7.7770  -19.4360 C.3       4 GLP5        0.0000 
      9 CA         26.0300   -5.9410  -14.5500 C.3       2 GLC5        0.0000 
     10 CA         25.3790   -7.8380  -14.6190 C.3       6 GLL5        0.0000 
     11 CA         26.6810   -4.0440  -14.4810 C.3       4 GLP5        0.0000 
     12 CA         25.0890   -5.4240  -13.8270 C.3       2 GLC5        0.0000 
     13 CA         23.4970   -6.8040  -13.1730 C.3       6 GLL5        0.0000 
     14 CA         23.9685   -5.2115  -15.3845 C.3       2 GLC5        0.0000 
     15 CA         22.6650   -6.1290  -14.1280 C.3       6 GLL5        0.0000 
     16 CA         25.2720   -4.2940  -16.6410 C.3       4 GLP5        0.0000 
     17 N          24.2070   -7.1800   -9.8055 N.am      1 SEC2        0.0000 
     18 N          24.1780   -7.5840  -11.1960 N.am      5 SEL2        0.0000 
     19 N          24.2360   -6.7760   -8.4150 N.am      3 SEP2        0.0000 
     20 N          25.5085   -6.6160  -10.8770 N.am      1 SEC2        0.0000 
     21 N          26.8390   -5.6480  -10.5580 N.am      3 SEP2        0.0000 
     22 CA         24.9230   -9.3145   -9.5400 C.3       2 GLC5        0.0000 
     23 CA         26.6660   -9.1790  -10.6840 C.3       6 GLL5        0.0000 
     24 CA         23.1800   -9.4500   -8.3960 C.3       4 GLP5        0.0000 
     25 CA         30.9230  -10.4645  -11.4820 C.3       2 GLC5        0.0000 
     26 CA         28.8330   -9.8350  -11.7230 C.3       6 GLL5        0.0000 
     27 CA         33.0130  -11.0940  -11.2410 C.3       4 GLP5        0.0000 
     28 CA         29.6100   -7.5045  -12.3145 C.3       2 GLC5        0.0000 
     29 CA         28.4190   -9.3060  -12.9210 C.3       6 GLL5        0.0000 
     30 CA         30.8010   -5.7030  -11.7080 C.3       4 GLP5        0.0000 
     31 CA         21.3405  -10.2447  -17.6095 C.3       2 GLC5        0.0000 
     32 CA         23.0890  -10.8660  -16.4890 C.3       6 GLL5        0.0000 
     33 CA         19.7540  -10.2920  -18.7370 C.3       4 GLP5        0.0000 
     34 CA         21.5183   -9.9863  -15.1336 C.3       2 GLC5        0.0000 
     35 CA         19.9260  -10.0210  -13.9200 C.3       4 GLP5        0.0000 
     36 CA         23.4543   -8.8643  -17.8916 C.3       2 GLC5        0.0000 
     37 CA         22.7650   -9.5290  -16.4750 C.3       6 GLL5        0.0000 
     38 CA         24.0030  -11.1494  -17.9727 C.3       2 GLC5        0.0000 
     39 CA         24.4400  -11.5750  -19.7700 C.3       4 GLP5        0.0000 
     40 CA         20.7443   -5.9730  -10.0247 C.3       2 GLC5        0.0000 
     41 CA         21.1960   -5.6070  -12.2620 C.3       6 GLL5        0.0000 
     42 CA         19.8710   -5.9980   -8.2480 C.3       4 GLP5        0.0000 
     43 CA         21.3927   -8.2700  -11.5145 C.3       2 GLC5        0.0000 
     44 CA         22.0390   -6.2890  -11.3410 C.3       6 GLL5        0.0000 
     45 CA         20.1770   -9.9380  -11.4220 C.3       4 GLP5        0.0000 
     46 CA         22.8942   -8.0260  -10.0015 C.3       2 GLC5        0.0000 
     47 CA         27.1120  -10.0885   -8.7010 C.3       2 GLC5        0.0000 
     48 CA         26.9160  -10.7140   -6.7530 C.3       4 GLP5        0.0000 
     49 CA         28.9578  -11.4655  -10.5008 C.3       2 GLC5        0.0000 
     50 CA         27.9500   -9.7470  -10.6140 C.3       6 GLL5        0.0000 
     51 CA         29.5240  -13.1400   -9.8330 C.3       4 GLP5        0.0000 
     52 CA         26.1195  -10.6887  -10.7679 C.3       2 GLC5        0.0000 
     53 CA         25.0290  -12.0350  -10.5660 C.3       4 GLP5        0.0000 
     54 CA         29.6517   -8.0965  -10.7673 C.3       2 GLC5        0.0000 
     55 CA         30.9120   -6.4020  -10.3660 C.3       4 GLP5        0.0000 
     56 CA         29.0185  -11.0503  -13.7070 C.3       2 GLC5        0.0000 
     57 CA         29.4110  -12.5300  -15.0920 C.3       4 GLP5        0.0000 
     58 CA         28.3840   -9.0467  -14.9957 C.3       2 GLC5        0.0000 
     59 CA         28.9800   -9.0950  -17.0160 C.3       4 GLP5        0.0000 
     60 CA         26.7803  -10.8449  -12.4175 C.3       2 GLC5        0.0000 
     61 CA         27.1570   -8.6910  -13.0300 C.3       6 GLL5        0.0000 
@<TRIPOS>BOND
@<TRIPOS>SUBSTRUCTURE
     1 SEC2       17 GROUP        1 X    SEC  0     ROOT SEC X 2
     2 GLC5        1 GROUP        1 X    GLC  0     **** GLC X 6
     3 SEP2       19 GROUP        1 Y    SEP  0     ROOT SEP Y 9
     4 GLP5        3 GROUP        1 Y    GLP  0     **** GLP Y 13
     5 SEL2       18 GROUP        1 Z    SEL  0     ROOT SEL Z 16
     6 GLL5        2 GROUP        1 Z    GLL  0     **** GLL Z 20
@<TRIPOS>SET

