#    Name: 4jv8_1M1_1_ligand
#    Modification time : Tue Mar 25 06:33:07 2014

@<TRIPOS>MOLECULE
4jv8_1M1_1_ligand
   37    41     1     0     0
SMALL
NO_CHARGES


@<TRIPOS>ATOM
      1 CAS        23.4990   -8.5450  -15.9360 C.ar      1 1M1201      0.0000 
      2 CAT        22.7650   -9.5290  -16.4750 C.ar      1 1M1201      0.0000 
      3 CAU        23.0890  -10.8660  -16.4890 C.ar      1 1M1201      0.0000 
      4 CAV        24.2050  -11.2500  -15.8690 C.ar      1 1M1201      0.0000 
      5 NAW        24.9670  -10.2790  -15.2320 N.ar      1 1M1201      0.0000 
      6 CAR        24.6170   -8.9640  -15.2950 C.ar      1 1M1201      0.0000 
      7 CAQ        25.3790   -7.8380  -14.6190 C.3       1 1M1201      0.0000 
      8 NAE        24.7030   -7.4720  -13.3480 N.pl3     1 1M1201      0.0000 
      9 CAD        23.4970   -6.8040  -13.1730 C.ar      1 1M1201      0.0000 
     10 CAI        22.6650   -6.1290  -14.1280 C.ar      1 1M1201      0.0000 
     11 CAH        21.5000   -5.5560  -13.6380 C.ar      1 1M1201      0.0000 
     12 CAG        21.1960   -5.6070  -12.2620 C.ar      1 1M1201      0.0000 
     13 CAF        22.0390   -6.2890  -11.3410 C.ar      1 1M1201      0.0000 
     14 CAC        23.1780   -6.9150  -11.8730 C.ar      1 1M1201      0.0000 
     15 NAB        24.1780   -7.5840  -11.1960 N.2       1 1M1201      0.0000 
     16 CAA        25.0420   -8.0120  -12.1240 C.2       1 1M1201      0.0000 
     17 CAJ        26.2740   -8.6970  -11.9670 C.ar      1 1M1201      0.0000 
     18 CAK        26.6660   -9.1790  -10.6840 C.ar      1 1M1201      0.0000 
     19 CAL        27.9500   -9.7470  -10.6140 C.ar      1 1M1201      0.0000 
     20 CAM        28.8330   -9.8350  -11.7230 C.ar      1 1M1201      0.0000 
     21 CAN        28.4190   -9.3060  -12.9210 C.ar      1 1M1201      0.0000 
     22 CAO        27.1570   -8.6910  -13.0300 C.ar      1 1M1201      0.0000 
     23 NAP        26.7920   -8.1530  -14.3180 N.pl3     1 1M1201      0.0000 
     24 H          23.2469   -7.5733  -15.9982 H         1 1M1201      0.0000 
     25 H          21.8293   -9.2609  -16.9456 H         1 1M1201      0.0000 
     26 H          22.4741  -11.5350  -16.9700 H         1 1M1201      0.0000 
     27 H          24.5145  -12.2275  -15.8480 H         1 1M1201      0.0000 
     28 H          25.3422   -6.9601  -15.2761 H         1 1M1201      0.0000 
     29 H          22.9302   -6.0866  -15.0879 H         1 1M1201      0.0000 
     30 H          20.8437   -5.0859  -14.2785 H         1 1M1201      0.0000 
     31 H          20.3467   -5.1423  -11.9108 H         1 1M1201      0.0000 
     32 H          21.8241   -6.3161  -10.3676 H         1 1M1201      0.0000 
     33 H          26.0665   -9.1136   -9.8999 H         1 1M1201      0.0000 
     34 H          28.2792  -10.1280   -9.6960 H         1 1M1201      0.0000 
     35 H          29.7362  -10.2788  -11.6114 H         1 1M1201      0.0000 
     36 H          29.0245   -9.3518  -13.7543 H         1 1M1201      0.0000 
     37 H          27.4895   -7.9860  -15.0241 H         1 1M1201      0.0000 
@<TRIPOS>BOND
     1    2    1 ar   
     2    6    1 ar   
     3   24    1 1    
     4    3    2 ar   
     5   25    2 1    
     6    4    3 ar   
     7   26    3 1    
     8    5    4 ar   
     9   27    4 1    
    10    6    5 ar   
    11    7    6 1    
    12    8    7 1    
    13   23    7 1    
    14   28    7 1    
    15    9    8 1    
    16   16    8 1    
    17   10    9 ar   
    18   14    9 ar   
    19   11   10 ar   
    20   29   10 1    
    21   12   11 ar   
    22   30   11 1    
    23   13   12 ar   
    24   31   12 1    
    25   14   13 ar   
    26   32   13 1    
    27   15   14 1    
    28   16   15 2    
    29   17   16 1    
    30   18   17 ar   
    31   22   17 ar   
    32   19   18 ar   
    33   33   18 1    
    34   20   19 ar   
    35   34   19 1    
    36   21   20 ar   
    37   35   20 1    
    38   22   21 ar   
    39   36   21 1    
    40   23   22 1    
    41   37   23 1    
@<TRIPOS>SUBSTRUCTURE
     1 1M1201      1 GROUP   
@<TRIPOS>SET

