#    Name: 3fjl_CJH_2_INTS_M
#    Modification time : Tue Mar 25 05:38:26 2014

@<TRIPOS>MOLECULE
3fjl_CJH_2_INTS_M
   65     0     6     0     0
SMALL
NO_CHARGES


@<TRIPOS>ATOM
      1 CA         11.1560  -28.4665   -5.5545 C.3       2 GLC5        0.0000 
      2 CA         11.9860  -29.5500   -4.2320 C.3       6 GLL5        0.0000 
      3 CA         10.3260  -27.3830   -6.8770 C.3       4 GLP5        0.0000 
      4 CA          6.8890  -31.4710   -3.7695 C.3       2 GLC5        0.0000 
      5 CA          8.3110  -31.7740   -2.2690 C.3       6 GLL5        0.0000 
      6 CA          5.4670  -31.1680   -5.2700 C.3       4 GLP5        0.0000 
      7 CA          8.6395  -31.0750    2.3080 C.3       2 GLC5        0.0000 
      8 CA          9.3240  -31.5570    0.3690 C.3       6 GLL5        0.0000 
      9 CA          7.9550  -30.5930    4.2470 C.3       4 GLP5        0.0000 
     10 CA          2.2145  -40.9000   -4.8820 C.3       2 GLC5        0.0000 
     11 CA          2.2070  -39.2410   -3.7180 C.3       6 GLL5        0.0000 
     12 CA          2.2220  -42.5590   -6.0460 C.3       4 GLP5        0.0000 
     13 CA          1.5145  -37.4770   -3.1445 C.3       2 GLC5        0.0000 
     14 CA          0.8220  -35.7130   -2.5710 C.3       4 GLP5        0.0000 
     15 CA          2.0755  -38.5130    0.5230 C.3       2 GLC5        0.0000 
     16 CA          2.7240  -39.3170   -1.2200 C.3       6 GLL5        0.0000 
     17 CA          1.4270  -37.7090    2.2660 C.3       4 GLP5        0.0000 
     18 CA          3.7740  -40.9090   -0.9170 C.3       2 GLC5        0.0000 
     19 CA          1.8640  -40.5670   -1.0320 C.3       6 GLL5        0.0000 
     20 CA          5.6840  -41.2510   -0.8020 C.3       4 GLP5        0.0000 
     21 CA          0.9590  -42.1050   -1.9655 C.3       2 GLC5        0.0000 
     22 CA          0.0540  -43.6430   -2.8990 C.3       4 GLP5        0.0000 
     23 CA          1.6230  -39.8020    0.8055 C.3       2 GLC5        0.0000 
     24 CA          1.3820  -39.0370    2.6430 C.3       4 GLP5        0.0000 
     25 CA          1.3595  -38.4060   -1.0785 C.3       2 GLC5        0.0000 
     26 CA          0.8550  -36.2450   -1.1250 C.3       4 GLP5        0.0000 
     27 CA          0.7525  -41.5090    0.2710 C.3       2 GLC5        0.0000 
     28 CA         -0.3590  -42.4510    1.5740 C.3       4 GLP5        0.0000 
     29 O           2.8215  -39.3615    0.9960 O.2       1 ALC1        0.0000 
     30 O           3.3600  -38.7810   -0.1490 O.2       5 ALL1        0.0000 
     31 O           2.2830  -39.9420    2.1410 O.2       3 ALP1        0.0000 
     32 CA          9.9955  -28.5410   -3.7167 C.3       2 GLC5        0.0000 
     33 CA         11.2920  -30.2260   -3.0190 C.3       6 GLL5        0.0000 
     34 CA          8.3520  -27.1940   -3.8080 C.3       4 GLP5        0.0000 
     35 CA         12.5690  -30.1115   -2.1408 C.3       2 GLC5        0.0000 
     36 CA         13.4990  -30.3350   -0.6560 C.3       4 GLP5        0.0000 
     37 CA         10.2865  -30.2745    1.3453 C.3       2 GLC5        0.0000 
     38 CA          9.8220  -30.7410   -0.6380 C.3       6 GLL5        0.0000 
     39 CA         11.0000  -29.4000    2.8250 C.3       4 GLP5        0.0000 
     40 CA          8.1535  -34.4767   -0.4425 C.3       2 GLC5        0.0000 
     41 CA          8.3140  -32.4640    0.0370 C.3       6 GLL5        0.0000 
     42 CA          8.2710  -36.4450   -0.2770 C.3       4 GLP5        0.0000 
     43 CA          8.1692  -30.1897    0.1481 C.3       2 GLC5        0.0000 
     44 CA          7.3950  -28.5730    0.3450 C.3       4 GLP5        0.0000 
     45 CA          7.3991  -30.3111   -1.2859 C.3       2 GLC5        0.0000 
     46 CA          9.3180  -30.8490   -1.9400 C.3       6 GLL5        0.0000 
     47 CA          6.5120  -28.6900   -0.8930 C.3       4 GLP5        0.0000 
     48 CA          7.5457  -35.2045   -1.1522 C.3       2 GLC5        0.0000 
     49 CA          6.8170  -34.3430   -2.6210 C.3       6 GLL5        0.0000 
     50 CA          7.0375  -34.8192   -4.3717 C.3       2 GLC5        0.0000 
     51 CA          7.6840  -34.7450   -6.0440 C.3       4 GLP5        0.0000 
     52 CA          5.3734  -33.5885   -3.5634 C.3       2 GLC5        0.0000 
     53 CA          5.9650  -35.4440   -2.7780 C.3       6 GLL5        0.0000 
     54 CA          4.3540  -32.4730   -4.7240 C.3       4 GLP5        0.0000 
     55 CA          6.9108  -36.0410   -1.2610 C.3       2 GLC5        0.0000 
     56 CA          6.9310  -35.4935   -0.3605 C.3       2 GLC5        0.0000 
     57 CA          5.1720  -35.0940   -0.5180 C.3       6 GLL5        0.0000 
     58 CA          4.4070  -33.3160    0.5140 C.3       2 GLC5        0.0000 
     59 CA          6.0100  -33.9900   -0.3700 C.3       6 GLL5        0.0000 
     60 CA          3.2230  -32.0900    1.4720 C.3       4 GLP5        0.0000 
     61 CA          3.2590  -34.8590   -1.8800 C.3       2 GLC5        0.0000 
     62 CA          1.3640  -34.2560   -2.6450 C.3       4 GLP5        0.0000 
     63 CA          4.2438  -40.1230   -1.3563 C.3       2 GLC5        0.0000 
     64 CA          2.8830  -38.6730   -2.6010 C.3       6 GLL5        0.0000 
     65 CA          1.8293  -37.6200   -1.5177 C.3       2 GLC5        0.0000 
@<TRIPOS>BOND
@<TRIPOS>SUBSTRUCTURE
     1 ALC1       29 GROUP        1 X    ALC  0     ROOT ALC X 1
     2 GLC5        1 GROUP        1 X    GLC  0     **** GLC X 6
     3 ALP1       31 GROUP        1 Y    ALP  0     ROOT ALP Y 8
     4 GLP5        3 GROUP        1 Y    GLP  0     **** GLP Y 13
     5 ALL1       30 GROUP        1 Z    ALL  0     ROOT ALL Z 15
     6 GLL5        2 GROUP        1 Z    GLL  0     **** GLL Z 20
@<TRIPOS>SET

