#    Name: 3fjl_CJH_2_ligand
#    Modification time : Tue Mar 25 05:38:26 2014

@<TRIPOS>MOLECULE
3fjl_CJH_2_ligand
   42    43     1     0     0
SMALL
NO_CHARGES


@<TRIPOS>ATOM
      1 CAA        11.9860  -29.5500   -4.2320 C.3       1 CJH399      0.0000 
      2 CAO        11.2920  -30.2260   -3.0190 C.3       1 CJH399      0.0000 
      3 OAQ         9.8220  -30.0510   -2.9160 O.3       1 CJH399      0.0000 
      4 CAV         9.3180  -30.8490   -1.9400 C.ar      1 CJH399      0.0000 
      5 CAN         8.3110  -31.7740   -2.2690 C.ar      1 CJH399      0.0000 
      6 CAH         9.8220  -30.7410   -0.6380 C.ar      1 CJH399      0.0000 
      7 CAG         9.3240  -31.5570    0.3690 C.ar      1 CJH399      0.0000 
      8 CAK         8.3140  -32.4640    0.0370 C.ar      1 CJH399      0.0000 
      9 CAX         7.7580  -32.5530   -1.2530 C.ar      1 CJH399      0.0000 
     10 CAW         6.8240  -33.5850   -1.4340 C.ar      1 CJH399      0.0000 
     11 CAM         6.8170  -34.3430   -2.6210 C.ar      1 CJH399      0.0000 
     12 CAJ         5.9650  -35.4440   -2.7780 C.ar      1 CJH399      0.0000 
     13 CAL         6.0100  -33.9900   -0.3700 C.ar      1 CJH399      0.0000 
     14 CAI         5.1720  -35.0940   -0.5180 C.ar      1 CJH399      0.0000 
     15 CAU         5.1360  -35.8300   -1.7120 C.ar      1 CJH399      0.0000 
     16 NAP         4.3250  -36.9050   -1.7540 N.am      1 CJH399      0.0000 
     17 CAS         3.7510  -37.4200   -2.8320 C.2       1 CJH399      0.0000 
     18 OAD         3.8440  -36.9220   -3.9510 O.2       1 CJH399      0.0000 
     19 CAT         2.8830  -38.6730   -2.6010 C.2       1 CJH399      0.0000 
     20 CAF         2.2070  -39.2410   -3.7180 C.1       1 CJH399      0.0000 
     21 NAC         1.6640  -39.6990   -4.6030 N.1       1 CJH399      0.0000 
     22 CAR         2.7240  -39.3170   -1.2200 C.2       1 CJH399      0.0000 
     23 CAB         1.8640  -40.5670   -1.0320 C.3       1 CJH399      0.0000 
     24 OAE         3.3600  -38.7810   -0.1490 O.3       1 CJH399      0.0000 
     25 H          11.7876  -29.8416   -2.0959 H         1 CJH399      0.0000 
     26 H          11.5454  -31.3123   -3.0541 H         1 CJH399      0.0000 
     27 H           7.9960  -31.8689   -3.2304 H         1 CJH399      0.0000 
     28 H          10.5599  -30.0567   -0.4333 H         1 CJH399      0.0000 
     29 H           9.6789  -31.4999    1.3161 H         1 CJH399      0.0000 
     30 H           7.9522  -33.1074    0.7774 H         1 CJH399      0.0000 
     31 H           7.4546  -34.0791   -3.3901 H         1 CJH399      0.0000 
     32 H           5.9458  -35.9609   -3.6566 H         1 CJH399      0.0000 
     33 H           6.0318  -33.4739    0.5157 H         1 CJH399      0.0000 
     34 H           4.5613  -35.3803    0.2679 H         1 CJH399      0.0000 
     35 H           4.1257  -37.3955   -0.7996 H         1 CJH399      0.0000 
     36 H          12.9733  -29.7087   -4.2308 H         1 CJH399      0.0000 
     37 H          11.6345  -29.8967   -5.1016 H         1 CJH399      0.0000 
     38 H          11.8483  -28.5595   -4.2341 H         1 CJH399      0.0000 
     39 H           2.1950  -41.3320   -1.5844 H         1 CJH399      0.0000 
     40 H           1.8578  -40.8738   -0.0803 H         1 CJH399      0.0000 
     41 H           0.9125  -40.4061   -1.2943 H         1 CJH399      0.0000 
     42 H           2.9428  -39.2207    0.6464 H         1 CJH399      0.0000 
@<TRIPOS>BOND
     1    2    1 1    
     2   36    1 1    
     3   37    1 1    
     4   38    1 1    
     5    3    2 1    
     6   25    2 1    
     7   26    2 1    
     8    4    3 1    
     9    5    4 ar   
    10    6    4 ar   
    11    9    5 ar   
    12   27    5 1    
    13    7    6 ar   
    14   28    6 1    
    15    8    7 ar   
    16   29    7 1    
    17    9    8 ar   
    18   30    8 1    
    19   10    9 1    
    20   11   10 ar   
    21   13   10 ar   
    22   12   11 ar   
    23   31   11 1    
    24   15   12 ar   
    25   32   12 1    
    26   14   13 ar   
    27   33   13 1    
    28   15   14 ar   
    29   34   14 1    
    30   16   15 1    
    31   17   16 am   
    32   35   16 1    
    33   18   17 2    
    34   19   17 1    
    35   20   19 1    
    36   22   19 2    
    37   21   20 3    
    38   23   22 1    
    39   24   22 1    
    40   39   23 1    
    41   40   23 1    
    42   41   23 1    
    43   42   24 1    
@<TRIPOS>SUBSTRUCTURE
     1 CJH399      1 GROUP   
@<TRIPOS>SET

