#    Name: 3coy_53H_1_INTS_M
#    Modification time : Mon Mar 24 22:07:13 2014

@<TRIPOS>MOLECULE
3coy_53H_1_INTS_M
   91     0     9     0     0
SMALL
NO_CHARGES


@<TRIPOS>ATOM
      1 CA         13.1275   11.2955   -4.9830 C.3       3 GLC5        0.0000 
      2 CA         12.9040    9.1740   -4.7500 C.3       9 GLL5        0.0000 
      3 CA         13.3510   13.4170   -5.2160 C.3       6 GLP5        0.0000 
      4 CA         11.3145    9.5480   -3.5380 C.3       3 GLC5        0.0000 
      5 CA          9.7250    9.9220   -2.3260 C.3       6 GLP5        0.0000 
      6 CA         12.3100    7.8465   -3.3110 C.3       3 GLC5        0.0000 
      7 CA         11.7160    6.5190   -1.8720 C.3       6 GLP5        0.0000 
      8 CA         14.5355    8.0495   -4.1610 C.3       3 GLC5        0.0000 
      9 CA         16.1670    6.9250   -3.5720 C.3       6 GLP5        0.0000 
     10 CA         13.2660    8.0900   -6.2355 C.3       3 GLC5        0.0000 
     11 CA         13.6280    7.0060   -7.7210 C.3       6 GLP5        0.0000 
     12 CA         12.3425   10.3885   -6.4575 C.3       3 GLC5        0.0000 
     13 CA         11.7810   11.6030   -8.1650 C.3       6 GLP5        0.0000 
     14 CA         16.6300   11.2035    7.0450 C.3       3 GLC5        0.0000 
     15 CA         15.9780    9.3600    6.6230 C.3       9 GLL5        0.0000 
     16 CA         17.2820   13.0470    7.4670 C.3       6 GLP5        0.0000 
     17 CA         11.8840    9.9205   -2.5885 C.3       3 GLC5        0.0000 
     18 CA         14.0430    9.9190   -2.8510 C.3       9 GLL5        0.0000 
     19 CA         12.8795    8.2190   -2.3615 C.3       3 GLC5        0.0000 
     20 CA         15.1050    8.4220   -3.2115 C.3       3 GLC5        0.0000 
     21 CA         14.3115    8.6440   -6.3615 C.3       3 GLC5        0.0000 
     22 CA         14.9950   10.2820   -5.0020 C.3       9 GLL5        0.0000 
     23 CA         14.0895   11.0420   -6.8175 C.3       3 GLC5        0.0000 
     24 CA         13.1840   11.8020   -8.6330 C.3       6 GLP5        0.0000 
     25 N          13.7860    9.5135   -6.9235 N.am      2 SEC2        0.0000 
     26 N          13.8950    9.6540   -5.5200 N.am      8 SEL2        0.0000 
     27 N          13.6770    9.3730   -8.3270 N.am      5 SEP2        0.0000 
     28 N          15.4405    7.4815    4.0790 N.am      2 SEC2        0.0000 
     29 N          15.9810    8.9220    4.2910 N.am      8 SEL2        0.0000 
     30 N          14.9000    6.0410    3.8670 N.am      5 SEP2        0.0000 
     31 N          13.9320    6.0750    0.8355 N.am      2 SEC2        0.0000 
     32 N          14.3440    7.4730    0.0010 N.am      8 SEL2        0.0000 
     33 N          13.5200    4.6770    1.6700 N.am      5 SEP2        0.0000 
     34 N          12.7720    7.0670   -0.2425 N.am      2 SEC2        0.0000 
     35 N          11.2000    6.6610   -0.4860 N.am      5 SEP2        0.0000 
     36 O          15.6970    7.3890    0.1115 O.2       1 ALC1        0.0000 
     37 O          14.3440    7.4730    0.0010 O.2       7 ALL1        0.0000 
     38 O          17.0500    7.3050    0.2220 O.2       4 ALP1        0.0000 
     39 CA         11.8710    9.3165    6.9820 C.3       3 GLC5        0.0000 
     40 CA         13.6750    8.3350    6.6490 C.3       9 GLL5        0.0000 
     41 CA         10.0670   10.2980    7.3150 C.3       6 GLP5        0.0000 
     42 CA         12.6565    7.2795    8.2465 C.3       3 GLC5        0.0000 
     43 CA         11.6380    6.2240    9.8440 C.3       6 GLP5        0.0000 
     44 CA         12.3965    7.3005    6.1275 C.3       3 GLC5        0.0000 
     45 CA         11.1180    6.2660    5.6060 C.3       6 GLP5        0.0000 
     46 CA         15.1385    6.6115    8.8455 C.3       3 GLC5        0.0000 
     47 CA         14.8150    8.7990    8.7460 C.3       9 GLL5        0.0000 
     48 CA         15.4620    4.4240    8.9450 C.3       6 GLP5        0.0000 
     49 CA         14.5995    8.6365   10.6470 C.3       3 GLC5        0.0000 
     50 CA         14.3840    8.4740   12.5480 C.3       6 GLP5        0.0000 
     51 CA         13.2265    7.5115    9.2950 C.3       3 GLC5        0.0000 
     52 CA         11.9925   10.4800    7.3730 C.3       3 GLC5        0.0000 
     53 CA         13.9180   10.6620    7.4310 C.3       9 GLL5        0.0000 
     54 CA         13.3255   12.2005    6.4850 C.3       3 GLC5        0.0000 
     55 CA         12.7330   13.7390    5.5390 C.3       6 GLP5        0.0000 
     56 CA         15.6000   11.8545    7.4490 C.3       3 GLC5        0.0000 
     57 O          17.8135    8.3980    7.8640 O.2       1 ALC1        0.0000 
     58 O          16.7390    8.0470    6.8430 O.2       7 ALL1        0.0000 
     59 O          18.8880    8.7490    8.8850 O.2       4 ALP1        0.0000 
     60 O          16.4500    6.8405    6.2645 O.2       1 ALC1        0.0000 
     61 O          16.1610    5.6340    5.6860 O.2       4 ALP1        0.0000 
     62 N          15.4070   13.8170    4.8165 N.am      2 SEC2        0.0000 
     63 N          15.8100   13.1830    3.5890 N.am      8 SEL2        0.0000 
     64 N          15.0040   14.4510    6.0440 N.am      5 SEP2        0.0000 
     65 N          15.6680   13.7260    2.0825 N.am      2 SEC2        0.0000 
     66 N          15.5260   14.2690    0.5760 N.am      5 SEP2        0.0000 
     67 CA         13.1975   12.5235    4.1130 C.3       3 GLC5        0.0000 
     68 CA         13.6620   11.3080    2.6870 C.3       9 GLL5        0.0000 
     69 N          11.8230    7.3510    0.6635 N.am      2 SEC2        0.0000 
     70 N          12.4460    8.0410    1.8130 N.am      8 SEL2        0.0000 
     71 O          11.5675    8.5685    2.7295 O.2       1 ALC1        0.0000 
     72 O          12.4460    8.0410    1.8130 O.2       7 ALL1        0.0000 
     73 O          10.6890    9.0960    3.6460 O.2       4 ALP1        0.0000 
     74 CA         13.8435   11.9120    0.0105 C.3       3 GLC5        0.0000 
     75 CA         13.5160    9.7630   -0.4270 C.3       9 GLL5        0.0000 
     76 CA         14.1710   14.0610    0.4480 C.3       6 GLP5        0.0000 
     77 CA         11.5865    9.8245   -0.1315 C.3       3 GLC5        0.0000 
     78 CA          9.6570    9.8860    0.1640 C.3       6 GLP5        0.0000 
     79 O          16.0270   10.7025   -7.3490 O.2       1 ALC1        0.0000 
     80 O          15.9960   10.7380   -5.8040 O.2       7 ALL1        0.0000 
     81 O          16.0580   10.6670   -8.8940 O.2       4 ALP1        0.0000 
     82 O          17.2555   11.1650   -5.4825 O.2       1 ALC1        0.0000 
     83 O          18.5150   11.5920   -5.1610 O.2       4 ALP1        0.0000 
     84 CA         16.1212    9.0170   -4.3245 C.3       3 GLC5        0.0000 
     85 CA         15.0840   10.4280   -3.6300 C.3       9 GLL5        0.0000 
     86 CA         17.2030    7.6790   -4.3330 C.3       6 GLP5        0.0000 
     87 CA         14.0651   11.8224   -4.6686 C.3       3 GLC5        0.0000 
     88 CA         13.7372   12.4540    1.3272 C.3       3 GLC5        0.0000 
     89 CA         12.9450   10.3860    1.7260 C.3       9 GLL5        0.0000 
     90 CA         11.4425    9.7830    0.9627 C.3       3 GLC5        0.0000 
     91 CA         12.8082    7.9055   -0.9183 C.3       3 GLC5        0.0000 
@<TRIPOS>BOND
@<TRIPOS>SUBSTRUCTURE
     1 ALC1       36 GROUP        1 X    ALC  0     ROOT ALC X 1
     2 SEC2       25 GROUP        1 X    SEC  0     **** SEC X 2
     3 GLC5        1 GROUP        1 X    GLC  0     **** GLC X 6
     4 ALP1       38 GROUP        1 Y    ALP  0     ROOT ALP Y 8
     5 SEP2       27 GROUP        1 Y    SEP  0     **** SEP Y 9
     6 GLP5        3 GROUP        1 Y    GLP  0     **** GLP Y 13
     7 ALL1       37 GROUP        1 Z    ALL  0     ROOT ALL Z 15
     8 SEL2       26 GROUP        1 Z    SEL  0     **** SEL Z 16
     9 GLL5        2 GROUP        1 Z    GLL  0     **** GLL Z 20
@<TRIPOS>SET

