#    Name: 3coy_53H_1_ligand
#    Modification time : Mon Mar 24 22:07:13 2014

@<TRIPOS>MOLECULE
3coy_53H_1_ligand
   57    59     1     0     0
SMALL
NO_CHARGES


@<TRIPOS>ATOM
      1 C1         15.9780    9.7850    5.1690 C.2       1 53H301      0.0000 
      2 C2         12.9040    9.1740   -4.7500 C.ar      1 53H301      0.0000 
      3 C3         15.9780    9.3600    6.6230 C.3       1 53H301      0.0000 
      4 C4         14.0430    9.9190   -2.8510 C.ar      1 53H301      0.0000 
      5 C5         15.0840   10.4280   -3.6300 C.ar      1 53H301      0.0000 
      6 C6         14.9950   10.2820   -5.0020 C.ar      1 53H301      0.0000 
      7 C7         14.6110    9.3010    7.3270 C.3       1 53H301      0.0000 
      8 N1         13.8950    9.6540   -5.5200 N.ar      1 53H301      0.0000 
      9 N2         16.0410   11.1200    4.9100 N.pl3     1 53H301      0.0000 
     10 O1         15.9810    8.9220    4.2910 O.2       1 53H301      0.0000 
     11 C8         15.5520   10.8080   -1.5320 C.2       1 53H301      0.0000 
     12 O2         14.3440    7.4730    0.0010 O.3       1 53H301      0.0000 
     13 N3         12.9630    9.2950   -3.4200 N.ar      1 53H301      0.0000 
     14 C9         13.6750    8.3350    6.6490 C.3       1 53H301      0.0000 
     15 C10        14.8150    8.7990    8.7460 C.3       1 53H301      0.0000 
     16 C11        13.9180   10.6620    7.4310 C.3       1 53H301      0.0000 
     17 N4         16.7390    8.0470    6.8430 N.4       1 53H301      0.0000 
     18 S1         16.1190   11.7770    3.5160 S.o2      1 53H301      0.0000 
     19 O1A        17.3970   11.5100    2.9350 O.2       1 53H301      0.0000 
     20 O2A        15.8100   13.1830    3.5890 O.2       1 53H301      0.0000 
     21 O5         15.0660   11.1550    2.4350 O.3       1 53H301      0.0000 
     22 C25        13.6620   11.3080    2.6870 C.3       1 53H301      0.0000 
     23 C24        12.9450   10.3860    1.7260 C.3       1 53H301      0.0000 
     24 C23        13.5110    8.9740    1.7970 C.3       1 53H301      0.0000 
     25 O3         12.4460    8.0410    1.8130 O.3       1 53H301      0.0000 
     26 C22        14.2850    8.8210    0.4980 C.3       1 53H301      0.0000 
     27 C21        13.5160    9.7630   -0.4270 C.3       1 53H301      0.0000 
     28 O4         13.1860   10.8710    0.3920 O.3       1 53H301      0.0000 
     29 N9         14.3640   10.1590   -1.5780 N.pl3     1 53H301      0.0000 
     30 N7         16.0070   10.9830   -2.8040 N.2       1 53H301      0.0000 
     31 N6         15.9960   10.7380   -5.8040 N.pl3     1 53H301      0.0000 
     32 H          12.0822    8.7030   -5.1971 H         1 53H301      0.0000 
     33 H          16.5806   10.1383    7.1926 H         1 53H301      0.0000 
     34 H          16.0404   11.8310    5.6925 H         1 53H301      0.0000 
     35 H          16.0053   11.1003   -0.7319 H         1 53H301      0.0000 
     36 H          13.3298   12.3237    2.5025 H         1 53H301      0.0000 
     37 H          13.4026   11.0194    3.6997 H         1 53H301      0.0000 
     38 H          11.9105   10.3643    1.9473 H         1 53H301      0.0000 
     39 H          14.1673    8.9027    2.6034 H         1 53H301      0.0000 
     40 H          15.2570    9.2623    0.6509 H         1 53H301      0.0000 
     41 H          12.6417    9.2459   -0.7573 H         1 53H301      0.0000 
     42 H          15.8590   10.6221   -6.7878 H         1 53H301      0.0000 
     43 H          16.7801   11.1486   -5.3387 H         1 53H301      0.0000 
     44 H          13.5024    8.5908    5.6978 H         1 53H301      0.0000 
     45 H          14.0431    7.4053    6.6403 H         1 53H301      0.0000 
     46 H          12.7872    8.2944    7.1074 H         1 53H301      0.0000 
     47 H          15.2232    7.8862    8.7620 H         1 53H301      0.0000 
     48 H          15.4196    9.3996    9.2691 H         1 53H301      0.0000 
     49 H          13.9518    8.7429    9.2478 H         1 53H301      0.0000 
     50 H          14.4680   11.3205    7.9447 H         1 53H301      0.0000 
     51 H          13.7476   11.0618    6.5304 H         1 53H301      0.0000 
     52 H          13.0341   10.5943    7.8937 H         1 53H301      0.0000 
     53 H          16.6922    7.4518    6.0409 H         1 53H301      0.0000 
     54 H          17.7077    8.2066    7.0335 H         1 53H301      0.0000 
     55 H          16.3701    7.5287    7.6146 H         1 53H301      0.0000 
     56 H          15.3117    7.2243    0.0420 H         1 53H301      0.0000 
     57 H          11.8136    8.3822    2.5085 H         1 53H301      0.0000 
@<TRIPOS>BOND
     1    3    1 1    
     2    9    1 am   
     3   10    1 2    
     4    8    2 ar   
     5   13    2 ar   
     6   32    2 1    
     7    7    3 1    
     8   17    3 1    
     9   33    3 1    
    10    5    4 ar   
    11   13    4 ar   
    12   29    4 1    
    13    6    5 ar   
    14   30    5 1    
    15    8    6 ar   
    16   31    6 1    
    17   14    7 1    
    18   15    7 1    
    19   16    7 1    
    20   18    9 1    
    21   34    9 1    
    22   29   11 1    
    23   30   11 2    
    24   35   11 1    
    25   26   12 1    
    26   56   12 1    
    27   44   14 1    
    28   45   14 1    
    29   46   14 1    
    30   47   15 1    
    31   48   15 1    
    32   49   15 1    
    33   50   16 1    
    34   51   16 1    
    35   52   16 1    
    36   53   17 1    
    37   54   17 1    
    38   55   17 1    
    39   19   18 2    
    40   20   18 2    
    41   21   18 1    
    42   22   21 1    
    43   23   22 1    
    44   36   22 1    
    45   37   22 1    
    46   24   23 1    
    47   28   23 1    
    48   38   23 1    
    49   25   24 1    
    50   26   24 1    
    51   39   24 1    
    52   57   25 1    
    53   27   26 1    
    54   40   26 1    
    55   28   27 1    
    56   29   27 1    
    57   41   27 1    
    58   42   31 1    
    59   43   31 1    
@<TRIPOS>SUBSTRUCTURE
     1 53H301      1 GROUP   
@<TRIPOS>SET

