#    Name: 4e5y_NDP_4_INTS_M
#    Modification time : Tue Mar 25 10:41:41 2014

@<TRIPOS>MOLECULE
4e5y_NDP_4_INTS_M
   88     0    12     0     0
SMALL
NO_CHARGES


@<TRIPOS>ATOM
      1 NZ         -2.5565    6.5220  -25.9965 N.4       3 LYC4        0.0000 
      2 NZ         -3.8310    5.8430  -25.5130 N.4      11 LYL4        0.0000 
      3 NZ         -0.1210    7.2690  -25.8340 N.4       7 LYP4        0.0000 
      4 N          -2.5565    6.5220  -25.9965 N.am      2 SEC2        0.0000 
      5 N          -3.8310    5.8430  -25.5130 N.am     10 SEL2        0.0000 
      6 N          -1.2820    7.2010  -26.4800 N.am      6 SEP2        0.0000 
      7 NZ         -1.4855    6.7245  -23.9075 N.4       3 LYC4        0.0000 
      8 NZ         -2.8590    5.9370  -23.2890 N.4      11 LYL4        0.0000 
      9 N          -2.3720    6.0435  -22.0535 N.am      2 SEC2        0.0000 
     10 N          -2.8590    5.9370  -23.2890 N.am     10 SEL2        0.0000 
     11 N          -1.8850    6.1500  -20.8180 N.am      6 SEP2        0.0000 
     12 N          -1.4855    6.7245  -23.9075 N.am      2 SEC2        0.0000 
     13 N          -0.1120    7.5120  -24.5260 N.am      6 SEP2        0.0000 
     14 CA         -5.8885    0.3820  -23.7640 C.3       4 GLC5        0.0000 
     15 CA         -4.0240    1.4680  -24.1030 C.3      12 GLL5        0.0000 
     16 CA         -7.7530   -0.7040  -23.4250 C.3       8 GLP5        0.0000 
     17 O          -0.7915    0.3385  -23.2630 O.2       1 ALC1        0.0000 
     18 O          -1.9130    0.5030  -23.3960 O.2       9 ALL1        0.0000 
     19 O           0.3300    0.1740  -23.1300 O.2       5 ALP1        0.0000 
     20 CA         -4.1760   -0.7710  -23.3035 C.3       4 GLC5        0.0000 
     21 CA         -3.9710   -0.5100  -25.2360 C.3      12 GLL5        0.0000 
     22 CA         -4.3810   -1.0320  -21.3710 C.3       8 GLP5        0.0000 
     23 CA         -5.6680   -1.3200  -24.4835 C.3       4 GLC5        0.0000 
     24 CA         -7.3650   -2.1300  -23.7310 C.3       8 GLP5        0.0000 
     25 CA         -3.6210   -4.9570  -27.6710 C.3       4 GLC5        0.0000 
     26 CA         -5.3270   -3.8920  -28.4510 C.3      12 GLL5        0.0000 
     27 CA         -1.9150   -6.0220  -26.8910 C.3       8 GLP5        0.0000 
     28 CA         -6.5925   -5.2500  -27.3700 C.3       4 GLC5        0.0000 
     29 CA         -7.8580   -6.6080  -26.2890 C.3       8 GLP5        0.0000 
     30 O          -5.7675   -5.6530  -30.2935 O.2       1 ALC1        0.0000 
     31 O          -5.8090   -4.1720  -29.6630 O.2       9 ALL1        0.0000 
     32 O          -5.7260   -7.1340  -30.9240 O.2       5 ALP1        0.0000 
     33 N          -5.6380   -6.2635  -27.7310 N.am      2 SEC2        0.0000 
     34 N          -5.0310   -4.8690  -27.6250 N.am     10 SEL2        0.0000 
     35 N          -6.2450   -7.6580  -27.8370 N.am      6 SEP2        0.0000 
     36 CA         -3.2425   -5.3335  -26.6615 C.3       4 GLC5        0.0000 
     37 CA         -4.5700   -4.6450  -26.4320 C.3      12 GLL5        0.0000 
     38 CA         -5.7780   -5.1285  -25.2625 C.3       4 GLC5        0.0000 
     39 CA         -6.9860   -5.6120  -24.0930 C.3       8 GLP5        0.0000 
     40 CA         -5.9690   -2.2540  -25.1995 C.3       4 GLC5        0.0000 
     41 CA         -4.5730   -2.3780  -26.6680 C.3      12 GLL5        0.0000 
     42 N          -4.2885    6.0720  -19.8155 N.am      2 SEC2        0.0000 
     43 N          -4.9690    5.7330  -21.1350 N.am     10 SEL2        0.0000 
     44 N          -3.6080    6.4110  -18.4960 N.am      6 SEP2        0.0000 
     45 CA         -7.0055    5.8405  -19.7605 C.3       4 GLC5        0.0000 
     46 CA         -7.5550    4.8550  -21.2840 C.3      12 GLL5        0.0000 
     47 CA         -6.4560    6.8260  -18.2370 C.3       8 GLP5        0.0000 
     48 CA         -7.5040    3.0440  -20.3005 C.3       4 GLC5        0.0000 
     49 CA         -7.4530    1.2330  -19.3170 C.3       8 GLP5        0.0000 
     50 CA         -8.8710    2.6435  -20.6320 C.3       4 GLC5        0.0000 
     51 CA         -9.0370    4.6160  -21.2730 C.3      12 GLL5        0.0000 
     52 CA         -8.7050    0.6710  -19.9910 C.3       8 GLP5        0.0000 
     53 CA        -10.3010    4.8975  -19.7545 C.3       4 GLC5        0.0000 
     54 CA        -11.5650    5.1790  -18.2360 C.3       8 GLP5        0.0000 
     55 CA         -9.8545    3.3460  -24.3110 C.3       4 GLC5        0.0000 
     56 CA         -9.5660    4.5070  -22.6610 C.3      12 GLL5        0.0000 
     57 CA        -10.1430    2.1850  -25.9610 C.3       8 GLP5        0.0000 
     58 N         -11.8625    3.4050  -23.1905 N.am      2 SEC2        0.0000 
     59 N         -10.6090    3.5700  -22.6240 N.am     10 SEL2        0.0000 
     60 N         -13.1160    3.2400  -23.7570 N.am      6 SEP2        0.0000 
     61 O          -9.6245    2.5915  -22.4045 O.2       1 ALC1        0.0000 
     62 O         -10.6090    3.5700  -22.6240 O.2       9 ALL1        0.0000 
     63 O          -8.6400    1.6130  -22.1850 O.2       5 ALP1        0.0000 
     64 N         -12.1020    4.5105  -23.8330 N.am      2 SEC2        0.0000 
     65 N         -11.0880    5.7810  -23.9090 N.am     10 SEL2        0.0000 
     66 CA        -11.0925    5.7420  -19.9190 C.3       4 GLC5        0.0000 
     67 CA        -10.6200    6.3050  -21.6020 C.3      12 GLL5        0.0000 
     68 CA        -11.6555    6.7235  -19.5755 C.3       4 GLC5        0.0000 
     69 CA        -11.7460    8.2680  -20.9150 C.3      12 GLL5        0.0000 
     70 N           0.4015   -2.0750  -24.9105 N.am      2 SEC2        0.0000 
     71 N           0.1240   -1.8350  -26.3990 N.am     10 SEL2        0.0000 
     72 N           0.6790   -2.3150  -23.4220 N.am      6 SEP2        0.0000 
     73 N          -0.3460   -3.1815  -25.8235 N.am      2 SEC2        0.0000 
     74 N          -0.8160   -4.5280  -25.2480 N.am      6 SEP2        0.0000 
     75 CA         -3.8415    0.1390  -22.8180 C.3       4 GLC5        0.0000 
     76 CA         -2.3348    2.7996  -23.0123 C.3       4 GLC5        0.0000 
     77 CA         -1.2750    3.9480  -21.6310 C.3       8 GLP5        0.0000 
     78 CA         -7.2285   -3.0455  -27.9785 C.3       4 GLC5        0.0000 
     79 CA         -5.0970   -2.5260  -27.9870 C.3      12 GLL5        0.0000 
     80 CA         -9.2450   -2.8820  -27.7380 C.3       8 GLP5        0.0000 
     81 CA         -9.3495   10.6155  -19.6475 C.3       4 GLC5        0.0000 
     82 CA         -9.6050    9.8670  -21.4720 C.3      12 GLL5        0.0000 
     83 CA         -8.4760   11.0310  -18.0840 C.3       8 GLP5        0.0000 
     84 CA        -12.7213    8.6557  -19.0678 C.3       4 GLC5        0.0000 
     85 CA        -11.8950    9.5970  -20.6800 C.3      12 GLL5        0.0000 
     86 CA        -13.6220    8.3790  -17.3380 C.3       8 GLP5        0.0000 
     87 CA        -13.1020    9.4072  -21.9375 C.3       4 GLC5        0.0000 
     88 CA        -14.6470    9.6480  -23.0100 C.3       8 GLP5        0.0000 
@<TRIPOS>BOND
@<TRIPOS>SUBSTRUCTURE
     1 ALC1       17 GROUP        1 X    ALC  0     ROOT ALC X 1
     2 SEC2        4 GROUP        1 X    SEC  0     **** SEC X 2
     3 LYC4        1 GROUP        1 X    LYC  0     **** LYC X 4
     4 GLC5       14 GROUP        1 X    GLC  0     **** GLC X 6
     5 ALP1       19 GROUP        1 Y    ALP  0     ROOT ALP Y 8
     6 SEP2        6 GROUP        1 Y    SEP  0     **** SEP Y 9
     7 LYP4        3 GROUP        1 Y    LYP  0     **** LYP Y 11
     8 GLP5       16 GROUP        1 Y    GLP  0     **** GLP Y 13
     9 ALL1       18 GROUP        1 Z    ALL  0     ROOT ALL Z 15
    10 SEL2        5 GROUP        1 Z    SEL  0     **** SEL Z 16
    11 LYL4        2 GROUP        1 Z    LYL  0     **** LYL Z 18
    12 GLL5       15 GROUP        1 Z    GLL  0     **** GLL Z 20
@<TRIPOS>SET

