#    Name: 4e5y_NDP_4_ligand
#    Modification time : Tue Mar 25 10:41:42 2014

@<TRIPOS>MOLECULE
4e5y_NDP_4_ligand
   74    78     1     0     0
SMALL
NO_CHARGES


@<TRIPOS>ATOM
      1 PA         -3.8130    5.3410  -24.1670 P.3       1 NDP401      0.0000 
      2 O1A        -3.8310    5.8430  -25.5130 O.co2     1 NDP401      0.0000 
      3 O2A        -2.8590    5.9370  -23.2890 O.co2     1 NDP401      0.0000 
      4 O5B        -3.5400    3.8170  -24.0940 O.3       1 NDP401      0.0000 
      5 C5B        -4.3940    2.8330  -24.6170 C.3       1 NDP401      0.0000 
      6 C4B        -4.0240    1.4680  -24.1030 C.3       1 NDP401      0.0000 
      7 O4B        -4.8160    0.5330  -24.8060 O.3       1 NDP401      0.0000 
      8 C3B        -2.5800    1.1520  -24.4270 C.3       1 NDP401      0.0000 
      9 O3B        -1.9130    0.5030  -23.3960 O.3       1 NDP401      0.0000 
     10 C2B        -2.6790    0.1790  -25.5360 C.3       1 NDP401      0.0000 
     11 O2B        -1.5820   -0.6570  -25.5240 O.3       1 NDP401      0.0000 
     12 C1B        -3.9710   -0.5100  -25.2360 C.3       1 NDP401      0.0000 
     13 N9A        -4.4670   -1.1070  -26.4560 N.pl3     1 NDP401      0.0000 
     14 C8A        -4.8530   -0.4630  -27.5270 C.2       1 NDP401      0.0000 
     15 N7A        -5.2520   -1.3120  -28.4550 N.2       1 NDP401      0.0000 
     16 C5A        -5.0970   -2.5260  -27.9870 C.ar      1 NDP401      0.0000 
     17 C6A        -5.3270   -3.8920  -28.4510 C.ar      1 NDP401      0.0000 
     18 N6A        -5.8090   -4.1720  -29.6630 N.pl3     1 NDP401      0.0000 
     19 N1A        -5.0310   -4.8690  -27.6250 N.ar      1 NDP401      0.0000 
     20 C2A        -4.5700   -4.6450  -26.4320 C.ar      1 NDP401      0.0000 
     21 N3A        -4.3470   -3.4540  -25.9640 N.ar      1 NDP401      0.0000 
     22 C4A        -4.5730   -2.3780  -26.6680 C.ar      1 NDP401      0.0000 
     23 O3         -5.2630    5.5380  -23.5890 O.3       1 NDP401      0.0000 
     24 PN         -5.6710    6.2850  -22.2610 P.3       1 NDP401      0.0000 
     25 O1N        -4.9690    5.7330  -21.1350 O.co2     1 NDP401      0.0000 
     26 O2N        -5.6210    7.7140  -22.4660 O.co2     1 NDP401      0.0000 
     27 O5D        -7.1720    5.9080  -22.1380 O.3       1 NDP401      0.0000 
     28 C5D        -7.5550    4.8550  -21.2840 C.3       1 NDP401      0.0000 
     29 C4D        -9.0370    4.6160  -21.2730 C.3       1 NDP401      0.0000 
     30 O4D        -9.7330    5.6940  -20.6960 O.3       1 NDP401      0.0000 
     31 C3D        -9.5660    4.5070  -22.6610 C.3       1 NDP401      0.0000 
     32 O3D       -10.6090    3.5700  -22.6240 O.3       1 NDP401      0.0000 
     33 C2D       -10.0920    5.8740  -22.9380 C.3       1 NDP401      0.0000 
     34 O2D       -11.0880    5.7810  -23.9090 O.3       1 NDP401      0.0000 
     35 C1D       -10.6200    6.3050  -21.6020 C.3       1 NDP401      0.0000 
     36 N1N       -10.6380    7.7410  -21.3980 N.pl3     1 NDP401      0.0000 
     37 C2N        -9.5870    8.4990  -21.6730 C.2       1 NDP401      0.0000 
     38 C3N        -9.6050    9.8670  -21.4720 C.2       1 NDP401      0.0000 
     39 C7N        -8.4200   10.7190  -21.8100 C.2       1 NDP401      0.0000 
     40 O7N        -7.3530   10.2340  -22.0160 O.2       1 NDP401      0.0000 
     41 N7N        -8.5390   12.0030  -21.9100 N.am      1 NDP401      0.0000 
     42 C4N       -10.8410   10.5330  -20.9500 C.3       1 NDP401      0.0000 
     43 C5N       -11.8950    9.5970  -20.6800 C.2       1 NDP401      0.0000 
     44 C6N       -11.7460    8.2680  -20.9150 C.2       1 NDP401      0.0000 
     45 P2B        -0.5340   -0.6110  -26.6570 P.3       1 NDP401      0.0000 
     46 O1X         0.3130    0.5040  -26.4110 O.co2     1 NDP401      0.0000 
     47 O2X         0.1240   -1.8350  -26.3990 O.co2     1 NDP401      0.0000 
     48 O3X        -1.3030   -0.5750  -27.8790 O.co2     1 NDP401      0.0000 
     49 H          -4.3551    2.7997  -25.7226 H         1 NDP401      0.0000 
     50 H          -5.4512    3.0203  -24.3479 H         1 NDP401      0.0000 
     51 H          -4.1764    1.4180  -23.0613 H         1 NDP401      0.0000 
     52 H          -2.1021    2.0226  -24.7819 H         1 NDP401      0.0000 
     53 H          -2.8008    0.7351  -26.4459 H         1 NDP401      0.0000 
     54 H          -3.8045   -1.2263  -24.4789 H         1 NDP401      0.0000 
     55 H          -4.8489    0.5232  -27.6330 H         1 NDP401      0.0000 
     56 H          -5.9402   -5.1412  -29.8713 H         1 NDP401      0.0000 
     57 H          -5.9957   -3.3875  -30.2543 H         1 NDP401      0.0000 
     58 H          -4.3609   -5.4934  -25.7952 H         1 NDP401      0.0000 
     59 H          -7.2348    5.0469  -20.2332 H         1 NDP401      0.0000 
     60 H          -7.0594    3.8982  -21.5710 H         1 NDP401      0.0000 
     61 H          -9.2500    3.6953  -20.7573 H         1 NDP401      0.0000 
     62 H          -8.7898    4.2734  -23.3135 H         1 NDP401      0.0000 
     63 H          -9.2757    6.4966  -23.2042 H         1 NDP401      0.0000 
     64 H         -11.6076    5.8794  -21.4849 H         1 NDP401      0.0000 
     65 H          -8.7036    8.0731  -22.0552 H         1 NDP401      0.0000 
     66 H          -7.6996   12.5085  -22.1099 H         1 NDP401      0.0000 
     67 H          -9.4593   12.3712  -21.7781 H         1 NDP401      0.0000 
     68 H         -11.1677   11.2909  -21.6914 H         1 NDP401      0.0000 
     69 H         -10.5717   11.0979  -20.0339 H         1 NDP401      0.0000 
     70 H         -12.7813    9.9787  -20.2955 H         1 NDP401      0.0000 
     71 H         -12.5748    7.6334  -20.6928 H         1 NDP401      0.0000 
     72 H          -1.0269    0.9620  -23.3319 H         1 NDP401      0.0000 
     73 H         -10.1609    2.6903  -22.4647 H         1 NDP401      0.0000 
     74 H         -11.4419    4.8492  -23.8282 H         1 NDP401      0.0000 
@<TRIPOS>BOND
     1    2    1 ar   
     2    3    1 ar   
     3    4    1 1    
     4   23    1 1    
     5    5    4 1    
     6    6    5 1    
     7   49    5 1    
     8   50    5 1    
     9    7    6 1    
    10    8    6 1    
    11   51    6 1    
    12   12    7 1    
    13    9    8 1    
    14   10    8 1    
    15   52    8 1    
    16   72    9 1    
    17   11   10 1    
    18   12   10 1    
    19   53   10 1    
    20   45   11 1    
    21   13   12 1    
    22   54   12 1    
    23   14   13 1    
    24   22   13 1    
    25   15   14 2    
    26   55   14 1    
    27   16   15 1    
    28   17   16 ar   
    29   22   16 ar   
    30   18   17 1    
    31   19   17 ar   
    32   56   18 1    
    33   57   18 1    
    34   20   19 ar   
    35   21   20 ar   
    36   58   20 1    
    37   22   21 ar   
    38   24   23 1    
    39   25   24 ar   
    40   26   24 ar   
    41   27   24 1    
    42   28   27 1    
    43   29   28 1    
    44   59   28 1    
    45   60   28 1    
    46   30   29 1    
    47   31   29 1    
    48   61   29 1    
    49   35   30 1    
    50   32   31 1    
    51   33   31 1    
    52   62   31 1    
    53   73   32 1    
    54   34   33 1    
    55   35   33 1    
    56   63   33 1    
    57   74   34 1    
    58   36   35 1    
    59   64   35 1    
    60   37   36 1    
    61   44   36 1    
    62   38   37 2    
    63   65   37 1    
    64   39   38 1    
    65   42   38 1    
    66   40   39 2    
    67   41   39 am   
    68   66   41 1    
    69   67   41 1    
    70   43   42 1    
    71   68   42 1    
    72   69   42 1    
    73   44   43 2    
    74   70   43 1    
    75   71   44 1    
    76   46   45 ar   
    77   47   45 ar   
    78   48   45 ar   
@<TRIPOS>SUBSTRUCTURE
     1 NDP401      1 GROUP   
@<TRIPOS>SET

