#    Name: 3biz_61E_1_INTS_M
#    Modification time : Mon Mar 24 19:39:39 2014

@<TRIPOS>MOLECULE
3biz_61E_1_INTS_M
   74     0    12     0     0
SMALL
NO_CHARGES


@<TRIPOS>ATOM
      1 CA          8.6435   52.4440   18.5495 C.3       4 GLC5        0.0000 
      2 CA          8.8180   52.8040   16.3630 C.3      12 GLL5        0.0000 
      3 CA          8.4690   52.0840   20.7360 C.3       8 GLP5        0.0000 
      4 OD1         6.4090   51.7075   17.3905 O.co2     3 ASC3        0.0000 
      5 OD1         7.3910   53.1050   16.6580 O.co2    11 ASL3        0.0000 
      6 OD1         5.4270   50.3100   18.1230 O.co2     7 ASP3        0.0000 
      7 CA          6.6450   50.9045   15.9910 C.3       4 GLC5        0.0000 
      8 CA          6.6600   53.0310   15.3300 C.3      12 GLL5        0.0000 
      9 CA          6.6300   48.7780   16.6520 C.3       8 GLP5        0.0000 
     10 CA          7.8470   53.2300   19.1120 C.3       4 GLC5        0.0000 
     11 CA          7.2250   54.3760   17.4880 C.3      12 GLL5        0.0000 
     12 CA          3.9805   56.2695   19.9295 C.3       4 GLC5        0.0000 
     13 CA          4.9990   54.7790   18.9030 C.3      12 GLL5        0.0000 
     14 CA          2.9620   57.7600   20.9560 C.3       8 GLP5        0.0000 
     15 N           8.7780   53.9975   21.4680 N.am      2 SEC2        0.0000 
     16 N           7.8060   55.2810   21.8760 N.am     10 SEL2        0.0000 
     17 N           9.7500   52.7140   21.0600 N.am      6 SEP2        0.0000 
     18 O           8.7670   55.2155   22.7965 O.2       1 ALC1        0.0000 
     19 O           7.8060   55.2810   21.8760 O.2       9 ALL1        0.0000 
     20 O           9.7280   55.1500   23.7170 O.2       5 ALP1        0.0000 
     21 CA          2.1010   55.6325   22.7860 C.3       4 GLC5        0.0000 
     22 CA          1.5330   53.5030   23.0800 C.3      12 GLL5        0.0000 
     23 CA          2.6690   57.7620   22.4920 C.3       8 GLP5        0.0000 
     24 CA          0.2120   54.4050   22.0395 C.3       4 GLC5        0.0000 
     25 CA         -1.1090   55.3070   20.9990 C.3       8 GLP5        0.0000 
     26 CA          0.5640   55.1845   24.0680 C.3       4 GLC5        0.0000 
     27 CA         -0.4050   56.8660   25.0560 C.3       8 GLP5        0.0000 
     28 N           8.3845   55.4850   26.5570 N.am      2 SEC2        0.0000 
     29 N           7.0980   55.0050   26.7460 N.am     10 SEL2        0.0000 
     30 N           9.6710   55.9650   26.3680 N.am      6 SEP2        0.0000 
     31 O           6.8815   55.4065   29.1190 O.2       1 ALC1        0.0000 
     32 O           5.9600   54.5150   28.6380 O.2       9 ALL1        0.0000 
     33 O           7.8030   56.2980   29.6000 O.2       5 ALP1        0.0000 
     34 N           3.6480   54.3530   31.4275 N.am      2 SEC2        0.0000 
     35 N           4.3170   53.9280   30.0150 N.am     10 SEL2        0.0000 
     36 N           2.9790   54.7780   32.8400 N.am      6 SEP2        0.0000 
     37 CA          0.7725   50.1600   29.0275 C.3       4 GLC5        0.0000 
     38 CA          0.9860   52.1030   28.4200 C.3      12 GLL5        0.0000 
     39 CA          0.5590   48.2170   29.6350 C.3       8 GLP5        0.0000 
     40 CA         -0.5285   55.3665   31.8820 C.3       4 GLC5        0.0000 
     41 CA          0.3500   54.1510   30.3780 C.3      12 GLL5        0.0000 
     42 CA         -1.4070   56.5820   33.3860 C.3       8 GLP5        0.0000 
     43 CA          1.4210   56.6075   27.5715 C.3       4 GLC5        0.0000 
     44 CA          1.8980   56.0290   29.3670 C.3      12 GLL5        0.0000 
     45 CA          0.9440   57.1860   25.7760 C.3       8 GLP5        0.0000 
     46 CA          3.2845   56.9345   28.5340 C.3       4 GLC5        0.0000 
     47 CA          4.6710   57.8400   27.7010 C.3       8 GLP5        0.0000 
     48 CA         -0.0690   56.3490   29.3970 C.3       4 GLC5        0.0000 
     49 CA         -2.0360   56.6690   29.4270 C.3       8 GLP5        0.0000 
     50 CA          3.2690   56.2325   30.8260 C.3       4 GLC5        0.0000 
     51 CA          4.6400   56.4360   32.2850 C.3       8 GLP5        0.0000 
     52 CA          4.4600   56.0765   22.4410 C.3       4 GLC5        0.0000 
     53 CA          4.3190   54.3370   21.6710 C.3      12 GLL5        0.0000 
     54 CA          3.9400   57.6180   23.3990 C.3       8 GLP5        0.0000 
     55 CA          5.2148   56.2475   23.1728 C.3       4 GLC5        0.0000 
     56 CA          6.6470   54.9810   22.2580 C.3      12 GLL5        0.0000 
     57 CA          7.3535   53.4495   21.7209 C.3       4 GLC5        0.0000 
     58 CA          6.3320   54.7730   23.6350 C.3      12 GLL5        0.0000 
     59 CA          4.4809   55.9890   27.2445 C.3       4 GLC5        0.0000 
     60 CA          3.9480   53.9930   27.6430 C.3      12 GLL5        0.0000 
     61 CA          1.7765   55.4324   26.0996 C.3       4 GLC5        0.0000 
     62 CA          2.5960   53.6380   27.3420 C.3      12 GLL5        0.0000 
     63 CA          0.1485   54.8395   27.3648 C.3       4 GLC5        0.0000 
     64 CA          1.6380   53.3760   28.3580 C.3      12 GLL5        0.0000 
     65 CA         -1.1540   55.7820   25.8990 C.3       8 GLP5        0.0000 
     66 CA         -1.7110   53.1268   30.3972 C.3       4 GLC5        0.0000 
     67 CA          0.0270   51.9030   29.4410 C.3      12 GLL5        0.0000 
     68 CA         -3.3050   53.8650   30.8590 C.3       8 GLP5        0.0000 
     69 CA          0.4985   50.5922   30.4342 C.3       4 GLC5        0.0000 
     70 CA         -0.2610   52.8740   30.4300 C.3      12 GLL5        0.0000 
     71 CA          1.1140   48.7960   30.9330 C.3       8 GLP5        0.0000 
     72 CA         -0.6145   55.4767   29.6337 C.3       4 GLC5        0.0000 
     73 CA          4.0326   55.9084   23.8633 C.3       4 GLC5        0.0000 
     74 CA          4.4050   54.2540   25.2550 C.3      12 GLL5        0.0000 
@<TRIPOS>BOND
@<TRIPOS>SUBSTRUCTURE
     1 ALC1       18 GROUP        1 X    ALC  0     ROOT ALC X 1
     2 SEC2       15 GROUP        1 X    SEC  0     **** SEC X 2
     3 ASC3        4 GROUP        1 X    ASC  0     **** ASC X 3
     4 GLC5        1 GROUP        1 X    GLC  0     **** GLC X 6
     5 ALP1       20 GROUP        1 Y    ALP  0     ROOT ALP Y 8
     6 SEP2       17 GROUP        1 Y    SEP  0     **** SEP Y 9
     7 ASP3        6 GROUP        1 Y    ASP  0     **** ASP Y 10
     8 GLP5        3 GROUP        1 Y    GLP  0     **** GLP Y 13
     9 ALL1       19 GROUP        1 Z    ALL  0     ROOT ALL Z 15
    10 SEL2       16 GROUP        1 Z    SEL  0     **** SEL Z 16
    11 ASL3        5 GROUP        1 Z    ASL  0     **** ASL Z 17
    12 GLL5        2 GROUP        1 Z    GLL  0     **** GLL Z 20
@<TRIPOS>SET

