#    Name: 3biz_61E_1_ligand
#    Modification time : Mon Mar 24 19:39:39 2014

@<TRIPOS>MOLECULE
3biz_61E_1_ligand
   59    63     1     0     0
SMALL
NO_CHARGES


@<TRIPOS>ATOM
      1 C26         8.8180   52.8040   16.3630 C.3       1 61E576      0.0000 
      2 N3          7.3910   53.1050   16.6580 N.4       1 61E576      0.0000 
      3 C25         6.6600   53.0310   15.3300 C.3       1 61E576      0.0000 
      4 C24         7.2250   54.3760   17.4880 C.3       1 61E576      0.0000 
      5 C23         5.7360   54.9230   17.5250 C.3       1 61E576      0.0000 
      6 C22         4.9990   54.7790   18.9030 C.3       1 61E576      0.0000 
      7 O4          6.0200   54.9230   19.9780 O.3       1 61E576      0.0000 
      8 C20         5.6410   54.7330   21.2950 C.ar      1 61E576      0.0000 
      9 C18         4.3190   54.3370   21.6710 C.ar      1 61E576      0.0000 
     10 C19         6.6470   54.9810   22.2580 C.ar      1 61E576      0.0000 
     11 O3          7.8060   55.2810   21.8760 O.3       1 61E576      0.0000 
     12 C17         6.3320   54.7730   23.6350 C.ar      1 61E576      0.0000 
     13 C15         5.0130   54.4440   24.0230 C.ar      1 61E576      0.0000 
     14 C16         4.0090   54.1990   23.0410 C.ar      1 61E576      0.0000 
     15 N2          2.8850   53.8590   23.6860 N.pl3     1 61E576      0.0000 
     16 C21         1.5330   53.5030   23.0800 C.3       1 61E576      0.0000 
     17 C14         3.0740   53.8980   24.9910 C.ar      1 61E576      0.0000 
     18 C1          2.1700   53.5410   26.0180 C.ar      1 61E576      0.0000 
     19 C13         4.4050   54.2540   25.2550 C.ar      1 61E576      0.0000 
     20 C4          4.8620   54.3120   26.6110 C.ar      1 61E576      0.0000 
     21 C5          6.0680   54.6060   27.2800 C.2       1 61E576      0.0000 
     22 O1          7.0980   55.0050   26.7460 O.2       1 61E576      0.0000 
     23 N1          5.9600   54.5150   28.6380 N.am      1 61E576      0.0000 
     24 C6          4.7280   54.1260   28.8740 C.2       1 61E576      0.0000 
     25 O2          4.3170   53.9280   30.0150 O.2       1 61E576      0.0000 
     26 C3          3.9480   53.9930   27.6430 C.ar      1 61E576      0.0000 
     27 C2          2.5960   53.6380   27.3420 C.ar      1 61E576      0.0000 
     28 C7          1.6380   53.3760   28.3580 C.ar      1 61E576      0.0000 
     29 C12         0.9860   52.1030   28.4200 C.ar      1 61E576      0.0000 
     30 C11         0.0270   51.9030   29.4410 C.ar      1 61E576      0.0000 
     31 C10        -0.2610   52.8740   30.4300 C.ar      1 61E576      0.0000 
     32 C9          0.3500   54.1510   30.3780 C.ar      1 61E576      0.0000 
     33 C8          1.2640   54.4180   29.3030 C.ar      1 61E576      0.0000 
     34 CL1         1.8980   56.0290   29.3670 Cl        1 61E576      0.0000 
     35 H           7.0173   52.2449   17.2725 H         1 61E576      0.0000 
     36 H           7.8594   55.1715   17.0831 H         1 61E576      0.0000 
     37 H           7.5344   54.1895   18.5218 H         1 61E576      0.0000 
     38 H           5.1581   54.3894   16.7584 H         1 61E576      0.0000 
     39 H           5.7563   55.9849   17.2450 H         1 61E576      0.0000 
     40 H           4.5391   53.8071   18.9324 H         1 61E576      0.0000 
     41 H           4.2582   55.5564   18.9649 H         1 61E576      0.0000 
     42 H           3.6227   54.1605   20.9592 H         1 61E576      0.0000 
     43 H           7.0665   54.8636   24.3374 H         1 61E576      0.0000 
     44 H           1.2361   53.2231   25.7876 H         1 61E576      0.0000 
     45 H           6.6568   54.7028   29.2615 H         1 61E576      0.0000 
     46 H           1.2066   51.3834   27.7595 H         1 61E576      0.0000 
     47 H          -0.4912   50.9996   29.4663 H         1 61E576      0.0000 
     48 H          -0.9130   52.6531   31.1855 H         1 61E576      0.0000 
     49 H           0.1562   54.8531   31.0663 H         1 61E576      0.0000 
     50 H           9.2109   53.4611   15.7197 H         1 61E576      0.0000 
     51 H           9.3814   52.8296   17.1888 H         1 61E576      0.0000 
     52 H           8.9303   51.8959   15.9596 H         1 61E576      0.0000 
     53 H           7.0177   53.6934   14.6718 H         1 61E576      0.0000 
     54 H           6.7426   52.1270   14.9104 H         1 61E576      0.0000 
     55 H           5.6831   53.2182   15.4329 H         1 61E576      0.0000 
     56 H           1.5946   52.7092   22.4749 H         1 61E576      0.0000 
     57 H           0.8569   53.2836   23.7834 H         1 61E576      0.0000 
     58 H           1.1588   54.2559   22.5386 H         1 61E576      0.0000 
     59 H           8.3773   55.1970   22.6924 H         1 61E576      0.0000 
@<TRIPOS>BOND
     1    2    1 1    
     2   50    1 1    
     3   51    1 1    
     4   52    1 1    
     5    3    2 1    
     6    4    2 1    
     7   35    2 1    
     8   53    3 1    
     9   54    3 1    
    10   55    3 1    
    11    5    4 1    
    12   36    4 1    
    13   37    4 1    
    14    6    5 1    
    15   38    5 1    
    16   39    5 1    
    17    7    6 1    
    18   40    6 1    
    19   41    6 1    
    20    8    7 1    
    21    9    8 ar   
    22   10    8 ar   
    23   14    9 ar   
    24   42    9 1    
    25   11   10 1    
    26   12   10 ar   
    27   59   11 1    
    28   13   12 ar   
    29   43   12 1    
    30   14   13 ar   
    31   19   13 1    
    32   15   14 1    
    33   16   15 1    
    34   17   15 1    
    35   56   16 1    
    36   57   16 1    
    37   58   16 1    
    38   18   17 ar   
    39   19   17 ar   
    40   27   18 ar   
    41   44   18 1    
    42   20   19 ar   
    43   21   20 1    
    44   26   20 ar   
    45   22   21 2    
    46   23   21 am   
    47   24   23 am   
    48   45   23 1    
    49   25   24 2    
    50   26   24 1    
    51   27   26 ar   
    52   28   27 1    
    53   29   28 ar   
    54   33   28 ar   
    55   30   29 ar   
    56   46   29 1    
    57   31   30 ar   
    58   47   30 1    
    59   32   31 ar   
    60   48   31 1    
    61   33   32 ar   
    62   49   32 1    
    63   34   33 1    
@<TRIPOS>SUBSTRUCTURE
     1 61E576      1 GROUP   
@<TRIPOS>SET

