#    Name: 1nly_AGS_1_INTS_M
#    Modification time : Mon Mar 24 18:26:19 2014

@<TRIPOS>MOLECULE
1nly_AGS_1_INTS_M
   60     0    15     0     0
SMALL
NO_CHARGES


@<TRIPOS>ATOM
      1 CA        -35.3545   57.8445   27.0570 C.3       5 GLC5        0.0000 
      2 CA        -34.0450   56.4590   25.8760 C.3      15 GLL5        0.0000 
      3 CA        -36.6640   59.2300   28.2380 C.3      10 GLP5        0.0000 
      4 NZ        -33.2535   56.4940   21.7110 N.4       3 LYC4        0.0000 
      5 NZ        -33.2380   56.2880   23.1950 N.4      13 LYL4        0.0000 
      6 NZ        -33.2690   56.7000   20.2270 N.4       8 LYP4        0.0000 
      7 N         -33.2535   56.4940   21.7110 N.am      2 SEC2        0.0000 
      8 N         -33.2380   56.2880   23.1950 N.am     12 SEL2        0.0000 
      9 N         -33.2690   56.7000   20.2270 N.am      7 SEP2        0.0000 
     10 NZ        -34.6425   56.7715   20.6040 N.4       3 LYC4        0.0000 
     11 NZ        -36.0160   56.8430   20.9810 N.4      13 LYL4        0.0000 
     12 N         -37.2410   56.2665   20.0325 N.am      2 SEC2        0.0000 
     13 N         -36.0160   56.8430   20.9810 N.am     12 SEL2        0.0000 
     14 N         -38.4660   55.6900   19.0840 N.am      7 SEP2        0.0000 
     15 N         -34.6425   56.7715   20.6040 N.am      2 SEC2        0.0000 
     16 NZ        -34.3210   55.7465   21.2170 N.4       3 LYC4        0.0000 
     17 NZ        -35.3730   54.7930   22.2070 N.4      13 LYL4        0.0000 
     18 Zn        -34.7540   54.1485   23.1385 Zn        4 ZIC7        0.0000 
     19 Zn        -35.3730   54.7930   22.2070 Zn       14 ZIL7        0.0000 
     20 Zn        -34.1350   53.5040   24.0700 Zn        9 ZIP7        0.0000 
     21 N         -34.3210   55.7465   21.2170 N.am      2 SEC2        0.0000 
     22 N         -35.3730   54.7930   22.2070 N.am     12 SEL2        0.0000 
     23 N         -35.4860   53.2080   21.5325 N.am      2 SEC2        0.0000 
     24 N         -35.5990   51.6230   20.8580 N.am      7 SEP2        0.0000 
     25 N         -36.6305   56.9780   24.5120 N.am      2 SEC2        0.0000 
     26 N         -35.5060   57.0770   23.4160 N.am     12 SEL2        0.0000 
     27 N         -37.7550   56.8790   25.6080 N.am      7 SEP2        0.0000 
     28 N         -36.1755   58.1330   22.6970 N.am      2 SEC2        0.0000 
     29 N         -36.8450   59.1890   21.9780 N.am      7 SEP2        0.0000 
     30 N         -38.1605   51.8180   21.4135 N.am      2 SEC2        0.0000 
     31 N         -38.3380   53.3800   21.6210 N.am     12 SEL2        0.0000 
     32 N         -37.9830   50.2560   21.2060 N.am      7 SEP2        0.0000 
     33 N         -39.3815   52.3990   21.6210 N.am      2 SEC2        0.0000 
     34 N         -40.4250   51.4180   21.6210 N.am      7 SEP2        0.0000 
     35 N         -38.0170   55.7445   20.7240 N.am      2 SEC2        0.0000 
     36 N         -37.5680   55.7990   22.3640 N.am     12 SEL2        0.0000 
     37 CA        -40.1105   52.4495   24.6115 C.3       5 GLC5        0.0000 
     38 CA        -40.7330   54.1220   23.4440 C.3      15 GLL5        0.0000 
     39 CA        -39.4880   50.7770   25.7790 C.3      10 GLP5        0.0000 
     40 N         -44.8585   56.1765   24.3135 N.am      2 SEC2        0.0000 
     41 N         -44.0520   55.1070   24.6030 N.am     12 SEL2        0.0000 
     42 N         -45.6650   57.2460   24.0240 N.am      7 SEP2        0.0000 
     43 O         -45.5455   55.3385   24.0045 O.2       1 ALC1        0.0000 
     44 O         -44.0520   55.1070   24.6030 O.2      11 ALL1        0.0000 
     45 O         -47.0390   55.5700   23.4060 O.2       6 ALP1        0.0000 
     46 CA        -44.6310   51.4705   22.2375 C.3       5 GLC5        0.0000 
     47 CA        -43.8440   53.4590   22.9270 C.3      15 GLL5        0.0000 
     48 CA        -45.4180   49.4820   21.5480 C.3      10 GLP5        0.0000 
     49 N         -46.1060   52.0165   22.8130 N.am      2 SEC2        0.0000 
     50 N         -45.2170   53.0080   23.2070 N.am     12 SEL2        0.0000 
     51 N         -46.9950   51.0250   22.4190 N.am      7 SEP2        0.0000 
     52 CA        -43.2005   55.9780   20.4020 C.3       5 GLC5        0.0000 
     53 CA        -43.6830   54.4590   21.7680 C.3      15 GLL5        0.0000 
     54 CA        -42.7180   57.4970   19.0360 C.3      10 GLP5        0.0000 
     55 CA        -42.7490   51.3080   19.3560 C.3       5 GLC5        0.0000 
     56 CA        -43.9900   52.8980   18.4490 C.3      15 GLL5        0.0000 
     57 CA        -41.5080   49.7180   20.2630 C.3      10 GLP5        0.0000 
     58 CA        -43.6410   54.9228   18.4112 C.3       5 GLC5        0.0000 
     59 CA        -44.5860   53.5150   19.6180 C.3      15 GLL5        0.0000 
     60 CA        -42.9940   56.6390   17.7890 C.3      10 GLP5        0.0000 
@<TRIPOS>BOND
@<TRIPOS>SUBSTRUCTURE
     1 ALC1       43 GROUP        1 X    ALC  0     ROOT ALC X 1
     2 SEC2        7 GROUP        1 X    SEC  0     **** SEC X 2
     3 LYC4        4 GROUP        1 X    LYC  0     **** LYC X 4
     4 ZIC7       18 GROUP        1 X    ZIC  0     **** ZIC X 5
     5 GLC5        1 GROUP        1 X    GLC  0     **** GLC X 6
     6 ALP1       45 GROUP        1 Y    ALP  0     ROOT ALP Y 8
     7 SEP2        9 GROUP        1 Y    SEP  0     **** SEP Y 9
     8 LYP4        6 GROUP        1 Y    LYP  0     **** LYP Y 11
     9 ZIP7       20 GROUP        1 Y    ZIP  0     **** ZIP Y 12
    10 GLP5        3 GROUP        1 Y    GLP  0     **** GLP Y 13
    11 ALL1       44 GROUP        1 Z    ALL  0     ROOT ALL Z 15
    12 SEL2        8 GROUP        1 Z    SEL  0     **** SEL Z 16
    13 LYL4        5 GROUP        1 Z    LYL  0     **** LYL Z 18
    14 ZIL7       19 GROUP        1 Z    ZIL  0     **** ZIL Z 19
    15 GLL5        2 GROUP        1 Z    GLL  0     **** GLL Z 20
@<TRIPOS>SET

