#    Name: 1nly_AGS_1_ligand
#    Modification time : Mon Mar 24 18:26:19 2014

@<TRIPOS>MOLECULE
1nly_AGS_1_ligand
   43    45     1     0     0
SMALL
NO_CHARGES


@<TRIPOS>ATOM
      1 PG        -34.0490   57.0990   24.1540 P.3       1 AGS402      0.0000 
      2 S1G       -34.0450   56.4590   25.8760 S.3       1 AGS402      0.0000 
      3 O2G       -33.6500   58.5220   24.2180 O.co2     1 AGS402      0.0000 
      4 O3G       -33.2380   56.2880   23.1950 O.co2     1 AGS402      0.0000 
      5 PB        -36.0860   56.0820   22.2490 P.3       1 AGS402      0.0000 
      6 O1B       -36.0160   56.8430   20.9810 O.co2     1 AGS402      0.0000 
      7 O2B       -35.3730   54.7930   22.2070 O.co2     1 AGS402      0.0000 
      8 O3B       -35.5060   57.0770   23.4160 O.3       1 AGS402      0.0000 
      9 PA        -38.3290   54.3740   22.7280 P.3       1 AGS402      0.0000 
     10 O1A       -38.3380   53.3800   21.6210 O.co2     1 AGS402      0.0000 
     11 O2A       -37.7410   54.0180   24.1200 O.co2     1 AGS402      0.0000 
     12 O3A       -37.5680   55.7990   22.3640 O.3       1 AGS402      0.0000 
     13 O5'       -39.8130   54.9510   22.7530 O.3       1 AGS402      0.0000 
     14 C5'       -40.7330   54.1220   23.4440 C.3       1 AGS402      0.0000 
     15 C4'       -42.0640   54.9130   23.3810 C.3       1 AGS402      0.0000 
     16 O4'       -42.4470   55.0980   22.0130 O.3       1 AGS402      0.0000 
     17 C3'       -43.1680   54.1950   24.0560 C.3       1 AGS402      0.0000 
     18 O3'       -44.0520   55.1070   24.6030 O.3       1 AGS402      0.0000 
     19 C2'       -43.8440   53.4590   22.9270 C.3       1 AGS402      0.0000 
     20 O2'       -45.2170   53.0080   23.2070 O.3       1 AGS402      0.0000 
     21 C1'       -43.6830   54.4590   21.7680 C.3       1 AGS402      0.0000 
     22 N9        -43.5490   53.7850   20.4590 N.pl3     1 AGS402      0.0000 
     23 C8        -42.4270   53.2730   19.7710 C.2       1 AGS402      0.0000 
     24 N7        -42.6200   52.7270   18.5670 N.2       1 AGS402      0.0000 
     25 C5        -43.9900   52.8980   18.4490 C.ar      1 AGS402      0.0000 
     26 C6        -44.9150   52.5300   17.4370 C.ar      1 AGS402      0.0000 
     27 N6        -44.4470   51.8890   16.2170 N.pl3     1 AGS402      0.0000 
     28 N1        -46.2860   52.8260   17.6110 N.ar      1 AGS402      0.0000 
     29 C2        -46.7330   53.4440   18.7790 C.ar      1 AGS402      0.0000 
     30 N3        -45.9600   53.8460   19.8260 N.ar      1 AGS402      0.0000 
     31 C4        -44.5860   53.5150   19.6180 C.ar      1 AGS402      0.0000 
     32 H         -40.4831   53.9922   24.4783 H         1 AGS402      0.0000 
     33 H         -40.8936   53.1803   22.9577 H         1 AGS402      0.0000 
     34 H         -41.9067   55.8660   23.8597 H         1 AGS402      0.0000 
     35 H         -42.7761   53.4930   24.7315 H         1 AGS402      0.0000 
     36 H         -43.1863   52.6108   22.6772 H         1 AGS402      0.0000 
     37 H         -44.4836   55.1360   21.7792 H         1 AGS402      0.0000 
     38 H         -41.5075   53.3354   20.2124 H         1 AGS402      0.0000 
     39 H         -43.4688   51.6857   16.1741 H         1 AGS402      0.0000 
     40 H         -45.1422   51.7048   15.5222 H         1 AGS402      0.0000 
     41 H         -47.7943   53.6143   18.8475 H         1 AGS402      0.0000 
     42 H         -44.9602   54.7426   24.3970 H         1 AGS402      0.0000 
     43 H         -45.7580   53.3277   22.4291 H         1 AGS402      0.0000 
@<TRIPOS>BOND
     1    2    1 1    
     2    3    1 ar   
     3    4    1 ar   
     4    8    1 1    
     5    6    5 ar   
     6    7    5 ar   
     7    8    5 1    
     8   12    5 1    
     9   10    9 ar   
    10   11    9 ar   
    11   12    9 1    
    12   13    9 1    
    13   14   13 1    
    14   15   14 1    
    15   32   14 1    
    16   33   14 1    
    17   16   15 1    
    18   17   15 1    
    19   34   15 1    
    20   21   16 1    
    21   18   17 1    
    22   19   17 1    
    23   35   17 1    
    24   42   18 1    
    25   20   19 1    
    26   21   19 1    
    27   36   19 1    
    28   43   20 1    
    29   22   21 1    
    30   37   21 1    
    31   23   22 1    
    32   31   22 1    
    33   24   23 2    
    34   38   23 1    
    35   25   24 1    
    36   26   25 ar   
    37   31   25 ar   
    38   27   26 1    
    39   28   26 ar   
    40   39   27 1    
    41   40   27 1    
    42   29   28 ar   
    43   30   29 ar   
    44   41   29 1    
    45   31   30 ar   
@<TRIPOS>SUBSTRUCTURE
     1 AGS402      1 GROUP   
@<TRIPOS>SET

