#    Name: 4h4v_FAD_1_INTS_M
#    Modification time : Tue Mar 25 00:24:19 2014

@<TRIPOS>MOLECULE
4h4v_FAD_1_INTS_M
  121     0    12     0     0
SMALL
NO_CHARGES


@<TRIPOS>ATOM
      1 NZ         62.8125   14.4545    8.2155 N.4       3 LYC4        0.0000 
      2 NZ         61.8350   13.5630    7.7340 N.4      11 LYL4        0.0000 
      3 NZ         65.0030   15.4760    8.1670 N.4       7 LYP4        0.0000 
      4 N          62.8125   14.4545    8.2155 N.am      2 SEC2        0.0000 
      5 N          61.8350   13.5630    7.7340 N.am     10 SEL2        0.0000 
      6 N          63.7900   15.3460    8.6970 N.am      6 SEP2        0.0000 
      7 NZ         62.7185   10.9655    7.8590 N.4       3 LYC4        0.0000 
      8 NZ         62.2510   11.6640    9.3500 N.4      11 LYL4        0.0000 
      9 NZ         64.4120   10.5560    6.7810 N.4       7 LYP4        0.0000 
     10 N          63.4170   11.4265    8.6435 N.am      2 SEC2        0.0000 
     11 N          62.2510   11.6640    9.3500 N.am     10 SEL2        0.0000 
     12 N          64.5830   11.1890    7.9370 N.am      6 SEP2        0.0000 
     13 N          62.7185   10.9655    7.8590 N.am      2 SEC2        0.0000 
     14 N          63.1860   10.2670    6.3680 N.am      6 SEP2        0.0000 
     15 CA         59.3875   10.4010    8.3745 C.3       4 GLC5        0.0000 
     16 CA         59.2180   12.2660    7.1640 C.3      12 GLL5        0.0000 
     17 CA         59.5570    8.5360    9.5850 C.3       8 GLP5        0.0000 
     18 CA         59.3375   14.1670    7.6565 C.3       4 GLC5        0.0000 
     19 CA         59.4570   16.0680    8.1490 C.3       8 GLP5        0.0000 
     20 CA         57.0365   10.9115    6.0975 C.3       4 GLC5        0.0000 
     21 CA         58.9780   11.3920    6.0080 C.3      12 GLL5        0.0000 
     22 CA         55.0950   10.4310    6.1870 C.3       8 GLP5        0.0000 
     23 O          61.6190    9.6370    4.1545 O.2       1 ALC1        0.0000 
     24 O          60.3800   10.0190    4.6620 O.2       9 ALL1        0.0000 
     25 O          62.8580    9.2550    3.6470 O.2       5 ALP1        0.0000 
     26 O          59.4110   11.9720    1.2965 O.2       1 ALC1        0.0000 
     27 O          60.2790   11.9600    2.7100 O.2       9 ALL1        0.0000 
     28 O          58.5430   11.9840   -0.1170 O.2       5 ALP1        0.0000 
     29 O          59.5955   11.1300    1.9720 O.2       1 ALC1        0.0000 
     30 O          58.9120   10.3000    1.2340 O.2       5 ALP1        0.0000 
     31 CA         56.6470   11.1150    5.0750 C.3       4 GLC5        0.0000 
     32 CA         58.1990   11.7990    3.9630 C.3      12 GLL5        0.0000 
     33 CA         57.2235   13.3075    5.2415 C.3       4 GLC5        0.0000 
     34 CA         56.2480   14.8160    6.5200 C.3       8 GLP5        0.0000 
     35 CA         54.4285   12.9230   -0.9325 C.3       4 GLC5        0.0000 
     36 CA         54.5110   13.1840    1.1120 C.3      12 GLL5        0.0000 
     37 CA         54.3460   12.6620   -2.9770 C.3       8 GLP5        0.0000 
     38 CA         52.3770   12.7985    0.7845 C.3       4 GLC5        0.0000 
     39 CA         50.2430   12.4130    0.4570 C.3       8 GLP5        0.0000 
     40 O          52.7495   14.2800   -0.5110 O.2       1 ALC1        0.0000 
     41 O          53.8490   14.3030    0.4420 O.2       9 ALL1        0.0000 
     42 O          51.6500   14.2570   -1.4640 O.2       5 ALP1        0.0000 
     43 N          52.9255   11.7085   -0.0665 N.am      2 SEC2        0.0000 
     44 N          54.0000   11.9730    0.9780 N.am     10 SEL2        0.0000 
     45 N          51.8510   11.4440   -1.1110 N.am      6 SEP2        0.0000 
     46 CA         52.9725    9.6020    1.3880 C.3       4 GLC5        0.0000 
     47 CA         54.5900   10.9350    1.5880 C.3      12 GLL5        0.0000 
     48 CA         51.3550    8.2690    1.1880 C.3       8 GLP5        0.0000 
     49 CA         55.0515    9.0370    2.2650 C.3       4 GLC5        0.0000 
     50 CA         55.5130    7.1390    2.9420 C.3       8 GLP5        0.0000 
     51 CA         55.9720   10.4665    0.5070 C.3       4 GLC5        0.0000 
     52 CA         57.3540    9.9980   -0.5740 C.3       8 GLP5        0.0000 
     53 CA         54.0910   10.6340   -0.3955 C.3       4 GLC5        0.0000 
     54 CA         53.5920   10.3330   -2.3790 C.3       8 GLP5        0.0000 
     55 N          56.1990    9.7080    1.7810 N.am      2 SEC2        0.0000 
     56 N          55.6770   11.0490    2.3420 N.am     10 SEL2        0.0000 
     57 N          56.7210    8.3670    1.2200 N.am      6 SEP2        0.0000 
     58 CA         55.6585   11.3465    4.3445 C.3       4 GLC5        0.0000 
     59 CA         56.2220   12.2620    2.5020 C.3      12 GLL5        0.0000 
     60 CA         56.7880   11.1300    0.9640 C.3       4 GLC5        0.0000 
     61 N          66.8965   14.1575   16.5125 N.am      2 SEC2        0.0000 
     62 N          68.4070   14.1220   15.8770 N.am     10 SEL2        0.0000 
     63 N          65.3860   14.1930   17.1480 N.am      6 SEP2        0.0000 
     64 N          66.8545   14.3320   17.6660 N.am      2 SEC2        0.0000 
     65 N          68.3230   14.4710   18.1840 N.am     10 SEL2        0.0000 
     66 N          72.8715   11.7420   15.5625 N.am      2 SEC2        0.0000 
     67 N          72.0100   12.2570   16.4910 N.am     10 SEL2        0.0000 
     68 N          73.7330   11.2270   14.6340 N.am      6 SEP2        0.0000 
     69 N          72.4295   12.0330   14.2510 N.am      2 SEC2        0.0000 
     70 N          71.1260   12.8390   13.8680 N.am     10 SEL2        0.0000 
     71 CA         71.9370   10.5870    8.4790 C.3       4 GLC5        0.0000 
     72 CA         71.7340   12.4810    9.0610 C.3      12 GLL5        0.0000 
     73 CA         72.1400    8.6930    7.8970 C.3       8 GLP5        0.0000 
     74 CA         73.7290   12.1340    9.5380 C.3       4 GLC5        0.0000 
     75 CA         75.7240   11.7870   10.0150 C.3       8 GLP5        0.0000 
     76 CA         72.8180   12.6735    7.3170 C.3       4 GLC5        0.0000 
     77 CA         73.9020   12.8660    5.5730 C.3       8 GLP5        0.0000 
     78 CA         72.9320   14.0370    8.9930 C.3       4 GLC5        0.0000 
     79 CA         74.1300   15.5930    8.9250 C.3       8 GLP5        0.0000 
     80 CA         67.4705   12.4885    8.6140 C.3       4 GLC5        0.0000 
     81 CA         69.0630   13.5230    8.6730 C.3      12 GLL5        0.0000 
     82 CA         65.8780   11.4540    8.5550 C.3       8 GLP5        0.0000 
     83 CA         67.8165   14.2640    7.4980 C.3       4 GLC5        0.0000 
     84 CA         66.5700   15.0050    6.3230 C.3       8 GLP5        0.0000 
     85 CA         65.5020   13.1550   15.3190 C.3       4 GLC5        0.0000 
     86 CA         66.1340   13.4700   13.3530 C.3      12 GLL5        0.0000 
     87 CA         64.8700   12.8400   17.2850 C.3       8 GLP5        0.0000 
     88 O          63.5790   16.1000   13.4940 O.2       1 ALC1        0.0000 
     89 O          64.4640   15.0490   13.9300 O.2       9 ALL1        0.0000 
     90 O          62.6940   17.1510   13.0580 O.2       5 ALP1        0.0000 
     91 CA         61.8205   15.6185   11.7475 C.3       4 GLC5        0.0000 
     92 CA         62.3910   13.8140   12.3660 C.3      12 GLL5        0.0000 
     93 CA         61.2500   17.4230   11.1290 C.3       8 GLP5        0.0000 
     94 N          58.9060   10.9915   12.4600 N.am      2 SEC2        0.0000 
     95 N          59.3230   11.7930   11.3370 N.am     10 SEL2        0.0000 
     96 N          58.4890   10.1900   13.5830 N.am      6 SEP2        0.0000 
     97 N          59.3950   15.6795   12.2895 N.am      2 SEC2        0.0000 
     98 N          59.3900   14.3200   11.8750 N.am     10 SEL2        0.0000 
     99 N          59.4000   17.0390   12.7040 N.am      6 SEP2        0.0000 
    100 CA         57.6730   13.3225    6.5530 C.3       4 GLC5        0.0000 
    101 CA         54.9640   13.8130    3.4873 C.3       4 GLC5        0.0000 
    102 CA         55.6450   13.3680    1.8860 C.3      12 GLL5        0.0000 
    103 CA         54.2780   14.8570    4.9740 C.3       8 GLP5        0.0000 
    104 CA         71.8795   14.4925   11.5015 C.3       4 GLC5        0.0000 
    105 CA         70.6090   13.0310   12.6220 C.3      12 GLL5        0.0000 
    106 CA         72.7550   16.1330   10.9350 C.3       8 GLP5        0.0000 
    107 CA         68.9105   11.6950   10.1185 C.3       4 GLC5        0.0000 
    108 CA         70.9080   12.8430   10.2230 C.3      12 GLL5        0.0000 
    109 CA         67.5590   10.3000   10.1020 C.3       8 GLP5        0.0000 
    110 CA         70.5493   14.8313    9.8265 C.3       4 GLC5        0.0000 
    111 CA         69.6160   13.3370   10.0470 C.3      12 GLL5        0.0000 
    112 CA         71.4360   16.3560   10.2490 C.3       8 GLP5        0.0000 
    113 CA         68.3175   11.9525   10.9510 C.3       4 GLC5        0.0000 
    114 CA         68.8350   13.6790   11.1460 C.3      12 GLL5        0.0000 
    115 CA         70.2560   14.9805   11.0245 C.3       4 GLC5        0.0000 
    116 CA         70.4597   11.3388   12.7880 C.3       4 GLC5        0.0000 
    117 CA         69.3170   13.5310   12.4540 C.3      12 GLL5        0.0000 
    118 CA         70.7590    9.4860   13.3150 C.3       8 GLP5        0.0000 
    119 CA         61.8635   13.2012   14.0552 C.3       4 GLC5        0.0000 
    120 CA         63.7450   13.1510   12.6350 C.3      12 GLL5        0.0000 
    121 CA         60.6590   12.9200   15.6100 C.3       8 GLP5        0.0000 
@<TRIPOS>BOND
@<TRIPOS>SUBSTRUCTURE
     1 ALC1       23 GROUP        1 X    ALC  0     ROOT ALC X 1
     2 SEC2        4 GROUP        1 X    SEC  0     **** SEC X 2
     3 LYC4        1 GROUP        1 X    LYC  0     **** LYC X 4
     4 GLC5       15 GROUP        1 X    GLC  0     **** GLC X 6
     5 ALP1       25 GROUP        1 Y    ALP  0     ROOT ALP Y 8
     6 SEP2        6 GROUP        1 Y    SEP  0     **** SEP Y 9
     7 LYP4        3 GROUP        1 Y    LYP  0     **** LYP Y 11
     8 GLP5       17 GROUP        1 Y    GLP  0     **** GLP Y 13
     9 ALL1       24 GROUP        1 Z    ALL  0     ROOT ALL Z 15
    10 SEL2        5 GROUP        1 Z    SEL  0     **** SEL Z 16
    11 LYL4        2 GROUP        1 Z    LYL  0     **** LYL Z 18
    12 GLL5       16 GROUP        1 Z    GLL  0     **** GLL Z 20
@<TRIPOS>SET

