#    Name: 4h4v_FAD_1_ligand
#    Modification time : Tue Mar 25 00:24:19 2014

@<TRIPOS>MOLECULE
4h4v_FAD_1_ligand
   84    89     1     0     0
SMALL
NO_CHARGES


@<TRIPOS>ATOM
      1 PA         61.2670   12.5850    8.7380 P.3       1 FAD501      0.0000 
      2 O1A        61.8350   13.5630    7.7340 O.co2     1 FAD501      0.0000 
      3 O2A        62.2510   11.6640    9.3500 O.co2     1 FAD501      0.0000 
      4 O5B        60.1500   11.7090    8.0660 O.3       1 FAD501      0.0000 
      5 C5B        59.2180   12.2660    7.1640 C.3       1 FAD501      0.0000 
      6 C4B        58.9780   11.3920    6.0080 C.3       1 FAD501      0.0000 
      7 O4B        57.8480   11.8350    5.3090 O.3       1 FAD501      0.0000 
      8 C3B        60.1280   11.3770    5.0480 C.3       1 FAD501      0.0000 
      9 O3B        60.3800   10.0190    4.6620 O.3       1 FAD501      0.0000 
     10 C2B        59.6280   12.1660    3.9770 C.3       1 FAD501      0.0000 
     11 O2B        60.2790   11.9600    2.7100 O.3       1 FAD501      0.0000 
     12 C1B        58.1990   11.7990    3.9630 C.3       1 FAD501      0.0000 
     13 N9A        57.3040   12.6800    3.1770 N.pl3     1 FAD501      0.0000 
     14 C8A        57.4240   14.0120    3.0140 C.2       1 FAD501      0.0000 
     15 N7A        56.4110   14.4280    2.2350 N.2       1 FAD501      0.0000 
     16 C5A        55.6450   13.3680    1.8860 C.ar      1 FAD501      0.0000 
     17 C6A        54.5110   13.1840    1.1120 C.ar      1 FAD501      0.0000 
     18 N6A        53.8490   14.3030    0.4420 N.pl3     1 FAD501      0.0000 
     19 N1A        54.0000   11.9730    0.9780 N.ar      1 FAD501      0.0000 
     20 C2A        54.5900   10.9350    1.5880 C.ar      1 FAD501      0.0000 
     21 N3A        55.6770   11.0490    2.3420 N.ar      1 FAD501      0.0000 
     22 C4A        56.2220   12.2620    2.5020 C.ar      1 FAD501      0.0000 
     23 N1         68.4070   14.1220   15.8770 N.2       1 FAD501      0.0000 
     24 C2         68.9580   13.9750   17.0830 C.2       1 FAD501      0.0000 
     25 O2         68.3230   14.4710   18.1840 O.2       1 FAD501      0.0000 
     26 N3         70.1240   13.3600   17.2980 N.am      1 FAD501      0.0000 
     27 C4         70.8220   12.9190   16.2520 C.2       1 FAD501      0.0000 
     28 O4         72.0100   12.2570   16.4910 O.2       1 FAD501      0.0000 
     29 C4X        70.3830   13.1410   14.9420 C.2       1 FAD501      0.0000 
     30 N5         71.1260   12.8390   13.8680 N.2       1 FAD501      0.0000 
     31 C5X        70.6090   13.0310   12.6220 C.ar      1 FAD501      0.0000 
     32 C6         71.3990   12.6730   11.5140 C.ar      1 FAD501      0.0000 
     33 C7         70.9080   12.8430   10.2230 C.ar      1 FAD501      0.0000 
     34 C7M        71.7340   12.4810    9.0610 C.3       1 FAD501      0.0000 
     35 C8         69.6160   13.3370   10.0470 C.ar      1 FAD501      0.0000 
     36 C8M        69.0630   13.5230    8.6730 C.3       1 FAD501      0.0000 
     37 C9         68.8350   13.6790   11.1460 C.ar      1 FAD501      0.0000 
     38 C9A        69.3170   13.5310   12.4540 C.ar      1 FAD501      0.0000 
     39 N10        68.5850   13.8690   13.5590 N.pl3     1 FAD501      0.0000 
     40 C10        69.1140   13.7190   14.7960 C.2       1 FAD501      0.0000 
     41 C1'        67.2860   14.4840   13.4490 C.3       1 FAD501      0.0000 
     42 C2'        66.1340   13.4700   13.3530 C.3       1 FAD501      0.0000 
     43 O2'        66.4730   12.3760   12.7640 O.3       1 FAD501      0.0000 
     44 C3'        64.8400   14.1520   12.9470 C.3       1 FAD501      0.0000 
     45 O3'        64.4640   15.0490   13.9300 O.3       1 FAD501      0.0000 
     46 C4'        63.7450   13.1510   12.6350 C.3       1 FAD501      0.0000 
     47 O4'        64.1020   12.3920   11.4950 O.3       1 FAD501      0.0000 
     48 C5'        62.3910   13.8140   12.3660 C.3       1 FAD501      0.0000 
     49 O5'        61.4110   12.7980   12.1430 O.3       1 FAD501      0.0000 
     50 P          60.1020   13.0680   11.3340 P.3       1 FAD501      0.0000 
     51 O1P        59.3230   11.7930   11.3370 O.co2     1 FAD501      0.0000 
     52 O2P        59.3900   14.3200   11.8750 O.co2     1 FAD501      0.0000 
     53 O3P        60.5490   13.4510    9.8930 O.3       1 FAD501      0.0000 
     54 H          59.5658   13.2574    6.7942 H         1 FAD501      0.0000 
     55 H          58.2449   12.4635    7.6688 H         1 FAD501      0.0000 
     56 H          58.8237   10.3693    6.3578 H         1 FAD501      0.0000 
     57 H          60.9540   11.8354    5.5186 H         1 FAD501      0.0000 
     58 H          59.6736   13.2244    4.2735 H         1 FAD501      0.0000 
     59 H          58.1165   10.7716    3.5990 H         1 FAD501      0.0000 
     60 H          58.1163   14.5678    3.3911 H         1 FAD501      0.0000 
     61 H          53.0438   14.0742   -0.1051 H         1 FAD501      0.0000 
     62 H          54.2559   15.2051    0.5860 H         1 FAD501      0.0000 
     63 H          54.1573    9.9643    1.4568 H         1 FAD501      0.0000 
     64 H          70.4799   13.2282   18.2660 H         1 FAD501      0.0000 
     65 H          72.3374   12.2867   11.6653 H         1 FAD501      0.0000 
     66 H          67.8799   14.0499   11.0003 H         1 FAD501      0.0000 
     67 H          67.2268   15.1371   12.5542 H         1 FAD501      0.0000 
     68 H          67.0782   15.1388   14.3200 H         1 FAD501      0.0000 
     69 H          65.9470   13.2435   14.5045 H         1 FAD501      0.0000 
     70 H          65.0610   14.6915   11.9997 H         1 FAD501      0.0000 
     71 H          63.6227   12.4973   13.4992 H         1 FAD501      0.0000 
     72 H          62.5062   14.4666   11.4972 H         1 FAD501      0.0000 
     73 H          62.1455   14.4338   13.2318 H         1 FAD501      0.0000 
     74 H          72.5890   12.9990    9.0373 H         1 FAD501      0.0000 
     75 H          71.9788   11.5114    9.0669 H         1 FAD501      0.0000 
     76 H          71.2598   12.6583    8.1986 H         1 FAD501      0.0000 
     77 H          69.6116   14.1634    8.1354 H         1 FAD501      0.0000 
     78 H          69.0348   12.6625    8.1644 H         1 FAD501      0.0000 
     79 H          68.1299   13.8820    8.6937 H         1 FAD501      0.0000 
     80 H          61.1905   10.0623    4.0778 H         1 FAD501      0.0000 
     81 H          59.5379   11.7685    2.0665 H         1 FAD501      0.0000 
     82 H          65.6783   12.1221   12.2126 H         1 FAD501      0.0000 
     83 H          63.8249   15.6729   13.4802 H         1 FAD501      0.0000 
     84 H          63.2584   11.9340   11.2146 H         1 FAD501      0.0000 
@<TRIPOS>BOND
     1    2    1 ar   
     2    3    1 ar   
     3    4    1 1    
     4   53    1 1    
     5    5    4 1    
     6    6    5 1    
     7   54    5 1    
     8   55    5 1    
     9    7    6 1    
    10    8    6 1    
    11   56    6 1    
    12   12    7 1    
    13    9    8 1    
    14   10    8 1    
    15   57    8 1    
    16   80    9 1    
    17   11   10 1    
    18   12   10 1    
    19   58   10 1    
    20   81   11 1    
    21   13   12 1    
    22   59   12 1    
    23   14   13 1    
    24   22   13 1    
    25   15   14 2    
    26   60   14 1    
    27   16   15 1    
    28   17   16 ar   
    29   22   16 ar   
    30   18   17 1    
    31   19   17 ar   
    32   61   18 1    
    33   62   18 1    
    34   20   19 ar   
    35   21   20 ar   
    36   63   20 1    
    37   22   21 ar   
    38   24   23 1    
    39   40   23 2    
    40   25   24 2    
    41   26   24 am   
    42   27   26 am   
    43   64   26 1    
    44   28   27 2    
    45   29   27 1    
    46   30   29 2    
    47   40   29 1    
    48   31   30 1    
    49   32   31 ar   
    50   38   31 ar   
    51   33   32 ar   
    52   65   32 1    
    53   34   33 1    
    54   35   33 ar   
    55   74   34 1    
    56   75   34 1    
    57   76   34 1    
    58   36   35 1    
    59   37   35 ar   
    60   77   36 1    
    61   78   36 1    
    62   79   36 1    
    63   38   37 ar   
    64   66   37 1    
    65   39   38 1    
    66   40   39 1    
    67   41   39 1    
    68   42   41 1    
    69   67   41 1    
    70   68   41 1    
    71   43   42 1    
    72   44   42 1    
    73   69   42 1    
    74   82   43 1    
    75   45   44 1    
    76   46   44 1    
    77   70   44 1    
    78   83   45 1    
    79   47   46 1    
    80   48   46 1    
    81   71   46 1    
    82   84   47 1    
    83   49   48 1    
    84   72   48 1    
    85   73   48 1    
    86   50   49 1    
    87   51   50 ar   
    88   52   50 ar   
    89   53   50 1    
@<TRIPOS>SUBSTRUCTURE
     1 FAD501      1 GROUP   
@<TRIPOS>SET

