#    Name: 13pk_ADP_4_INTS_M
#    Modification time : Mon Mar 24 17:42:40 2014

@<TRIPOS>MOLECULE
13pk_ADP_4_INTS_M
   72     0    15     0     0
SMALL
NO_CHARGES


@<TRIPOS>ATOM
      1 N          -0.3250   85.0985  112.0145 N.am      2 SEC2        0.0000 
      2 N           0.6090   85.0510  113.2290 N.am     12 SEL2        0.0000 
      3 N          -1.2590   85.1460  110.8000 N.am      7 SEP2        0.0000 
      4 N           0.8385   85.9650  112.3485 N.am      2 SEC2        0.0000 
      5 N           1.0680   86.8790  111.4680 N.am      7 SEP2        0.0000 
      6 Zn         -1.2265   82.7550  115.3515 Zn        4 ZIC7        0.0000 
      7 Zn         -0.7580   83.2550  114.4760 Zn       14 ZIL7        0.0000 
      8 Zn         -1.6950   82.2550  116.2270 Zn        9 ZIP7        0.0000 
      9 N          -1.4885   83.0810  113.2625 N.am      2 SEC2        0.0000 
     10 N          -0.7580   83.2550  114.4760 N.am     12 SEL2        0.0000 
     11 N          -2.2190   82.9070  112.0490 N.am      7 SEP2        0.0000 
     12 N           2.8815   84.5025  114.4745 N.am      2 SEC2        0.0000 
     13 N           1.6320   84.0000  115.1080 N.am     12 SEL2        0.0000 
     14 N           4.1310   85.0050  113.8410 N.am      7 SEP2        0.0000 
     15 Zn         -1.6890   83.3370  116.7925 Zn        4 ZIC7        0.0000 
     16 Zn         -1.6830   84.4190  117.3580 Zn       14 ZIL7        0.0000 
     17 NZ          1.7685   85.9245  117.7620 N.4       3 LYC4        0.0000 
     18 NZ          0.5530   85.0980  117.8040 N.4      13 LYL4        0.0000 
     19 NZ          2.9840   86.7510  117.7200 N.4       8 LYP4        0.0000 
     20 N           1.7685   85.9245  117.7620 N.am      2 SEC2        0.0000 
     21 N           0.5530   85.0980  117.8040 N.am     12 SEL2        0.0000 
     22 N           2.9840   86.7510  117.7200 N.am      7 SEP2        0.0000 
     23 N          -0.8660   87.4525  118.3675 N.am      2 SEC2        0.0000 
     24 N          -1.3460   86.7750  117.1540 N.am     12 SEL2        0.0000 
     25 N          -0.3860   88.1300  119.5810 N.am      7 SEP2        0.0000 
     26 CA         -2.9645   85.8475  114.7330 C.3       5 GLC5        0.0000 
     27 CA         -2.4770   86.9990  116.3150 C.3      15 GLL5        0.0000 
     28 CA         -3.4520   84.6960  113.1510 C.3      10 GLP5        0.0000 
     29 CA         -2.7900   87.2520  119.2500 C.3       5 GLC5        0.0000 
     30 CA         -3.6510   87.1290  117.2280 C.3      15 GLL5        0.0000 
     31 CA         -1.9290   87.3750  121.2720 C.3      10 GLP5        0.0000 
     32 CA         -3.6835   88.0450  114.7110 C.3       5 GLC5        0.0000 
     33 CA         -4.9260   87.4220  116.4590 C.3      15 GLL5        0.0000 
     34 CA         -2.4410   88.6680  112.9630 C.3      10 GLP5        0.0000 
     35 CA         -5.3400   87.5170  114.2565 C.3       5 GLC5        0.0000 
     36 CA         -5.7540   87.6120  112.0540 C.3      10 GLP5        0.0000 
     37 O          -6.8835   86.5525  115.7020 O.2       1 ALC1        0.0000 
     38 O          -5.9300   86.4470  116.6940 O.2      11 ALL1        0.0000 
     39 O          -7.8370   86.6580  114.7100 O.2       6 ALP1        0.0000 
     40 CA         -6.4145   90.5355  116.2110 C.3       5 GLC5        0.0000 
     41 CA         -5.2720   88.8670  116.7790 C.3      15 GLL5        0.0000 
     42 CA         -7.5570   92.2040  115.6430 C.3      10 GLP5        0.0000 
     43 O          -7.5250   89.0020  115.7765 O.2       1 ALC1        0.0000 
     44 O          -6.6640   89.2190  116.7980 O.2      11 ALL1        0.0000 
     45 O          -8.3860   88.7850  114.7550 O.2       6 ALP1        0.0000 
     46 CA         -3.2635   88.2045  119.6985 C.3       5 GLC5        0.0000 
     47 CA         -4.5980   89.0340  118.1250 C.3      15 GLL5        0.0000 
     48 CA         -2.5370   93.2020  118.5525 C.3       5 GLC5        0.0000 
     49 CA         -4.4370   92.5650  119.0910 C.3      15 GLL5        0.0000 
     50 CA         -0.6370   93.8390  118.0140 C.3      10 GLP5        0.0000 
     51 CA         -4.4245   93.4275  117.2020 C.3       5 GLC5        0.0000 
     52 CA         -4.4120   94.2900  115.3130 C.3      10 GLP5        0.0000 
     53 CA         -6.1230   95.2195  119.4655 C.3       5 GLC5        0.0000 
     54 CA         -4.8380   93.5310  120.0050 C.3      15 GLL5        0.0000 
     55 CA         -7.4080   96.9080  118.9260 C.3      10 GLP5        0.0000 
     56 O          -5.2645   95.9550  120.6090 O.2       1 ALC1        0.0000 
     57 O          -4.4700   94.7940  119.8460 O.2      11 ALL1        0.0000 
     58 O          -6.0590   97.1160  121.3720 O.2       6 ALP1        0.0000 
     59 O          -3.8650   95.4650  118.9180 O.2       1 ALC1        0.0000 
     60 O          -3.2600   96.1360  117.9900 O.2       6 ALP1        0.0000 
     61 CA         -7.5620   93.4920  120.9580 C.3       5 GLC5        0.0000 
     62 CA         -5.9920   91.9350  121.2680 C.3      15 GLL5        0.0000 
     63 CA         -9.1320   95.0490  120.6480 C.3      10 GLP5        0.0000 
     64 CA         -6.9870   92.2590  119.6845 C.3       5 GLC5        0.0000 
     65 CA         -7.9820   92.5830  118.1010 C.3      10 GLP5        0.0000 
     66 CA         -1.5955   88.1915  117.1397 C.3       5 GLC5        0.0000 
     67 CA         -0.1270   89.3190  117.5080 C.3      10 GLP5        0.0000 
     68 CA         -2.1350   87.7145  115.2752 C.3       5 GLC5        0.0000 
     69 CA         -1.2060   88.3650  113.7790 C.3      10 GLP5        0.0000 
     70 CA         -2.7933   93.1230  120.6600 C.3       5 GLC5        0.0000 
     71 CA         -0.9490   93.1980  121.7720 C.3      10 GLP5        0.0000 
     72 CA         -6.3649   92.3650  118.7647 C.3       5 GLC5        0.0000 
@<TRIPOS>BOND
@<TRIPOS>SUBSTRUCTURE
     1 ALC1       37 GROUP        1 X    ALC  0     ROOT ALC X 1
     2 SEC2        1 GROUP        1 X    SEC  0     **** SEC X 2
     3 LYC4       17 GROUP        1 X    LYC  0     **** LYC X 4
     4 ZIC7        6 GROUP        1 X    ZIC  0     **** ZIC X 5
     5 GLC5       26 GROUP        1 X    GLC  0     **** GLC X 6
     6 ALP1       39 GROUP        1 Y    ALP  0     ROOT ALP Y 8
     7 SEP2        3 GROUP        1 Y    SEP  0     **** SEP Y 9
     8 LYP4       19 GROUP        1 Y    LYP  0     **** LYP Y 11
     9 ZIP7        8 GROUP        1 Y    ZIP  0     **** ZIP Y 12
    10 GLP5       28 GROUP        1 Y    GLP  0     **** GLP Y 13
    11 ALL1       38 GROUP        1 Z    ALL  0     ROOT ALL Z 15
    12 SEL2        2 GROUP        1 Z    SEL  0     **** SEL Z 16
    13 LYL4       18 GROUP        1 Z    LYL  0     **** LYL Z 18
    14 ZIL7        7 GROUP        1 Z    ZIL  0     **** ZIL Z 19
    15 GLL5       27 GROUP        1 Z    GLL  0     **** GLL Z 20
@<TRIPOS>SET

