#    Name: 13pk_ADP_4_ligand
#    Modification time : Mon Mar 24 17:42:40 2014

@<TRIPOS>MOLECULE
13pk_ADP_4_ligand
   39    41     1     0     0
SMALL
NO_CHARGES


@<TRIPOS>ATOM
      1 PB          0.3410   84.4310  114.5360 P.3       1 ADP421      0.0000 
      2 O1B         0.6090   85.0510  113.2290 O.co2     1 ADP421      0.0000 
      3 O2B        -0.7580   83.2550  114.4760 O.co2     1 ADP421      0.0000 
      4 O3B         1.6320   84.0000  115.1080 O.co2     1 ADP421      0.0000 
      5 PA         -0.6350   85.3880  116.9930 P.3       1 ADP421      0.0000 
      6 O1A        -1.6830   84.4190  117.3580 O.co2     1 ADP421      0.0000 
      7 O2A         0.5530   85.0980  117.8040 O.co2     1 ADP421      0.0000 
      8 O3A        -0.3910   85.4040  115.4600 O.3       1 ADP421      0.0000 
      9 O5'        -1.3460   86.7750  117.1540 O.3       1 ADP421      0.0000 
     10 C5'        -2.4770   86.9990  116.3150 C.3       1 ADP421      0.0000 
     11 C4'        -3.6510   87.1290  117.2280 C.3       1 ADP421      0.0000 
     12 O4'        -3.4490   88.1690  118.2040 O.3       1 ADP421      0.0000 
     13 C3'        -4.9260   87.4220  116.4590 C.3       1 ADP421      0.0000 
     14 O3'        -5.9300   86.4470  116.6940 O.3       1 ADP421      0.0000 
     15 C2'        -5.2720   88.8670  116.7790 C.3       1 ADP421      0.0000 
     16 O2'        -6.6640   89.2190  116.7980 O.3       1 ADP421      0.0000 
     17 C1'        -4.5980   89.0340  118.1250 C.3       1 ADP421      0.0000 
     18 N9         -4.3740   90.5120  118.3170 N.pl3     1 ADP421      0.0000 
     19 C8         -3.6770   91.3180  117.5100 C.2       1 ADP421      0.0000 
     20 N7         -3.7220   92.5570  117.9910 N.2       1 ADP421      0.0000 
     21 C5         -4.4370   92.5650  119.0910 C.ar      1 ADP421      0.0000 
     22 C6         -4.8380   93.5310  120.0050 C.ar      1 ADP421      0.0000 
     23 N6         -4.4700   94.7940  119.8460 N.pl3     1 ADP421      0.0000 
     24 N1         -5.5980   93.2080  121.0730 N.ar      1 ADP421      0.0000 
     25 C2         -5.9920   91.9350  121.2680 C.ar      1 ADP421      0.0000 
     26 N3         -5.6200   90.9880  120.3930 N.ar      1 ADP421      0.0000 
     27 C4         -4.8580   91.2460  119.3090 C.ar      1 ADP421      0.0000 
     28 H          -2.6465   86.1660  115.6402 H         1 ADP421      0.0000 
     29 H          -2.3748   87.9142  115.7406 H         1 ADP421      0.0000 
     30 H          -3.7992   86.1710  117.7426 H         1 ADP421      0.0000 
     31 H          -4.6147   87.4158  115.3827 H         1 ADP421      0.0000 
     32 H          -4.6925   89.4847  116.0818 H         1 ADP421      0.0000 
     33 H          -5.3627   88.7198  118.8703 H         1 ADP421      0.0000 
     34 H          -3.2115   91.0384  116.6993 H         1 ADP421      0.0000 
     35 H          -4.7863   95.4358  120.5447 H         1 ADP421      0.0000 
     36 H          -3.9093   94.9910  119.0417 H         1 ADP421      0.0000 
     37 H          -6.5795   91.6902  122.0904 H         1 ADP421      0.0000 
     38 H          -6.5947   86.5776  115.9584 H         1 ADP421      0.0000 
     39 H          -7.0197   88.9153  115.9141 H         1 ADP421      0.0000 
@<TRIPOS>BOND
     1    2    1 ar   
     2    3    1 ar   
     3    4    1 ar   
     4    8    1 1    
     5    6    5 ar   
     6    7    5 ar   
     7    8    5 1    
     8    9    5 1    
     9   10    9 1    
    10   11   10 1    
    11   28   10 1    
    12   29   10 1    
    13   12   11 1    
    14   13   11 1    
    15   30   11 1    
    16   17   12 1    
    17   14   13 1    
    18   15   13 1    
    19   31   13 1    
    20   38   14 1    
    21   16   15 1    
    22   17   15 1    
    23   32   15 1    
    24   39   16 1    
    25   18   17 1    
    26   33   17 1    
    27   19   18 1    
    28   27   18 1    
    29   20   19 2    
    30   34   19 1    
    31   21   20 1    
    32   22   21 ar   
    33   27   21 ar   
    34   23   22 1    
    35   24   22 ar   
    36   35   23 1    
    37   36   23 1    
    38   25   24 ar   
    39   26   25 ar   
    40   37   25 1    
    41   27   26 ar   
@<TRIPOS>SUBSTRUCTURE
     1 ADP421      1 GROUP   
@<TRIPOS>SET

