#    Name: 2gf0_GDP_3_INTS_M
#    Modification time : Tue Mar 25 14:04:22 2014

@<TRIPOS>MOLECULE
2gf0_GDP_3_INTS_M
   63     0    15     0     0
SMALL
NO_CHARGES


@<TRIPOS>ATOM
      1 NZ        -12.6670   23.5795    5.2825 N.4       3 LYC4        0.0000 
      2 NZ        -11.4040   22.9030    5.4840 N.4      13 LYL4        0.0000 
      3 NZ        -13.9300   24.2560    5.0810 N.4       8 LYP4        0.0000 
      4 N         -10.1945   22.4185    4.6995 N.am      2 SEC2        0.0000 
      5 N         -11.4040   22.9030    5.4840 N.am     12 SEL2        0.0000 
      6 N          -8.9850   21.9340    3.9150 N.am      7 SEP2        0.0000 
      7 N         -10.2630   23.7660    5.0770 N.am      2 SEC2        0.0000 
      8 N          -9.1220   24.6290    4.6700 N.am      7 SEP2        0.0000 
      9 N         -12.6670   23.5795    5.2825 N.am      2 SEC2        0.0000 
     10 N         -13.9300   24.2560    5.0810 N.am      7 SEP2        0.0000 
     11 NZ        -13.0600   22.9855    6.2670 N.4       3 LYC4        0.0000 
     12 NZ        -12.1900   21.7150    7.4530 N.4      13 LYL4        0.0000 
     13 N         -12.6095   20.7355    6.4965 N.am      2 SEC2        0.0000 
     14 N         -12.1900   21.7150    7.4530 N.am     12 SEL2        0.0000 
     15 N         -13.0290   19.7560    5.5400 N.am      7 SEP2        0.0000 
     16 Zn        -11.2375   24.1390    8.5805 Zn        4 ZIC7        0.0000 
     17 Zn        -10.7990   23.7550    7.7810 Zn       14 ZIL7        0.0000 
     18 Zn        -11.6760   24.5230    9.3800 Zn        9 ZIP7        0.0000 
     19 N          -9.8090   24.8090    7.5195 N.am      2 SEC2        0.0000 
     20 N         -10.7990   23.7550    7.7810 N.am     12 SEL2        0.0000 
     21 N          -8.8190   25.8630    7.2580 N.am      7 SEP2        0.0000 
     22 N          -9.3650   21.7825    5.3440 N.am      2 SEC2        0.0000 
     23 N          -9.7450   21.6310    6.7730 N.am     12 SEL2        0.0000 
     24 N          -6.9600   23.8215    7.7585 N.am      2 SEC2        0.0000 
     25 N          -7.6540   22.6060    7.7880 N.am     12 SEL2        0.0000 
     26 N          -6.2660   25.0370    7.7290 N.am      7 SEP2        0.0000 
     27 N          -6.2635   22.5085    7.8190 N.am      2 SEC2        0.0000 
     28 N          -4.8730   22.4110    7.8500 N.am      7 SEP2        0.0000 
     29 CA        -10.2110   18.8730    6.2965 C.3       5 GLC5        0.0000 
     30 CA         -8.4990   18.9010    7.3120 C.3      15 GLL5        0.0000 
     31 CA        -11.9230   18.8450    5.2810 C.3      10 GLP5        0.0000 
     32 O          -5.0215   16.5410    9.6895 O.2       1 ALC1        0.0000 
     33 O          -6.0100   16.6390    8.6280 O.2      11 ALL1        0.0000 
     34 O          -4.0330   16.4430   10.7510 O.2       6 ALP1        0.0000 
     35 CA         -3.1535   19.2240    7.4495 C.3       5 GLC5        0.0000 
     36 CA         -5.2530   18.6810    7.6290 C.3      15 GLL5        0.0000 
     37 CA         -1.0540   19.7670    7.2700 C.3      10 GLP5        0.0000 
     38 O          -3.9930   17.3995    9.4265 O.2       1 ALC1        0.0000 
     39 O          -3.9530   18.3560    8.1020 O.2      11 ALL1        0.0000 
     40 CA         -6.2045   18.1965    4.3415 C.3       5 GLC5        0.0000 
     41 CA         -5.3610   18.2180    6.1910 C.3      15 GLL5        0.0000 
     42 CA         -7.0480   18.1750    2.4920 C.3      10 GLP5        0.0000 
     43 N          -4.7240   21.8950    3.0300 N.am      2 SEC2        0.0000 
     44 N          -4.1120   21.1360    4.3040 N.am     12 SEL2        0.0000 
     45 N          -5.3360   22.6540    1.7560 N.am      7 SEP2        0.0000 
     46 CA         -4.4050   19.5540    2.2665 C.3       5 GLC5        0.0000 
     47 CA         -3.3910   20.1410    3.7760 C.3      15 GLL5        0.0000 
     48 CA         -5.4190   18.9670    0.7570 C.3      10 GLP5        0.0000 
     49 CA         -2.7290   22.1350    4.0510 C.3       5 GLC5        0.0000 
     50 CA         -2.0670   24.1290    4.3260 C.3      10 GLP5        0.0000 
     51 CA         -1.1695   19.9870    3.9915 C.3       5 GLC5        0.0000 
     52 CA          1.0520   19.8330    4.2070 C.3      10 GLP5        0.0000 
     53 N          -0.8025   21.6185    3.0440 N.am      2 SEC2        0.0000 
     54 N          -1.9840   21.0490    2.1480 N.am     12 SEL2        0.0000 
     55 N           0.3790   22.1880    3.9400 N.am      7 SEP2        0.0000 
     56 O          -0.9550   18.8060    1.4245 O.2       1 ALC1        0.0000 
     57 O          -1.8910   18.7920    2.4740 O.2      11 ALL1        0.0000 
     58 O          -0.0190   18.8200    0.3750 O.2       6 ALP1        0.0000 
     59 O          -0.6715   16.6045    1.8175 O.2       1 ALC1        0.0000 
     60 O          -1.7730   16.5110    2.7960 O.2      11 ALL1        0.0000 
     61 O           0.4300   16.6980    0.8390 O.2       6 ALP1        0.0000 
     62 CA         -5.4180   18.5350    3.4655 C.3       5 GLC5        0.0000 
     63 CA         -3.7880   18.8950    4.4390 C.3      15 GLL5        0.0000 
@<TRIPOS>BOND
@<TRIPOS>SUBSTRUCTURE
     1 ALC1       32 GROUP        1 X    ALC  0     ROOT ALC X 1
     2 SEC2        4 GROUP        1 X    SEC  0     **** SEC X 2
     3 LYC4        1 GROUP        1 X    LYC  0     **** LYC X 4
     4 ZIC7       16 GROUP        1 X    ZIC  0     **** ZIC X 5
     5 GLC5       29 GROUP        1 X    GLC  0     **** GLC X 6
     6 ALP1       34 GROUP        1 Y    ALP  0     ROOT ALP Y 8
     7 SEP2        6 GROUP        1 Y    SEP  0     **** SEP Y 9
     8 LYP4        3 GROUP        1 Y    LYP  0     **** LYP Y 11
     9 ZIP7       18 GROUP        1 Y    ZIP  0     **** ZIP Y 12
    10 GLP5       31 GROUP        1 Y    GLP  0     **** GLP Y 13
    11 ALL1       33 GROUP        1 Z    ALL  0     ROOT ALL Z 15
    12 SEL2        5 GROUP        1 Z    SEL  0     **** SEL Z 16
    13 LYL4        2 GROUP        1 Z    LYL  0     **** LYL Z 18
    14 ZIL7       17 GROUP        1 Z    ZIL  0     **** ZIL Z 19
    15 GLL5       30 GROUP        1 Z    GLL  0     **** GLL Z 20
@<TRIPOS>SET

