#    Name: 2gf0_GDP_3_ligand
#    Modification time : Tue Mar 25 14:04:22 2014

@<TRIPOS>MOLECULE
2gf0_GDP_3_ligand
   40    42     1     0     0
SMALL
NO_CHARGES


@<TRIPOS>ATOM
      1 PB        -11.0570   22.5590    6.9150 P.3       1 GDP1001     0.0000 
      2 O1B       -11.4040   22.9030    5.4840 O.co2     1 GDP1001     0.0000 
      3 O2B       -12.1900   21.7150    7.4530 O.co2     1 GDP1001     0.0000 
      4 O3B       -10.7990   23.7550    7.7810 O.co2     1 GDP1001     0.0000 
      5 O3A        -9.7450   21.6310    6.7730 O.3       1 GDP1001     0.0000 
      6 PA         -8.6060   21.4510    7.8870 P.3       1 GDP1001     0.0000 
      7 O1A        -9.1880   21.2440    9.2550 O.co2     1 GDP1001     0.0000 
      8 O2A        -7.6540   22.6060    7.7880 O.co2     1 GDP1001     0.0000 
      9 O5'        -7.8800   20.1780    7.2460 O.3       1 GDP1001     0.0000 
     10 C5'        -8.4990   18.9010    7.3120 C.3       1 GDP1001     0.0000 
     11 C4'        -7.4330   17.8290    7.1790 C.3       1 GDP1001     0.0000 
     12 O4'        -6.7430   17.9870    5.9230 O.3       1 GDP1001     0.0000 
     13 C3'        -6.4040   17.9520    8.2840 C.3       1 GDP1001     0.0000 
     14 O3'        -6.0100   16.6390    8.6280 O.3       1 GDP1001     0.0000 
     15 C2'        -5.2530   18.6810    7.6290 C.3       1 GDP1001     0.0000 
     16 O2'        -3.9530   18.3560    8.1020 O.3       1 GDP1001     0.0000 
     17 C1'        -5.3610   18.2180    6.1910 C.3       1 GDP1001     0.0000 
     18 N9         -4.7140   19.2310    5.3200 N.pl3     1 GDP1001     0.0000 
     19 C8         -4.9000   20.5720    5.2620 C.2       1 GDP1001     0.0000 
     20 N7         -4.1120   21.1360    4.3040 N.2       1 GDP1001     0.0000 
     21 C5         -3.3910   20.1410    3.7760 C.2       1 GDP1001     0.0000 
     22 C6         -2.3820   20.0150    2.7290 C.2       1 GDP1001     0.0000 
     23 O6         -1.9840   21.0490    2.1480 O.2       1 GDP1001     0.0000 
     24 N1         -1.8910   18.7920    2.4740 N.am      1 GDP1001     0.0000 
     25 C2         -2.2990   17.6860    3.1220 C.2       1 GDP1001     0.0000 
     26 N2         -1.7730   16.5110    2.7960 N.pl3     1 GDP1001     0.0000 
     27 N3         -3.2290   17.7140    4.0780 N.2       1 GDP1001     0.0000 
     28 C4         -3.7880   18.8950    4.4390 C.2       1 GDP1001     0.0000 
     29 H          -9.2249   18.7571    6.5052 H         1 GDP1001     0.0000 
     30 H          -9.0159   18.7467    8.2647 H         1 GDP1001     0.0000 
     31 H          -7.8930   16.8638    7.2418 H         1 GDP1001     0.0000 
     32 H          -6.7936   18.5119    9.0616 H         1 GDP1001     0.0000 
     33 H          -5.4629   19.7291    7.6310 H         1 GDP1001     0.0000 
     34 H          -4.7967   17.2828    6.1294 H         1 GDP1001     0.0000 
     35 H          -5.5186   21.0739    5.8320 H         1 GDP1001     0.0000 
     36 H          -1.1424   18.6912    1.7228 H         1 GDP1001     0.0000 
     37 H          -2.0700   15.7288    3.3437 H         1 GDP1001     0.0000 
     38 H          -1.1274   16.5146    2.0323 H         1 GDP1001     0.0000 
     39 H          -5.3113   16.7552    9.3339 H         1 GDP1001     0.0000 
     40 H          -4.1025   17.9137    8.9863 H         1 GDP1001     0.0000 
@<TRIPOS>BOND
     1    2    1 ar   
     2    3    1 ar   
     3    4    1 ar   
     4    5    1 1    
     5    6    5 1    
     6    7    6 ar   
     7    8    6 ar   
     8    9    6 1    
     9   10    9 1    
    10   11   10 1    
    11   29   10 1    
    12   30   10 1    
    13   12   11 1    
    14   13   11 1    
    15   31   11 1    
    16   17   12 1    
    17   14   13 1    
    18   15   13 1    
    19   32   13 1    
    20   39   14 1    
    21   16   15 1    
    22   17   15 1    
    23   33   15 1    
    24   40   16 1    
    25   18   17 1    
    26   34   17 1    
    27   19   18 1    
    28   28   18 1    
    29   20   19 2    
    30   35   19 1    
    31   21   20 1    
    32   22   21 1    
    33   28   21 2    
    34   23   22 2    
    35   24   22 am   
    36   25   24 1    
    37   36   24 1    
    38   26   25 1    
    39   27   25 2    
    40   37   26 1    
    41   38   26 1    
    42   28   27 1    
@<TRIPOS>SUBSTRUCTURE
     1 GDP1001     1 GROUP   
@<TRIPOS>SET

