#    Name: 2xka_GSP_3_INTS_M
#    Modification time : Tue Mar 25 06:09:29 2014

@<TRIPOS>MOLECULE
2xka_GSP_3_INTS_M
   59     0    12     0     0
SMALL
NO_CHARGES


@<TRIPOS>ATOM
      1 N          39.8875  -34.3855   79.1785 N.am      2 SEC2        0.0000 
      2 N          38.7070  -35.4270   78.9490 N.am     10 SEL2        0.0000 
      3 N          41.0680  -33.3440   79.4080 N.am      6 SEP2        0.0000 
      4 CA         40.1435  -33.3560   75.2905 C.3       4 GLC5        0.0000 
      5 CA         39.0830  -34.4840   76.4260 C.3      12 GLL5        0.0000 
      6 CA         41.2040  -32.2280   74.1550 C.3       8 GLP5        0.0000 
      7 CA         40.7700  -34.6950   77.3120 C.3       4 GLC5        0.0000 
      8 CA         42.4570  -34.9060   78.1980 C.3       8 GLP5        0.0000 
      9 CA         39.0420  -32.8835   77.6185 C.3       4 GLC5        0.0000 
     10 CA         39.0010  -31.2830   78.8110 C.3       8 GLP5        0.0000 
     11 N          40.1770  -36.5670   77.7175 N.am      2 SEC2        0.0000 
     12 N          38.7140  -37.0310   77.0020 N.am     10 SEL2        0.0000 
     13 N          41.6400  -36.1030   78.4330 N.am      6 SEP2        0.0000 
     14 Zn         36.1475  -34.7890   77.7620 Zn        3 ZIC7        0.0000 
     15 Zn         36.7270  -35.3980   77.3190 Zn       11 ZIL7        0.0000 
     16 Zn         35.5680  -34.1800   78.2050 Zn        7 ZIP7        0.0000 
     17 Zn         35.9455  -34.7805   78.9525 Zn        3 ZIC7        0.0000 
     18 Zn         36.3230  -35.3810   79.7000 Zn       11 ZIL7        0.0000 
     19 N          35.6270  -35.0455   81.2105 N.am      2 SEC2        0.0000 
     20 N          36.3230  -35.3810   79.7000 N.am     10 SEL2        0.0000 
     21 N          34.9310  -34.7100   82.7210 N.am      6 SEP2        0.0000 
     22 N          36.5205  -34.8455   82.0440 N.am      2 SEC2        0.0000 
     23 N          38.1100  -34.9810   81.3670 N.am     10 SEL2        0.0000 
     24 N          39.3385  -34.3680   81.7935 N.am      2 SEC2        0.0000 
     25 N          40.5670  -33.7550   82.2200 N.am      6 SEP2        0.0000 
     26 N          35.0485  -37.1610   83.3540 N.am      2 SEC2        0.0000 
     27 N          35.8940  -37.4860   82.2350 N.am     10 SEL2        0.0000 
     28 N          34.2030  -36.8360   84.4730 N.am      6 SEP2        0.0000 
     29 CA         39.6010  -38.9895   80.9265 C.3       4 GLC5        0.0000 
     30 CA         38.1990  -39.8400   82.2950 C.3      12 GLL5        0.0000 
     31 CA         41.0030  -38.1390   79.5580 C.3       8 GLP5        0.0000 
     32 O          39.3940  -44.0285   80.6070 O.2       1 ALC1        0.0000 
     33 O          38.6590  -43.4120   81.6530 O.2       9 ALL1        0.0000 
     34 O          40.1290  -44.6450   79.5610 O.2       5 ALP1        0.0000 
     35 CA         31.5855  -40.1930   84.8200 C.3       4 GLC5        0.0000 
     36 CA         33.1920  -41.6070   85.0870 C.3      12 GLL5        0.0000 
     37 CA         29.9790  -38.7790   84.5530 C.3       8 GLP5        0.0000 
     38 N          30.5150  -40.6530   85.2615 N.am      2 SEC2        0.0000 
     39 N          31.4120  -41.1070   86.3190 N.am     10 SEL2        0.0000 
     40 N          29.6180  -40.1990   84.2040 N.am      6 SEP2        0.0000 
     41 N          30.8260  -40.8765   87.5910 N.am      2 SEC2        0.0000 
     42 N          30.2400  -40.6460   88.8630 N.am      6 SEP2        0.0000 
     43 O          32.4380  -42.0525   88.6160 O.2       1 ALC1        0.0000 
     44 O          32.9660  -42.4150   87.3090 O.2       9 ALL1        0.0000 
     45 O          31.9100  -41.6900   89.9230 O.2       5 ALP1        0.0000 
     46 O          35.6305  -44.7550   87.8745 O.2       1 ALC1        0.0000 
     47 O          34.6130  -43.7570   88.2680 O.2       9 ALL1        0.0000 
     48 O          36.6480  -45.7530   87.4810 O.2       5 ALP1        0.0000 
     49 N          36.1905  -44.1450   85.7270 N.am      2 SEC2        0.0000 
     50 N          34.9180  -42.9920   86.0270 N.am     10 SEL2        0.0000 
     51 N          37.4630  -45.2980   85.4270 N.am      6 SEP2        0.0000 
     52 CA         38.7117  -39.8020   84.2845 C.3       4 GLC5        0.0000 
     53 CA         38.1780  -41.3100   82.7210 C.3      12 GLL5        0.0000 
     54 CA         39.2350  -39.0290   86.0610 C.3       8 GLP5        0.0000 
     55 CA         34.5450  -40.7175   86.0560 C.3       4 GLC5        0.0000 
     56 CA         34.4180  -42.2590   84.9750 C.3      12 GLL5        0.0000 
     57 CA         35.2850  -39.5020   87.0810 C.3       8 GLP5        0.0000 
     58 CA         32.4440  -42.9730   84.2165 C.3       4 GLC5        0.0000 
     59 CA         31.0830  -44.0130   83.4020 C.3       8 GLP5        0.0000 
@<TRIPOS>BOND
@<TRIPOS>SUBSTRUCTURE
     1 ALC1       32 GROUP        1 X    ALC  0     ROOT ALC X 1
     2 SEC2        1 GROUP        1 X    SEC  0     **** SEC X 2
     3 ZIC7       14 GROUP        1 X    ZIC  0     **** ZIC X 5
     4 GLC5        4 GROUP        1 X    GLC  0     **** GLC X 6
     5 ALP1       34 GROUP        1 Y    ALP  0     ROOT ALP Y 8
     6 SEP2        3 GROUP        1 Y    SEP  0     **** SEP Y 9
     7 ZIP7       16 GROUP        1 Y    ZIP  0     **** ZIP Y 12
     8 GLP5        6 GROUP        1 Y    GLP  0     **** GLP Y 13
     9 ALL1       33 GROUP        1 Z    ALL  0     ROOT ALL Z 15
    10 SEL2        2 GROUP        1 Z    SEL  0     **** SEL Z 16
    11 ZIL7       15 GROUP        1 Z    ZIL  0     **** ZIL Z 19
    12 GLL5        5 GROUP        1 Z    GLL  0     **** GLL Z 20
@<TRIPOS>SET

