#    Name: 2xka_GSP_3_ligand
#    Modification time : Tue Mar 25 06:09:29 2014

@<TRIPOS>MOLECULE
2xka_GSP_3_ligand
   45    47     1     0     0
SMALL
NO_CHARGES


@<TRIPOS>ATOM
      1 PG         38.2530  -35.6150   77.4160 P.3       1 GSP900      0.0000 
      2 O3B        38.7070  -35.4270   78.9490 O.3       1 GSP900      0.0000 
      3 S1G        39.0830  -34.4840   76.4260 S.2       1 GSP900      0.0000 
      4 O2G        38.7140  -37.0310   77.0020 O.3       1 GSP900      0.0000 
      5 O3G        36.7270  -35.3980   77.3190 O.3       1 GSP900      0.0000 
      6 PB         37.6990  -35.7380   80.1640 P.3       1 GSP900      0.0000 
      7 O1B        36.3230  -35.3810   79.7000 O.co2     1 GSP900      0.0000 
      8 O2B        38.1100  -34.9810   81.3670 O.co2     1 GSP900      0.0000 
      9 PA         36.5530  -38.1250   81.0570 P.3       1 GSP900      0.0000 
     10 O1A        35.5210  -38.2640   79.9920 O.co2     1 GSP900      0.0000 
     11 O2A        35.8940  -37.4860   82.2350 O.co2     1 GSP900      0.0000 
     12 O3A        37.8260  -37.3270   80.4600 O.3       1 GSP900      0.0000 
     13 O5'        37.1190  -39.5800   81.4290 O.3       1 GSP900      0.0000 
     14 C5'        38.1990  -39.8400   82.2950 C.3       1 GSP900      0.0000 
     15 C4'        38.1780  -41.3100   82.7210 C.3       1 GSP900      0.0000 
     16 O4'        37.1450  -41.5380   83.6670 O.3       1 GSP900      0.0000 
     17 C3'        37.8820  -42.2360   81.5560 C.3       1 GSP900      0.0000 
     18 O3'        38.6590  -43.4120   81.6530 O.3       1 GSP900      0.0000 
     19 C2'        36.3750  -42.4790   81.6760 C.3       1 GSP900      0.0000 
     20 O2'        35.9470  -43.6790   81.0540 O.3       1 GSP900      0.0000 
     21 C1'        36.1750  -42.4520   83.1800 C.3       1 GSP900      0.0000 
     22 N9         34.8820  -41.9870   83.6950 N.pl3     1 GSP900      0.0000 
     23 C8         33.9610  -41.1790   83.0840 C.2       1 GSP900      0.0000 
     24 N7         32.9320  -40.9530   83.9450 N.2       1 GSP900      0.0000 
     25 C5         33.1920  -41.6070   85.0870 C.2       1 GSP900      0.0000 
     26 C6         32.4750  -41.6960   86.2450 C.2       1 GSP900      0.0000 
     27 O6         31.4120  -41.1070   86.3190 O.2       1 GSP900      0.0000 
     28 N1         32.9660  -42.4150   87.3090 N.am      1 GSP900      0.0000 
     29 C2         34.1850  -43.0660   87.2080 C.2       1 GSP900      0.0000 
     30 N2         34.6130  -43.7570   88.2680 N.pl3     1 GSP900      0.0000 
     31 N3         34.9180  -42.9920   86.0270 N.2       1 GSP900      0.0000 
     32 C4         34.4180  -42.2590   84.9750 C.2       1 GSP900      0.0000 
     33 H          38.1553  -39.2330   83.2094 H         1 GSP900      0.0000 
     34 H          39.1703  -39.6506   81.8183 H         1 GSP900      0.0000 
     35 H          39.1371  -41.5731   83.1263 H         1 GSP900      0.0000 
     36 H          38.0514  -41.6787   80.6559 H         1 GSP900      0.0000 
     37 H          35.8926  -41.5915   81.2794 H         1 GSP900      0.0000 
     38 H          36.4052  -43.4383   83.5742 H         1 GSP900      0.0000 
     39 H          34.0341  -40.8298   82.1896 H         1 GSP900      0.0000 
     40 H          32.4278  -42.4731   88.1892 H         1 GSP900      0.0000 
     41 H          33.9927  -43.7897   89.0517 H         1 GSP900      0.0000 
     42 H          35.5153  -44.1796   88.1827 H         1 GSP900      0.0000 
     43 H          39.6796  -36.9290   76.7626 H         1 GSP900      0.0000 
     44 H          39.0397  -43.5467   80.7382 H         1 GSP900      0.0000 
     45 H          36.7605  -44.2598   81.0251 H         1 GSP900      0.0000 
@<TRIPOS>BOND
     1    2    1 1    
     2    3    1 2    
     3    4    1 1    
     4    5    1 1    
     5    6    2 1    
     6   43    4 1    
     7    7    6 ar   
     8    8    6 ar   
     9   12    6 1    
    10   10    9 ar   
    11   11    9 ar   
    12   12    9 1    
    13   13    9 1    
    14   14   13 1    
    15   15   14 1    
    16   33   14 1    
    17   34   14 1    
    18   16   15 1    
    19   17   15 1    
    20   35   15 1    
    21   21   16 1    
    22   18   17 1    
    23   19   17 1    
    24   36   17 1    
    25   44   18 1    
    26   20   19 1    
    27   21   19 1    
    28   37   19 1    
    29   45   20 1    
    30   22   21 1    
    31   38   21 1    
    32   23   22 1    
    33   32   22 1    
    34   24   23 2    
    35   39   23 1    
    36   25   24 1    
    37   26   25 1    
    38   32   25 2    
    39   27   26 2    
    40   28   26 am   
    41   29   28 1    
    42   40   28 1    
    43   30   29 1    
    44   31   29 2    
    45   41   30 1    
    46   42   30 1    
    47   32   31 1    
@<TRIPOS>SUBSTRUCTURE
     1 GSP900      1 GROUP   
@<TRIPOS>SET

