#    Name: 2ozo_ANP_1_INTS_M
#    Modification time : Mon Mar 24 18:06:03 2014

@<TRIPOS>MOLECULE
2ozo_ANP_1_INTS_M
   61     0    15     0     0
SMALL
NO_CHARGES


@<TRIPOS>ATOM
      1 Zn         27.1515  -21.6310   -8.3950 Zn        4 ZIC7        0.0000 
      2 Zn         27.7050  -22.8830   -8.6560 Zn       14 ZIL7        0.0000 
      3 Zn         26.5980  -20.3790   -8.1340 Zn        9 ZIP7        0.0000 
      4 NZ         30.3195  -23.6465   -6.6550 N.4       3 LYC4        0.0000 
      5 NZ         29.7340  -24.0220   -7.8000 N.4      13 LYL4        0.0000 
      6 NZ         31.3280  -24.0360   -4.5050 N.4       8 LYP4        0.0000 
      7 N          30.3195  -23.6465   -6.6550 N.am      2 SEC2        0.0000 
      8 N          29.7340  -24.0220   -7.8000 N.am     12 SEL2        0.0000 
      9 N          30.9050  -23.2710   -5.5100 N.am      7 SEP2        0.0000 
     10 Zn         27.7555  -20.0785   -7.8490 Zn        4 ZIC7        0.0000 
     11 Zn         28.9130  -19.7780   -7.5640 Zn       14 ZIL7        0.0000 
     12 NZ         26.1375  -20.4295  -11.9180 N.4       3 LYC4        0.0000 
     13 NZ         27.7260  -19.5240  -12.3130 N.4      13 LYL4        0.0000 
     14 NZ         24.5490  -21.3350  -11.5230 N.4       8 LYP4        0.0000 
     15 NZ         25.4655  -20.2030  -10.8855 N.4       3 LYC4        0.0000 
     16 NZ         26.3820  -19.0710  -10.2480 N.4      13 LYL4        0.0000 
     17 Zn         26.4900  -19.7250   -9.1910 Zn        4 ZIC7        0.0000 
     18 Zn         26.3820  -19.0710  -10.2480 Zn       14 ZIL7        0.0000 
     19 N          25.4655  -20.2030  -10.8855 N.am      2 SEC2        0.0000 
     20 N          26.3820  -19.0710  -10.2480 N.am     12 SEL2        0.0000 
     21 N          24.5490  -21.3350  -11.5230 N.am      7 SEP2        0.0000 
     22 Zn         27.6140  -20.2910   -9.0660 Zn        4 ZIC7        0.0000 
     23 Zn         28.6300  -20.2030   -9.9980 Zn       14 ZIL7        0.0000 
     24 CA         28.7365  -14.5960   -7.0520 C.3       5 GLC5        0.0000 
     25 CA         28.0310  -14.7900   -8.6530 C.3      15 GLL5        0.0000 
     26 CA         29.4420  -14.4020   -5.4510 C.3      10 GLP5        0.0000 
     27 CA         27.9235  -13.4665   -7.2590 C.3       5 GLC5        0.0000 
     28 CA         26.8300  -13.9590   -9.0230 C.3      15 GLL5        0.0000 
     29 CA         29.0170  -12.9740   -5.4950 C.3      10 GLP5        0.0000 
     30 CA         25.8995  -15.6895  -12.0375 C.3       5 GLC5        0.0000 
     31 CA         26.3370  -14.3980  -10.4040 C.3      15 GLL5        0.0000 
     32 CA         25.4620  -16.9810  -13.6710 C.3      10 GLP5        0.0000 
     33 CA         20.7405  -13.6895   -8.1115 C.3       5 GLC5        0.0000 
     34 CA         21.4140  -14.5490   -9.9960 C.3      15 GLL5        0.0000 
     35 CA         20.0670  -12.8300   -6.2270 C.3      10 GLP5        0.0000 
     36 O          18.9335  -14.8400   -9.7185 O.2       1 ALC1        0.0000 
     37 O          20.3430  -15.3160   -9.9110 O.2      11 ALL1        0.0000 
     38 O          17.5240  -14.3640   -9.5260 O.2       6 ALP1        0.0000 
     39 N          20.2965  -12.4345   -9.0965 N.am      2 SEC2        0.0000 
     40 N          21.2890  -13.1850   -9.9510 N.am     12 SEL2        0.0000 
     41 N          19.3040  -11.6840   -8.2420 N.am      7 SEP2        0.0000 
     42 CA         22.8685  -11.6635  -11.8455 C.3       5 GLC5        0.0000 
     43 CA         22.3860  -12.4180  -10.0340 C.3      15 GLL5        0.0000 
     44 CA         23.3510  -10.9090  -13.6570 C.3      10 GLP5        0.0000 
     45 CA         21.0200  -13.2720  -11.4805 C.3       5 GLC5        0.0000 
     46 CA         19.6540  -14.1260  -12.9270 C.3      10 GLP5        0.0000 
     47 CA         21.1495  -11.1390  -10.5595 C.3       5 GLC5        0.0000 
     48 CA         19.9130   -9.8600  -11.0850 C.3      10 GLP5        0.0000 
     49 CA         21.1590  -11.9565   -8.4855 C.3       5 GLC5        0.0000 
     50 CA         19.9320  -11.4950   -6.9370 C.3      10 GLP5        0.0000 
     51 CA         22.4570  -10.6635   -8.9940 C.3       5 GLC5        0.0000 
     52 CA         22.5280   -8.9090   -7.9540 C.3      10 GLP5        0.0000 
     53 CA         26.2632  -14.9027   -7.2455 C.3       5 GLC5        0.0000 
     54 CA         25.0960  -15.4310   -5.6530 C.3      10 GLP5        0.0000 
     55 CA         23.5470  -14.8800  -12.0080 C.3       5 GLC5        0.0000 
     56 CA         23.7760  -14.2120  -10.2020 C.3      15 GLL5        0.0000 
     57 CA         23.8370  -15.0950  -13.8490 C.3      10 GLP5        0.0000 
     58 CA         20.8650  -14.4797  -11.4955 C.3       5 GLC5        0.0000 
     59 CA         22.7380  -15.1180  -10.1320 C.3      15 GLL5        0.0000 
     60 CA         22.9670  -15.2664   -8.5005 C.3       5 GLC5        0.0000 
     61 CA         23.0080  -16.0100   -6.8680 C.3      10 GLP5        0.0000 
@<TRIPOS>BOND
@<TRIPOS>SUBSTRUCTURE
     1 ALC1       36 GROUP        1 X    ALC  0     ROOT ALC X 1
     2 SEC2        7 GROUP        1 X    SEC  0     **** SEC X 2
     3 LYC4        4 GROUP        1 X    LYC  0     **** LYC X 4
     4 ZIC7        1 GROUP        1 X    ZIC  0     **** ZIC X 5
     5 GLC5       24 GROUP        1 X    GLC  0     **** GLC X 6
     6 ALP1       38 GROUP        1 Y    ALP  0     ROOT ALP Y 8
     7 SEP2        9 GROUP        1 Y    SEP  0     **** SEP Y 9
     8 LYP4        6 GROUP        1 Y    LYP  0     **** LYP Y 11
     9 ZIP7        3 GROUP        1 Y    ZIP  0     **** ZIP Y 12
    10 GLP5       26 GROUP        1 Y    GLP  0     **** GLP Y 13
    11 ALL1       37 GROUP        1 Z    ALL  0     ROOT ALL Z 15
    12 SEL2        8 GROUP        1 Z    SEL  0     **** SEL Z 16
    13 LYL4        5 GROUP        1 Z    LYL  0     **** LYL Z 18
    14 ZIL7        2 GROUP        1 Z    ZIL  0     **** ZIL Z 19
    15 GLL5       25 GROUP        1 Z    GLL  0     **** GLL Z 20
@<TRIPOS>SET

