#    Name: 2ozo_ANP_1_ligand
#    Modification time : Mon Mar 24 18:06:03 2014

@<TRIPOS>MOLECULE
2ozo_ANP_1_ligand
   43    45     1     0     0
SMALL
NO_CHARGES


@<TRIPOS>ATOM
      1 PG         29.1610  -23.1770   -8.8860 P.3       1 ANP615      0.0000 
      2 O1G        29.4740  -23.6810  -10.2720 O.co2     1 ANP615      0.0000 
      3 O2G        27.7050  -22.8830   -8.6560 O.co2     1 ANP615      0.0000 
      4 O3G        29.7340  -24.0220   -7.8000 O.co2     1 ANP615      0.0000 
      5 PB         29.6170  -20.1780   -8.8110 P.3       1 ANP615      0.0000 
      6 O1B        30.8060  -19.4250   -9.1970 O.co2     1 ANP615      0.0000 
      7 O2B        28.9130  -19.7780   -7.5640 O.co2     1 ANP615      0.0000 
      8 N3B        30.0250  -21.7850   -8.7240 N.4       1 ANP615      0.0000 
      9 PA         27.7100  -19.2320  -10.8610 P.3       1 ANP615      0.0000 
     10 O1A        27.7260  -19.5240  -12.3130 O.co2     1 ANP615      0.0000 
     11 O2A        26.3820  -19.0710  -10.2480 O.co2     1 ANP615      0.0000 
     12 O3A        28.6300  -20.2030   -9.9980 O.3       1 ANP615      0.0000 
     13 O5'        28.4920  -17.9200  -10.6330 O.3       1 ANP615      0.0000 
     14 C5'        28.2180  -17.1110   -9.4980 C.3       1 ANP615      0.0000 
     15 C4'        28.2890  -15.6810   -9.8360 C.3       1 ANP615      0.0000 
     16 O4'        27.2780  -15.4090  -10.8260 O.3       1 ANP615      0.0000 
     17 C3'        28.0310  -14.7900   -8.6530 C.3       1 ANP615      0.0000 
     18 O3'        29.2290  -14.0610   -8.4380 O.3       1 ANP615      0.0000 
     19 C2'        26.8300  -13.9590   -9.0230 C.3       1 ANP615      0.0000 
     20 O2'        27.1150  -12.5510   -9.0820 O.3       1 ANP615      0.0000 
     21 C1'        26.3370  -14.3980  -10.4040 C.3       1 ANP615      0.0000 
     22 N9         24.9310  -14.9550  -10.3160 N.pl3     1 ANP615      0.0000 
     23 C8         24.4960  -16.2680  -10.3120 C.2       1 ANP615      0.0000 
     24 N7         23.2020  -16.4230  -10.2060 N.2       1 ANP615      0.0000 
     25 C5         22.7380  -15.1180  -10.1320 C.ar      1 ANP615      0.0000 
     26 C6         21.4140  -14.5490   -9.9960 C.ar      1 ANP615      0.0000 
     27 N6         20.3430  -15.3160   -9.9110 N.pl3     1 ANP615      0.0000 
     28 N1         21.2890  -13.1850   -9.9510 N.ar      1 ANP615      0.0000 
     29 C2         22.3860  -12.4180  -10.0340 C.ar      1 ANP615      0.0000 
     30 N3         23.6690  -12.8240  -10.1560 N.ar      1 ANP615      0.0000 
     31 C4         23.7760  -14.2120  -10.2020 C.ar      1 ANP615      0.0000 
     32 H          28.9361  -17.3216   -8.6801 H         1 ANP615      0.0000 
     33 H          27.2119  -17.3325   -9.0886 H         1 ANP615      0.0000 
     34 H          29.2626  -15.4481  -10.2415 H         1 ANP615      0.0000 
     35 H          27.7825  -15.4260   -7.8259 H         1 ANP615      0.0000 
     36 H          26.0302  -14.1646   -8.3230 H         1 ANP615      0.0000 
     37 H          26.3639  -13.5542  -11.0498 H         1 ANP615      0.0000 
     38 H          25.1608  -17.0261  -10.3875 H         1 ANP615      0.0000 
     39 H          19.4728  -14.8430   -9.7730 H         1 ANP615      0.0000 
     40 H          20.4992  -16.3004   -9.9924 H         1 ANP615      0.0000 
     41 H          22.2272  -11.3344   -9.9991 H         1 ANP615      0.0000 
     42 H          29.9452  -14.6062   -8.8736 H         1 ANP615      0.0000 
     43 H          28.0856  -12.4737   -8.8539 H         1 ANP615      0.0000 
@<TRIPOS>BOND
     1    2    1 ar   
     2    3    1 ar   
     3    4    1 ar   
     4    8    1 1    
     5    6    5 ar   
     6    7    5 ar   
     7    8    5 1    
     8   12    5 1    
     9   10    9 ar   
    10   11    9 ar   
    11   12    9 1    
    12   13    9 1    
    13   14   13 1    
    14   15   14 1    
    15   32   14 1    
    16   33   14 1    
    17   16   15 1    
    18   17   15 1    
    19   34   15 1    
    20   21   16 1    
    21   18   17 1    
    22   19   17 1    
    23   35   17 1    
    24   42   18 1    
    25   20   19 1    
    26   21   19 1    
    27   36   19 1    
    28   43   20 1    
    29   22   21 1    
    30   37   21 1    
    31   23   22 1    
    32   31   22 1    
    33   24   23 2    
    34   38   23 1    
    35   25   24 1    
    36   26   25 ar   
    37   31   25 ar   
    38   27   26 1    
    39   28   26 ar   
    40   39   27 1    
    41   40   27 1    
    42   29   28 ar   
    43   30   29 ar   
    44   41   29 1    
    45   31   30 ar   
@<TRIPOS>SUBSTRUCTURE
     1 ANP615      1 GROUP   
@<TRIPOS>SET

