#    Name: 1G30_1_CAVITY_N1_6.mol2
#    Modification time : Tue Mar 11 00:38:46 2014

@<TRIPOS>MOLECULE
1G30_1_CAVITY_N1_6.mol2
   87     0     7     0     0
SMALL
NO_CHARGES


@<TRIPOS>ATOM
      1 OG         19.8574  -14.4642   22.7549 O.2       1 SER1        0.0000 
      2 N          17.8400  -14.9254   23.2210 N.2       2 ALA2        0.0000 
      3 CZ         18.6853  -14.9949   21.9839 C.ar      5 PHE5        0.0000 
      4 CZ         19.5307  -15.0645   20.7467 C.ar      5 PHE5        0.0000 
      5 N          16.6679  -15.4561   22.4500 N.2       2 ALA2        0.0000 
      6 CZ         17.5133  -15.5257   21.2128 C.ar      5 PHE5        0.0000 
      7 N          15.4958  -15.9869   21.6789 N.2       2 ALA2        0.0000 
      8 CZ         16.3412  -16.0565   20.4418 C.ar      5 PHE5        0.0000 
      9 N          13.4784  -16.4481   22.1451 N.2       2 ALA2        0.0000 
     10 N          14.3237  -16.5176   20.9079 N.2       2 ALA2        0.0000 
     11 CZ         15.1691  -16.5872   19.6708 C.ar      5 PHE5        0.0000 
     12 O          12.3063  -16.9788   21.3740 O.2       2 ALA2        0.0000 
     13 DU         13.1517  -17.0484   20.1369 H         7 CUB7        0.0000 
     14 DU         13.9970  -17.1180   18.8997 H         7 CUB7        0.0000 
     15 DU         11.9796  -17.5792   19.3658 H         7 CUB7        0.0000 
     16 NZ         12.8249  -17.6487   18.1287 N.2       4 LYS4        0.0000 
     17 CA         21.4729  -12.6018   21.9353 C.3       6 GLY6        0.0000 
     18 CA         19.4554  -13.0629   22.4014 C.3       6 GLY6        0.0000 
     19 OG         20.3008  -13.1325   21.1643 O.2       1 SER1        0.0000 
     20 CA         17.4380  -13.5241   22.8675 C.3       6 GLY6        0.0000 
     21 CZ         18.2834  -13.5937   21.6304 C.ar      5 PHE5        0.0000 
     22 CZ         19.1287  -13.6633   20.3932 C.ar      5 PHE5        0.0000 
     23 N          16.2659  -14.0549   22.0965 N.2       2 ALA2        0.0000 
     24 CZ         17.1113  -14.1245   20.8593 C.ar      5 PHE5        0.0000 
     25 N          15.0938  -14.5856   21.3255 N.2       2 ALA2        0.0000 
     26 CZ         15.9392  -14.6552   20.0883 C.ar      5 PHE5        0.0000 
     27 N          13.0764  -15.0468   21.7916 N.2       2 ALA2        0.0000 
     28 N          13.9217  -15.1164   20.5544 N.2       2 ALA2        0.0000 
     29 CZ         14.7671  -15.1860   19.3173 C.ar      5 PHE5        0.0000 
     30 CZ         15.6124  -15.2556   18.0801 C.ar      5 PHE5        0.0000 
     31 N          11.9043  -15.5776   21.0205 N.2       2 ALA2        0.0000 
     32 DU         12.7497  -15.6472   19.7834 H         7 CUB7        0.0000 
     33 CA         13.5950  -15.7167   18.5462 C.3       6 GLY6        0.0000 
     34 CA         14.4404  -15.7863   17.3091 C.3       6 GLY6        0.0000 
     35 CA         11.5776  -16.1779   19.0123 C.3       6 GLY6        0.0000 
     36 CA         12.4229  -16.2475   17.7752 C.3       6 GLY6        0.0000 
     37 CA         19.0535  -11.6617   22.0479 C.3       6 GLY6        0.0000 
     38 CA         19.8988  -11.7313   20.8108 C.3       6 GLY6        0.0000 
     39 N          17.8814  -12.1925   21.2769 N.2       2 ALA2        0.0000 
     40 CZ         18.7267  -12.2620   20.0398 C.ar      5 PHE5        0.0000 
     41 CA         15.8639  -12.6537   21.7430 C.3       6 GLY6        0.0000 
     42 CZ         16.7093  -12.7232   20.5059 C.ar      5 PHE5        0.0000 
     43 O          13.8465  -13.1148   22.2091 O.2       2 ALA2        0.0000 
     44 O          14.6918  -13.1844   20.9720 O.2       2 ALA2        0.0000 
     45 CZ         15.5372  -13.2540   19.7348 C.ar      5 PHE5        0.0000 
     46 N          11.8291  -13.5760   22.6752 N.2       2 ALA2        0.0000 
     47 N          12.6744  -13.6456   21.4381 N.2       2 ALA2        0.0000 
     48 DU         13.5198  -13.7152   20.2009 H         7 CUB7        0.0000 
     49 DU         14.3651  -13.7848   18.9638 H         7 CUB7        0.0000 
     50 CZ         15.2105  -13.8543   17.7266 C.ar      5 PHE5        0.0000 
     51 CZ         16.0558  -13.9239   16.4895 C.ar      5 PHE5        0.0000 
     52 CZ         16.9012  -13.9935   15.2523 C.ar      5 PHE5        0.0000 
     53 CA         11.5023  -14.1764   20.6670 C.3       6 GLY6        0.0000 
     54 O          12.3477  -14.2459   19.4299 O.2       2 ALA2        0.0000 
     55 CA         13.1930  -14.3155   18.1927 C.3       6 GLY6        0.0000 
     56 CA         14.0384  -14.3851   16.9556 C.3       6 GLY6        0.0000 
     57 CA         14.8837  -14.4547   15.7184 C.3       6 GLY6        0.0000 
     58 CA         15.7291  -14.5242   14.4813 C.3       6 GLY6        0.0000 
     59 N          15.4619  -11.2524   21.3895 N.2       2 ALA2        0.0000 
     60 N          16.3073  -11.3220   20.1524 N.2       2 ALA2        0.0000 
     61 N          17.1526  -11.3916   18.9152 N.2       2 ALA2        0.0000 
     62 O          12.5992  -11.6440   23.0928 O.2       2 ALA2        0.0000 
     63 O          13.4445  -11.7136   21.8556 O.2       2 ALA2        0.0000 
     64 DU         14.2899  -11.7832   20.6185 H         7 CUB7        0.0000 
     65 OG         15.1352  -11.8528   19.3813 O.2       1 SER1        0.0000 
     66 OG         15.9806  -11.9223   18.1442 O.2       1 SER1        0.0000 
     67 CZ         16.8259  -11.9919   16.9070 C.ar      5 PHE5        0.0000 
     68 OD1        17.6713  -12.0615   15.6699 O.3       3 ASP3        0.0000 
     69 N          11.4271  -12.1748   22.3217 N.2       2 ALA2        0.0000 
     70 CA         12.2724  -12.2444   21.0846 C.3       6 GLY6        0.0000 
     71 O          13.1178  -12.3139   19.8474 O.2       2 ALA2        0.0000 
     72 CA         13.9631  -12.3835   18.6103 C.3       6 GLY6        0.0000 
     73 OG         14.8085  -12.4531   17.3731 O.2       1 SER1        0.0000 
     74 CZ         15.6538  -12.5227   16.1360 C.ar      5 PHE5        0.0000 
     75 CZ         16.4992  -12.5923   14.8988 C.ar      5 PHE5        0.0000 
     76 CA         14.4817  -13.0534   15.3649 C.3       6 GLY6        0.0000 
     77 CA         15.3271  -13.1230   14.1278 C.3       6 GLY6        0.0000 
     78 CA         12.1972  -10.2428   22.7393 C.3       6 GLY6        0.0000 
     79 CA         13.0425  -10.3124   21.5022 C.3       6 GLY6        0.0000 
     80 CA         13.8879  -10.3820   20.2650 C.3       6 GLY6        0.0000 
     81 OD1        17.2693  -10.6603   15.3164 O.3       3 ASP3        0.0000 
     82 N          11.8704  -10.8431   20.7311 N.2       2 ALA2        0.0000 
     83 N          12.7158  -10.9127   19.4940 N.2       2 ALA2        0.0000 
     84 OG         15.2518  -11.1214   15.7825 O.2       1 SER1        0.0000 
     85 N          16.0972  -11.1910   14.5454 N.2       2 ALA2        0.0000 
     86 O          14.0797  -11.6522   15.0115 O.2       2 ALA2        0.0000 
     87 N          14.9251  -11.7218   13.7743 N.2       2 ALA2        0.0000 
@<TRIPOS>BOND
@<TRIPOS>SUBSTRUCTURE
     1 SER1        1 GROUP   
     2 ALA2        2 GROUP   
     3 ASP3       68 GROUP   
     4 LYS4       16 GROUP   
     5 PHE5        3 GROUP   
     6 GLY6       17 GROUP   
     7 CUB7       13 GROUP   
@<TRIPOS>SET

