#    Name: 1g30_T87_1_INTS_M
#    Modification time : Tue Mar 25 02:28:09 2014

@<TRIPOS>MOLECULE
1g30_T87_1_INTS_M
   66     0     6     0     0
SMALL
NO_CHARGES


@<TRIPOS>ATOM
      1 O           9.1570  -12.5545   24.7570 O.2       1 ALC1        0.0000 
      2 O          10.2730  -12.6880   23.9230 O.2       5 ALL1        0.0000 
      3 O           8.0410  -12.4210   25.5910 O.2       3 ALP1        0.0000 
      4 O          10.4110  -14.1655   23.7910 O.2       1 ALC1        0.0000 
      5 O          10.5490  -15.6430   23.6590 O.2       3 ALP1        0.0000 
      6 O           9.5310  -10.4615   25.0575 O.2       1 ALC1        0.0000 
      7 O          10.8730  -10.6680   24.4990 O.2       5 ALL1        0.0000 
      8 O           8.1890  -10.2550   25.6160 O.2       3 ALP1        0.0000 
      9 CA         10.4325  -13.8675   21.2445 C.3       2 GLC5        0.0000 
     10 CA         12.0990  -12.6910   21.6450 C.3       6 GLL5        0.0000 
     11 CA          8.7660  -15.0440   20.8440 C.3       4 GLP5        0.0000 
     12 CA         12.1095  -12.7720   18.6830 C.3       2 GLC5        0.0000 
     13 CA         13.0860  -12.7030   20.6420 C.3       6 GLL5        0.0000 
     14 CA         11.1330  -12.8410   16.7240 C.3       4 GLP5        0.0000 
     15 CA         17.4490   -9.6805   19.6680 C.3       2 GLC5        0.0000 
     16 CA         16.5750  -11.4160   19.8050 C.3       6 GLL5        0.0000 
     17 CA         18.3230   -7.9450   19.5310 C.3       4 GLP5        0.0000 
     18 CA         17.4360  -13.1365   18.9725 C.3       2 GLC5        0.0000 
     19 CA         18.2970  -14.8570   18.1400 C.3       4 GLP5        0.0000 
     20 CA         15.8520   -9.8570   19.2195 C.3       2 GLC5        0.0000 
     21 CA         15.1290   -8.2980   18.6340 C.3       4 GLP5        0.0000 
     22 CA         19.6085  -10.3575   18.9420 C.3       2 GLC5        0.0000 
     23 CA         19.8120  -11.6010   19.8600 C.3       6 GLL5        0.0000 
     24 CA         19.4050   -9.1140   18.0240 C.3       4 GLP5        0.0000 
     25 CA         21.2520  -13.0415   19.3275 C.3       2 GLC5        0.0000 
     26 CA         22.6920  -14.4820   18.7950 C.3       4 GLP5        0.0000 
     27 CA         19.2800  -12.8145   18.4770 C.3       2 GLC5        0.0000 
     28 CA         18.7480  -14.0280   17.0940 C.3       4 GLP5        0.0000 
     29 CA         20.3980  -11.0110   21.4790 C.3       2 GLC5        0.0000 
     30 CA         20.9840  -10.4210   23.0980 C.3       4 GLP5        0.0000 
     31 CA         17.4755  -14.7420   26.6285 C.3       2 GLC5        0.0000 
     32 CA         17.7220  -16.3400   25.6270 C.3       6 GLL5        0.0000 
     33 CA         17.2290  -13.1440   27.6300 C.3       4 GLP5        0.0000 
     34 CA         21.8725  -11.5900   25.9340 C.3       2 GLC5        0.0000 
     35 CA         21.0510  -13.3150   27.1050 C.3       6 GLL5        0.0000 
     36 CA         22.6940   -9.8650   24.7630 C.3       4 GLP5        0.0000 
     37 CA         10.7458  -12.1992   20.5389 C.3       2 GLC5        0.0000 
     38 CA         12.0790  -11.6850   22.6660 C.3       6 GLL5        0.0000 
     39 CA          8.9040  -11.9530   19.6790 C.3       4 GLP5        0.0000 
     40 CA         14.6107   -9.7520   19.8758 C.3       2 GLC5        0.0000 
     41 CA         14.0860  -11.7100   20.6240 C.3       6 GLL5        0.0000 
     42 CA         13.1130   -8.9335   21.8768 C.3       2 GLC5        0.0000 
     43 CA         14.0990  -10.7020   21.6110 C.3       6 GLL5        0.0000 
     44 CA         12.6200   -7.1700   21.6430 C.3       4 GLP5        0.0000 
     45 CA         14.9749  -10.8985   23.0829 C.3       2 GLC5        0.0000 
     46 CA         13.1130  -10.6920   22.6100 C.3       6 GLL5        0.0000 
     47 CA         16.3470  -10.8480   24.3020 C.3       4 GLP5        0.0000 
     48 CA         13.2360  -12.3995   23.9884 C.3       2 GLC5        0.0000 
     49 CA         13.8710  -13.3590   25.5940 C.3       4 GLP5        0.0000 
     50 CA         20.3103  -12.0585   22.4535 C.3       2 GLC5        0.0000 
     51 CA         19.0210  -13.4180   21.5730 C.3       6 GLL5        0.0000 
     52 CA         18.0325  -12.5635   23.3105 C.3       2 GLC5        0.0000 
     53 CA         17.6700  -11.4610   24.7930 C.3       4 GLP5        0.0000 
     54 CA         18.0128  -13.3475   24.0420 C.3       2 GLC5        0.0000 
     55 CA         17.7400  -14.9590   23.0520 C.3       6 GLL5        0.0000 
     56 CA         16.5660  -17.1280   26.6492 C.3       2 GLC5        0.0000 
     57 CA         15.2220  -17.2440   28.0030 C.3       4 GLP5        0.0000 
     58 CA         20.7205  -15.9660   27.9517 C.3       2 GLC5        0.0000 
     59 CA         20.4370  -14.3180   26.3370 C.3       6 GLL5        0.0000 
     60 CA         20.6630  -17.0050   29.6850 C.3       4 GLP5        0.0000 
     61 CA         19.2070  -12.6387   25.7570 C.3       2 GLC5        0.0000 
     62 CA         23.7660  -13.1049   27.5504 C.3       2 GLC5        0.0000 
     63 CA         25.1730  -12.1510   27.7070 C.3       4 GLP5        0.0000 
     64 CA         21.8055  -14.1564   29.0759 C.3       2 GLC5        0.0000 
     65 CA         22.3350  -13.4960   27.6460 C.3       6 GLL5        0.0000 
     66 CA         21.2520  -14.2540   30.7580 C.3       4 GLP5        0.0000 
@<TRIPOS>BOND
@<TRIPOS>SUBSTRUCTURE
     1 ALC1        1 GROUP        1 X    ALC  0     ROOT ALC X 1
     2 GLC5        9 GROUP        1 X    GLC  0     **** GLC X 6
     3 ALP1        3 GROUP        1 Y    ALP  0     ROOT ALP Y 8
     4 GLP5       11 GROUP        1 Y    GLP  0     **** GLP Y 13
     5 ALL1        2 GROUP        1 Z    ALL  0     ROOT ALL Z 15
     6 GLL5       10 GROUP        1 Z    GLL  0     **** GLL Z 20
@<TRIPOS>SET

