#    Name: 1g30_T87_1_ligand
#    Modification time : Tue Mar 25 02:28:09 2014

@<TRIPOS>MOLECULE
1g30_T87_1_ligand
   71    75     1     0     0
SMALL
NO_CHARGES


@<TRIPOS>ATOM
      1 N1         10.2730  -12.6880   23.9230 N.pl3     1 T871        0.0000 
      2 N2         10.8730  -10.6680   24.4990 N.pl3     1 T871        0.0000 
      3 C1         11.0970  -11.6780   23.6710 C.ar      1 T871        0.0000 
      4 C2         12.0790  -11.6850   22.6660 C.ar      1 T871        0.0000 
      5 C3         12.0990  -12.6910   21.6450 C.ar      1 T871        0.0000 
      6 C4         13.0860  -12.7030   20.6420 C.ar      1 T871        0.0000 
      7 C5         14.0860  -11.7100   20.6240 C.ar      1 T871        0.0000 
      8 C6         14.0990  -10.7020   21.6110 C.ar      1 T871        0.0000 
      9 C7         13.1130  -10.6920   22.6100 C.ar      1 T871        0.0000 
     10 N          15.1220  -11.6910   19.6280 N.pl3     1 T871        0.0000 
     11 C          16.5750  -11.4160   19.8050 C.3       1 T871        0.0000 
     12 N3         16.7180  -13.2600   21.5130 N.2       1 T871        0.0000 
     13 C8         17.4080  -12.3860   20.6790 C.2       1 T871        0.0000 
     14 N9         18.8210  -12.4030   20.6440 N.pl3     1 T871        0.0000 
     15 C3A        19.0210  -13.4180   21.5730 C.ar      1 T871        0.0000 
     16 C7A        17.7690  -13.9140   22.0830 C.ar      1 T871        0.0000 
     17 C10        20.2520  -13.9740   22.0450 C.ar      1 T871        0.0000 
     18 C11        20.2060  -15.0050   23.0010 C.ar      1 T871        0.0000 
     19 C12        18.9710  -15.5090   23.5300 C.ar      1 T871        0.0000 
     20 C13        17.7400  -14.9590   23.0520 C.ar      1 T871        0.0000 
     21 C14        19.8120  -11.6010   19.8600 C.3       1 T871        0.0000 
     22 C9         18.0980  -17.6840   24.9640 C.3       1 T871        0.0000 
     23 C15        17.7220  -16.3400   25.6270 C.3       1 T871        0.0000 
     24 C16        18.9830  -16.4650   24.8040 C.3       1 T871        0.0000 
     25 C17        20.4640  -16.6310   25.2470 C.2       1 T871        0.0000 
     26 N4         21.1550  -17.6570   24.8780 N.2       1 T871        0.0000 
     27 N5         22.4130  -15.7230   26.6390 N.ar      1 T871        0.0000 
     28 C18        21.1190  -15.5360   26.1000 C.ar      1 T871        0.0000 
     29 C19        20.4370  -14.3180   26.3370 C.ar      1 T871        0.0000 
     30 C20        21.0510  -13.3150   27.1050 C.ar      1 T871        0.0000 
     31 C21        22.3350  -13.4960   27.6460 C.ar      1 T871        0.0000 
     32 C22        23.0250  -14.7120   27.4120 C.ar      1 T871        0.0000 
     33 OH         20.5310  -18.6970   24.0270 O.3       1 T871        0.0000 
     34 C23        21.1310  -19.9690   24.2640 C.3       1 T871        0.0000 
     35 C24        20.4590  -21.0230   23.3480 C.2       1 T871        0.0000 
     36 O2         20.6110  -22.2250   23.6010 O.2       1 T871        0.0000 
     37 O3         19.7090  -20.6100   22.2700 O.3       1 T871        0.0000 
     38 C25        18.1330  -21.2130   20.5100 C.3       1 T871        0.0000 
     39 C26        19.1640  -21.7220   21.5370 C.3       1 T871        0.0000 
     40 H           9.5975  -12.5353   24.6443 H         1 T871        0.0000 
     41 H          10.4023  -13.5102   23.3687 H         1 T871        0.0000 
     42 H          10.1742  -10.8189   25.1982 H         1 T871        0.0000 
     43 H          11.4231   -9.8463   24.3497 H         1 T871        0.0000 
     44 H          11.3691  -13.4171   21.6555 H         1 T871        0.0000 
     45 H          13.0785  -13.4324   19.9252 H         1 T871        0.0000 
     46 H          14.8245   -9.9836   21.5959 H         1 T871        0.0000 
     47 H          13.1208   -9.9535   23.3320 H         1 T871        0.0000 
     48 H          14.8298  -11.8995   18.6214 H         1 T871        0.0000 
     49 H          16.7131  -10.3834   20.2291 H         1 T871        0.0000 
     50 H          17.0731  -11.3640   18.7978 H         1 T871        0.0000 
     51 H          21.1316  -13.6253   21.6917 H         1 T871        0.0000 
     52 H          21.0895  -15.4234   23.3431 H         1 T871        0.0000 
     53 H          16.8574  -15.3104   23.4002 H         1 T871        0.0000 
     54 H          17.5682  -17.7625   24.1872 H         1 T871        0.0000 
     55 H          18.4703  -18.2267   25.6400 H         1 T871        0.0000 
     56 H          17.9585  -16.4097   26.5386 H         1 T871        0.0000 
     57 H          17.0564  -15.9454   25.0858 H         1 T871        0.0000 
     58 H          19.5048  -14.1746   25.9498 H         1 T871        0.0000 
     59 H          20.5501  -12.4289   27.2751 H         1 T871        0.0000 
     60 H          22.7709  -12.7637   28.2020 H         1 T871        0.0000 
     61 H          23.9548  -14.8530   27.7994 H         1 T871        0.0000 
     62 H          20.9977  -20.3032   25.2943 H         1 T871        0.0000 
     63 H          22.1976  -19.9722   24.0331 H         1 T871        0.0000 
     64 H          18.6531  -22.4296   22.1955 H         1 T871        0.0000 
     65 H          19.9387  -22.2633   20.9873 H         1 T871        0.0000 
     66 H          20.7532  -11.8667   20.0689 H         1 T871        0.0000 
     67 H          19.6867  -11.7164   18.8746 H         1 T871        0.0000 
     68 H          19.7339  -10.6229   20.0529 H         1 T871        0.0000 
     69 H          18.5439  -20.5806   19.8534 H         1 T871        0.0000 
     70 H          17.7321  -21.9627   19.9834 H         1 T871        0.0000 
     71 H          17.3779  -20.7279   20.9510 H         1 T871        0.0000 
@<TRIPOS>BOND
     1    3    1 ar   
     2   40    1 1    
     3   41    1 1    
     4    3    2 ar   
     5   42    2 1    
     6   43    2 1    
     7    4    3 1    
     8    5    4 ar   
     9    9    4 ar   
    10    6    5 ar   
    11   44    5 1    
    12    7    6 ar   
    13   45    6 1    
    14    8    7 ar   
    15   10    7 1    
    16    9    8 ar   
    17   46    8 1    
    18   47    9 1    
    19   11   10 1    
    20   48   10 1    
    21   13   11 1    
    22   49   11 1    
    23   50   11 1    
    24   13   12 2    
    25   16   12 1    
    26   14   13 1    
    27   15   14 1    
    28   21   14 1    
    29   16   15 ar   
    30   17   15 ar   
    31   20   16 ar   
    32   18   17 ar   
    33   51   17 1    
    34   19   18 ar   
    35   52   18 1    
    36   20   19 ar   
    37   24   19 1    
    38   53   20 1    
    39   66   21 1    
    40   67   21 1    
    41   68   21 1    
    42   23   22 1    
    43   24   22 1    
    44   54   22 1    
    45   55   22 1    
    46   24   23 1    
    47   56   23 1    
    48   57   23 1    
    49   25   24 1    
    50   26   25 2    
    51   28   25 1    
    52   33   26 1    
    53   28   27 ar   
    54   32   27 ar   
    55   29   28 ar   
    56   30   29 ar   
    57   58   29 1    
    58   31   30 ar   
    59   59   30 1    
    60   32   31 ar   
    61   60   31 1    
    62   61   32 1    
    63   34   33 1    
    64   35   34 1    
    65   62   34 1    
    66   63   34 1    
    67   36   35 2    
    68   37   35 1    
    69   39   37 1    
    70   39   38 1    
    71   69   38 1    
    72   70   38 1    
    73   71   38 1    
    74   64   39 1    
    75   65   39 1    
@<TRIPOS>SUBSTRUCTURE
     1 T871        1 GROUP   
@<TRIPOS>SET

