#    Name: 2Y66_1_CAVITY_N1_6.mol2
#    Modification time : Tue Mar 11 02:28:47 2014

@<TRIPOS>MOLECULE
2Y66_1_CAVITY_N1_6.mol2
  133     0     7     0     0
SMALL
NO_CHARGES


@<TRIPOS>ATOM
      1 DU          3.0209   19.4754  119.0183 H         7 CUB7        0.0000 
      2 CA          1.4402   19.3965  117.6057 C.3       6 GLY6        0.0000 
      3 CA          2.7337   18.6603  117.7923 C.3       6 GLY6        0.0000 
      4 DU         -4.0208   21.5264  115.6333 H         7 CUB7        0.0000 
      5 DU         -2.7273   20.7901  115.8199 H         7 CUB7        0.0000 
      6 DU         -1.4338   20.0539  116.0065 H         7 CUB7        0.0000 
      7 DU         -0.1404   19.3177  116.1931 H         7 CUB7        0.0000 
      8 CA          1.1531   18.5814  116.3797 C.3       6 GLY6        0.0000 
      9 OG         -1.7210   19.2388  114.7805 O.2       1 SER1        0.0000 
     10 OG         -0.4275   18.5025  114.9671 O.2       1 SER1        0.0000 
     11 CA          0.8660   17.7663  115.1537 C.3       6 GLY6        0.0000 
     12 CA          2.2854   25.2299  122.7054 C.3       6 GLY6        0.0000 
     13 CA          3.5789   24.4937  122.8920 C.3       6 GLY6        0.0000 
     14 CA         -0.5887   25.8873  121.1062 C.3       6 GLY6        0.0000 
     15 CA          0.7048   25.1511  121.2928 C.3       6 GLY6        0.0000 
     16 CA          1.9983   24.4148  121.4794 C.3       6 GLY6        0.0000 
     17 CA          3.2918   23.6786  121.6660 C.3       6 GLY6        0.0000 
     18 DU          4.5853   22.9423  121.8526 H         7 CUB7        0.0000 
     19 CA         -0.8758   25.0722  119.8802 C.3       6 GLY6        0.0000 
     20 CA          0.4177   24.3359  120.0668 C.3       6 GLY6        0.0000 
     21 CA          1.7112   23.5997  120.2534 C.3       6 GLY6        0.0000 
     22 DU          3.0047   22.8634  120.4400 H         7 CUB7        0.0000 
     23 DU          4.2982   22.1272  120.6265 H         7 CUB7        0.0000 
     24 CA         -2.4564   24.9933  118.4676 C.3       6 GLY6        0.0000 
     25 DU          1.4241   22.7846  119.0273 H         7 CUB7        0.0000 
     26 CZ          4.0111   21.3121  119.4005 C.ar      5 PHE5        0.0000 
     27 DU          2.4305   21.2332  117.9879 H         7 CUB7        0.0000 
     28 CZ          3.7240   20.4970  118.1745 C.ar      5 PHE5        0.0000 
     29 DU          0.8499   21.1543  116.5753 H         7 CUB7        0.0000 
     30 N           2.1434   20.4181  116.7619 N.2       2 ALA2        0.0000 
     31 CA          3.4369   19.6818  116.9485 C.3       6 GLY6        0.0000 
     32 CA          4.7304   18.9456  117.1351 C.3       6 GLY6        0.0000 
     33 DU         -3.3177   22.5479  114.7895 H         7 CUB7        0.0000 
     34 DU         -2.0242   21.8117  114.9761 H         7 CUB7        0.0000 
     35 DU         -0.7307   21.0754  115.1627 H         7 CUB7        0.0000 
     36 DU          0.5628   20.3392  115.3493 H         7 CUB7        0.0000 
     37 CA          1.8563   19.6029  115.5359 C.3       6 GLY6        0.0000 
     38 OG         -2.3113   20.9965  113.7501 O.2       1 SER1        0.0000 
     39 OG         -1.0178   20.2603  113.9367 O.2       1 SER1        0.0000 
     40 OG          0.2757   19.5241  114.1232 O.2       1 SER1        0.0000 
     41 CA          1.5692   18.7878  114.3098 C.3       6 GLY6        0.0000 
     42 OG          1.2821   17.9727  113.0838 O.2       1 SER1        0.0000 
     43 CA          2.9886   26.2515  121.8616 C.3       6 GLY6        0.0000 
     44 CA          4.2821   25.5152  122.0482 C.3       6 GLY6        0.0000 
     45 OD1         5.5756   24.7790  122.2348 O.3       3 ASP3        0.0000 
     46 O           0.1145   26.9088  120.2624 O.2       2 ALA2        0.0000 
     47 DU          1.4080   26.1726  120.4490 H         7 CUB7        0.0000 
     48 DU          2.7015   25.4363  120.6356 H         7 CUB7        0.0000 
     49 DU          3.9950   24.7001  120.8222 H         7 CUB7        0.0000 
     50 O           5.2885   23.9639  121.0087 O.2       2 ALA2        0.0000 
     51 CA         -0.1726   26.0937  119.0364 C.3       6 GLY6        0.0000 
     52 DU          1.1209   25.3575  119.2230 H         7 CUB7        0.0000 
     53 DU          2.4144   24.6212  119.4095 H         7 CUB7        0.0000 
     54 DU          5.0014   23.1487  119.7827 H         7 CUB7        0.0000 
     55 CA         -1.7532   26.0148  117.6238 C.3       6 GLY6        0.0000 
     56 DU         -0.4597   25.2786  117.8103 H         7 CUB7        0.0000 
     57 DU          3.4208   23.0699  118.3701 H         7 CUB7        0.0000 
     58 DU          4.7143   22.3336  118.5567 H         7 CUB7        0.0000 
     59 CZ          6.0078   21.5974  118.7433 C.ar      5 PHE5        0.0000 
     60 N           1.8402   22.9910  116.9575 N.2       2 ALA2        0.0000 
     61 N           3.1337   22.2547  117.1441 N.2       2 ALA2        0.0000 
     62 N           4.4272   21.5185  117.3307 N.2       2 ALA2        0.0000 
     63 CZ          5.7207   20.7823  117.5173 C.ar      5 PHE5        0.0000 
     64 DU         -1.0339   23.6483  115.3583 H         7 CUB7        0.0000 
     65 DU          0.2596   22.9121  115.5449 H         7 CUB7        0.0000 
     66 N           1.5531   22.1758  115.7315 N.2       2 ALA2        0.0000 
     67 N           4.1401   20.7034  116.1046 N.2       2 ALA2        0.0000 
     68 DU         -1.3210   22.8332  114.1323 H         7 CUB7        0.0000 
     69 N          -0.0275   22.0970  114.3189 N.2       2 ALA2        0.0000 
     70 N           1.2660   21.3607  114.5054 N.2       2 ALA2        0.0000 
     71 OG         -1.6081   22.0181  112.9062 O.2       1 SER1        0.0000 
     72 OG         -0.3146   21.2818  113.0928 O.2       1 SER1        0.0000 
     73 N           0.9789   20.5456  113.2794 N.2       2 ALA2        0.0000 
     74 N           2.2724   19.8093  113.4660 N.2       2 ALA2        0.0000 
     75 OG          0.6918   19.7305  112.0534 O.2       1 SER1        0.0000 
     76 CA          2.3982   28.0092  120.8312 C.3       6 GLY6        0.0000 
     77 CA          3.6917   27.2730  121.0178 C.3       6 GLY6        0.0000 
     78 OG          4.9852   26.5368  121.2044 O.2       1 SER1        0.0000 
     79 OD1         6.2787   25.8005  121.3909 O.3       3 ASP3        0.0000 
     80 CZ          2.1111   27.1941  119.6052 C.ar      5 PHE5        0.0000 
     81 DU          3.4046   26.4579  119.7917 H         7 CUB7        0.0000 
     82 DU          4.6981   25.7216  119.9783 H         7 CUB7        0.0000 
     83 N           5.9916   24.9854  120.1649 N.2       2 ALA2        0.0000 
     84 CZ          0.5305   27.1152  118.1925 C.ar      5 PHE5        0.0000 
     85 CZ          1.8240   26.3790  118.3791 C.ar      5 PHE5        0.0000 
     86 DU          3.1175   25.6427  118.5657 H         7 CUB7        0.0000 
     87 N           5.7045   24.1703  118.9389 N.2       2 ALA2        0.0000 
     88 CZ          0.2434   26.3001  116.9665 C.ar      5 PHE5        0.0000 
     89 CZ          1.5369   25.5639  117.1531 C.ar      5 PHE5        0.0000 
     90 DU          2.8304   24.8276  117.3397 H         7 CUB7        0.0000 
     91 DU          4.1239   24.0914  117.5263 H         7 CUB7        0.0000 
     92 DU          5.4174   23.3551  117.7129 H         7 CUB7        0.0000 
     93 N           6.7109   22.6189  117.8995 N.2       2 ALA2        0.0000 
     94 N           8.0044   21.8827  118.0860 N.2       2 ALA2        0.0000 
     95 NZ         -1.3372   26.2212  115.5539 N.2       4 LYS4        0.0000 
     96 DU         -0.0437   25.4850  115.7405 H         7 CUB7        0.0000 
     97 N           1.2498   24.7487  115.9271 N.2       2 ALA2        0.0000 
     98 N           2.5433   24.0125  116.1137 N.2       2 ALA2        0.0000 
     99 N           3.8368   23.2763  116.3003 N.2       2 ALA2        0.0000 
    100 N           5.1303   22.5400  116.4868 N.2       2 ALA2        0.0000 
    101 CA          6.4238   21.8038  116.6734 C.3       6 GLY6        0.0000 
    102 N          -0.3308   24.6698  114.5145 N.2       2 ALA2        0.0000 
    103 N           0.9627   23.9336  114.7011 N.2       2 ALA2        0.0000 
    104 OG          6.9819   26.8221  120.5471 O.2       1 SER1        0.0000 
    105 OG          4.1078   27.4794  118.9479 O.2       1 SER1        0.0000 
    106 OG          5.4013   26.7432  119.1345 O.2       1 SER1        0.0000 
    107 N           6.6948   26.0069  119.3211 N.2       2 ALA2        0.0000 
    108 CZ          2.5272   27.4005  117.5353 C.ar      5 PHE5        0.0000 
    109 OD1         3.8207   26.6643  117.7219 O.3       3 ASP3        0.0000 
    110 DU          5.1142   25.9280  117.9085 H         7 CUB7        0.0000 
    111 N           6.4077   25.1918  118.0951 N.2       2 ALA2        0.0000 
    112 CZ          2.2401   26.5854  116.3093 C.ar      5 PHE5        0.0000 
    113 O           3.5336   25.8492  116.4959 O.2       2 ALA2        0.0000 
    114 O           4.8271   25.1129  116.6825 O.2       2 ALA2        0.0000 
    115 O           6.1206   24.3767  116.8690 O.2       2 ALA2        0.0000 
    116 N           7.4141   23.6404  117.0556 N.2       2 ALA2        0.0000 
    117 CZ          0.6595   26.5065  114.8967 C.ar      5 PHE5        0.0000 
    118 N           1.9530   25.7703  115.0833 N.2       2 ALA2        0.0000 
    119 O           3.2465   25.0340  115.2698 O.2       2 ALA2        0.0000 
    120 OG          6.1045   27.7647  118.2907 O.2       1 SER1        0.0000 
    121 OG          7.3980   27.0285  118.4773 O.2       1 SER1        0.0000 
    122 NZ          8.6915   26.2922  118.6639 N.2       4 LYS4        0.0000 
    123 OD1         5.8174   26.9496  117.0647 O.3       3 ASP3        0.0000 
    124 OD1         7.1109   26.2133  117.2512 O.3       3 ASP3        0.0000 
    125 OD1         8.4044   25.4771  117.4378 O.3       3 ASP3        0.0000 
    126 CA          2.9433   27.6069  115.4655 C.3       6 GLY6        0.0000 
    127 OD1         4.2368   26.8707  115.6520 O.3       3 ASP3        0.0000 
    128 O           5.5303   26.1344  115.8386 O.2       2 ALA2        0.0000 
    129 OD1         6.8238   25.3982  116.0252 O.3       3 ASP3        0.0000 
    130 DU         -0.5564   19.1113  118.2629 H         7 CUB7        0.0000 
    131 DU         -0.8435   18.2961  117.0369 H         7 CUB7        0.0000 
    132 OG          0.4500   17.5599  117.2235 O.2       1 SER1        0.0000 
    133 OG          0.1629   16.7448  115.9975 O.2       1 SER1        0.0000 
@<TRIPOS>BOND
@<TRIPOS>SUBSTRUCTURE
     1 SER1        9 GROUP   
     2 ALA2       30 GROUP   
     3 ASP3       45 GROUP   
     4 LYS4       95 GROUP   
     5 PHE5       26 GROUP   
     6 GLY6        2 GROUP   
     7 CUB7        1 GROUP   
@<TRIPOS>SET

