#    Name: 2y66_N04_1_INTS_M
#    Modification time : Tue Mar 25 07:42:23 2014

@<TRIPOS>MOLECULE
2y66_N04_1_INTS_M
   56     0    12     0     0
SMALL
NO_CHARGES


@<TRIPOS>ATOM
      1 N          -0.4845   28.4965  120.7720 N.am      2 SEC2        0.0000 
      2 N           0.5060   27.3950  120.7780 N.am     10 SEL2        0.0000 
      3 N          -1.4750   29.5980  120.7660 N.am      6 SEP2        0.0000 
      4 N           1.3425   28.5735  123.9650 N.am      2 SEC2        0.0000 
      5 N           1.1970   28.3990  122.6230 N.am     10 SEL2        0.0000 
      6 N           1.4880   28.7480  125.3070 N.am      6 SEP2        0.0000 
      7 N           0.0870   28.6515  123.2090 N.am      2 SEC2        0.0000 
      8 N          -1.0230   28.9040  123.7950 N.am      6 SEP2        0.0000 
      9 CA          3.5910   28.4835  121.5440 C.3       4 GLC5        0.0000 
     10 CA          2.6020   26.7710  121.7830 C.3      12 GLL5        0.0000 
     11 CA          4.5800   30.1960  121.3050 C.3       8 GLP5        0.0000 
     12 CA          3.2530   26.7300  123.5090 C.3       4 GLC5        0.0000 
     13 CA          3.9040   26.6890  125.2350 C.3       8 GLP5        0.0000 
     14 CA          1.3365   25.7175  123.0860 C.3       4 GLC5        0.0000 
     15 CA          0.0710   24.6640  124.3890 C.3       8 GLP5        0.0000 
     16 NZ          6.7545   25.9175  121.9595 N.4       3 LYC4        0.0000 
     17 NZ          5.7790   25.3830  120.3500 N.4      11 LYL4        0.0000 
     18 NZ          7.7300   26.4520  123.5690 N.4       7 LYP4        0.0000 
     19 NZ          6.6015   25.9755  123.0580 N.4       3 LYC4        0.0000 
     20 NZ          5.4730   25.4990  122.5470 N.4      11 LYL4        0.0000 
     21 N           6.6015   25.9755  123.0580 N.am      2 SEC2        0.0000 
     22 N           5.4730   25.4990  122.5470 N.am     10 SEL2        0.0000 
     23 N           7.7300   26.4520  123.5690 N.am      6 SEP2        0.0000 
     24 CA          4.4530   17.7570  117.4340 C.3       4 GLC5        0.0000 
     25 CA          4.3840   19.1610  118.8230 C.3      12 GLL5        0.0000 
     26 CA          4.5220   16.3530  116.0450 C.3       8 GLP5        0.0000 
     27 CA          6.1025   18.0855  118.0635 C.3       4 GLC5        0.0000 
     28 CA          7.8210   17.0100  117.3040 C.3       8 GLP5        0.0000 
     29 CA          3.1585   17.8430  116.8640 C.3       4 GLC5        0.0000 
     30 CA          3.1150   19.0910  118.2620 C.3      12 GLL5        0.0000 
     31 CA          3.2020   16.5950  115.4660 C.3       8 GLP5        0.0000 
     32 CA         -2.3055   12.6675  120.0515 C.3       4 GLC5        0.0000 
     33 CA         -1.3970   13.5480  121.4530 C.3      12 GLL5        0.0000 
     34 CA         -3.2140   11.7870  118.6500 C.3       8 GLP5        0.0000 
     35 CA         -0.4955   13.3470  119.4095 C.3       4 GLC5        0.0000 
     36 CA          0.4060   13.1460  117.3660 C.3       8 GLP5        0.0000 
     37 O          -1.6055   12.2705  125.2825 O.2       1 ALC1        0.0000 
     38 O          -1.4950   12.9230  124.0880 O.2       9 ALL1        0.0000 
     39 O          -1.7160   11.6180  126.4770 O.2       5 ALP1        0.0000 
     40 CA          3.7935   25.7015  123.2345 C.3       4 GLC5        0.0000 
     41 CA          3.6830   24.7140  121.2340 C.3      12 GLL5        0.0000 
     42 CA          2.1935   24.0570  122.5370 C.3       4 GLC5        0.0000 
     43 CA          0.7040   23.4000  123.8400 C.3       8 GLP5        0.0000 
     44 N          -2.7205   10.7070  123.6825 N.am      2 SEC2        0.0000 
     45 N          -1.7310   11.1930  122.6700 N.am     10 SEL2        0.0000 
     46 N          -3.7100   10.2210  124.6950 N.am      6 SEP2        0.0000 
     47 CA          3.2043   17.4070  119.4032 C.3       4 GLC5        0.0000 
     48 CA          2.6590   15.6880  120.2640 C.3       8 GLP5        0.0000 
     49 CA         -0.6292   14.7393  118.3053 C.3       4 GLC5        0.0000 
     50 CA         -1.6900   16.5850  118.6000 C.3      12 GLL5        0.0000 
     51 CA          1.0277   17.0215  120.1270 C.3       4 GLC5        0.0000 
     52 CA         -0.5800   18.1050  120.6400 C.3      12 GLL5        0.0000 
     53 CA         -2.9205   15.8513  123.5562 C.3       4 GLC5        0.0000 
     54 CA         -1.0210   16.3260  122.3300 C.3      12 GLL5        0.0000 
     55 CA         -4.7130   16.1160  124.6250 C.3       8 GLP5        0.0000 
     56 CA          0.7344   16.0399  120.8141 C.3       4 GLC5        0.0000 
@<TRIPOS>BOND
@<TRIPOS>SUBSTRUCTURE
     1 ALC1       37 GROUP        1 X    ALC  0     ROOT ALC X 1
     2 SEC2        1 GROUP        1 X    SEC  0     **** SEC X 2
     3 LYC4       16 GROUP        1 X    LYC  0     **** LYC X 4
     4 GLC5        9 GROUP        1 X    GLC  0     **** GLC X 6
     5 ALP1       39 GROUP        1 Y    ALP  0     ROOT ALP Y 8
     6 SEP2        3 GROUP        1 Y    SEP  0     **** SEP Y 9
     7 LYP4       18 GROUP        1 Y    LYP  0     **** LYP Y 11
     8 GLP5       11 GROUP        1 Y    GLP  0     **** GLP Y 13
     9 ALL1       38 GROUP        1 Z    ALL  0     ROOT ALL Z 15
    10 SEL2        2 GROUP        1 Z    SEL  0     **** SEL Z 16
    11 LYL4       17 GROUP        1 Z    LYL  0     **** LYL Z 18
    12 GLL5       10 GROUP        1 Z    GLL  0     **** GLL Z 20
@<TRIPOS>SET

