#    Name: 2y66_N04_1_ligand
#    Modification time : Tue Mar 25 07:42:23 2014

@<TRIPOS>MOLECULE
2y66_N04_1_ligand
   52    54     1     0     0
SMALL
NO_CHARGES


@<TRIPOS>ATOM
      1 OE2         0.5060   27.3950  120.7780 O.co2     1 N04500      0.0000 
      2 CD          1.3290   27.5570  121.7100 C.2       1 N04500      0.0000 
      3 OE1         1.1970   28.3990  122.6230 O.co2     1 N04500      0.0000 
      4 CG          2.6020   26.7710  121.7830 C.3       1 N04500      0.0000 
      5 CB          2.7840   25.8010  120.6420 C.3       1 N04500      0.0000 
      6 C           5.0820   25.2400  121.3850 C.2       1 N04500      0.0000 
      7 OXT         5.7790   25.3830  120.3500 O.co2     1 N04500      0.0000 
      8 O           5.4730   25.4990  122.5470 O.co2     1 N04500      0.0000 
      9 N           3.6310   23.5220  120.4310 N.am      1 N04500      0.0000 
     10 CAU         4.1170   22.3580  120.8470 C.2       1 N04500      0.0000 
     11 OBC         4.7920   22.2390  121.8630 O.2       1 N04500      0.0000 
     12 CAT         3.7890   21.1920  119.9630 C.ar      1 N04500      0.0000 
     13 CAQ         2.5190   21.1280  119.4020 C.ar      1 N04500      0.0000 
     14 CAS         4.7280   20.2120  119.6670 C.ar      1 N04500      0.0000 
     15 CAR         4.3840   19.1610  118.8230 C.ar      1 N04500      0.0000 
     16 CAP         3.1150   19.0910  118.2620 C.ar      1 N04500      0.0000 
     17 CAO         2.1870   20.0800  118.5530 C.ar      1 N04500      0.0000 
     18 CAN         0.7980   20.0220  117.9760 C.3       1 N04500      0.0000 
     19 CAA        -1.1760   17.8390  118.3200 C.ar      1 N04500      0.0000 
     20 CAB        -1.6900   16.5850  118.6000 C.ar      1 N04500      0.0000 
     21 CAG        -1.6390   16.0800  119.8890 C.ar      1 N04500      0.0000 
     22 CAC        -0.6270   18.6050  119.3400 C.ar      1 N04500      0.0000 
     23 CAE        -0.5800   18.1050  120.6400 C.ar      1 N04500      0.0000 
     24 CAF        -1.0800   16.8350  120.9080 C.ar      1 N04500      0.0000 
     25 CAH        -1.0210   16.3260  122.3300 C.2       1 N04500      0.0000 
     26 SBG        -1.3970   13.5480  121.4530 S.3       1 N04500      0.0000 
     27 CAL        -1.5590   12.4480  122.8210 C.2       1 N04500      0.0000 
     28 NAX        -1.4950   12.9230  124.0880 N.am      1 N04500      0.0000 
     29 CA          3.6830   24.7140  121.2340 C.3       1 N04500      0.0000 
     30 CAK        -1.3200   14.2530  124.0010 C.2       1 N04500      0.0000 
     31 CAI        -1.2350   14.8470  122.6450 C.2       1 N04500      0.0000 
     32 OBE        -1.2260   14.9730  125.0630 O.2       1 N04500      0.0000 
     33 OAY        -0.1350   19.8550  119.0470 O.3       1 N04500      0.0000 
     34 OBH        -1.7310   11.1930  122.6700 O.2       1 N04500      0.0000 
     35 H           2.6329   26.2116  122.7376 H         1 N04500      0.0000 
     36 H           3.4620   27.4675  121.8021 H         1 N04500      0.0000 
     37 H           3.2843   26.2724  119.8331 H         1 N04500      0.0000 
     38 H           1.8509   25.3769  120.3657 H         1 N04500      0.0000 
     39 H           3.1827   23.6237  119.4872 H         1 N04500      0.0000 
     40 H           1.8253   21.8568  119.6157 H         1 N04500      0.0000 
     41 H           5.6710   20.2623  120.0685 H         1 N04500      0.0000 
     42 H           5.0787   18.4267  118.6121 H         1 N04500      0.0000 
     43 H           2.8678   18.3157  117.6392 H         1 N04500      0.0000 
     44 H           0.7510   19.1882  117.2700 H         1 N04500      0.0000 
     45 H           0.6133   20.9481  117.4245 H         1 N04500      0.0000 
     46 H          -1.1995   18.2050  117.3588 H         1 N04500      0.0000 
     47 H          -2.1137   16.0225  117.8449 H         1 N04500      0.0000 
     48 H          -2.0166   15.1430  120.0905 H         1 N04500      0.0000 
     49 H          -0.1785   18.6716  121.3946 H         1 N04500      0.0000 
     50 H          -0.8409   16.9572  123.0750 H         1 N04500      0.0000 
     51 H          -1.5623   12.4047  124.8894 H         1 N04500      0.0000 
     52 H           3.2942   24.5038  122.2427 H         1 N04500      0.0000 
@<TRIPOS>BOND
     1    2    1 ar   
     2    3    2 ar   
     3    4    2 1    
     4    5    4 1    
     5   35    4 1    
     6   36    4 1    
     7   29    5 1    
     8   37    5 1    
     9   38    5 1    
    10    7    6 ar   
    11    8    6 ar   
    12   29    6 1    
    13   10    9 am   
    14   29    9 1    
    15   39    9 1    
    16   11   10 2    
    17   12   10 1    
    18   13   12 ar   
    19   14   12 ar   
    20   17   13 ar   
    21   40   13 1    
    22   15   14 ar   
    23   41   14 1    
    24   16   15 ar   
    25   42   15 1    
    26   17   16 ar   
    27   43   16 1    
    28   18   17 1    
    29   33   18 1    
    30   44   18 1    
    31   45   18 1    
    32   20   19 ar   
    33   22   19 ar   
    34   46   19 1    
    35   21   20 ar   
    36   47   20 1    
    37   24   21 ar   
    38   48   21 1    
    39   23   22 ar   
    40   33   22 1    
    41   24   23 ar   
    42   49   23 1    
    43   25   24 1    
    44   31   25 2    
    45   50   25 1    
    46   27   26 1    
    47   31   26 1    
    48   28   27 am   
    49   34   27 2    
    50   30   28 am   
    51   51   28 1    
    52   52   29 1    
    53   31   30 1    
    54   32   30 2    
@<TRIPOS>SUBSTRUCTURE
     1 N04500      1 GROUP   
@<TRIPOS>SET

