#    Name: 2ZNU_1_CAVITY_N1_6.mol2
#    Modification time : Tue Mar 11 06:06:48 2014

@<TRIPOS>MOLECULE
2ZNU_1_CAVITY_N1_6.mol2
   68     0     6     0     0
SMALL
NO_CHARGES


@<TRIPOS>ATOM
      1 CA         26.5150    1.0609   14.3226 C.3       5 GLY6        0.0000 
      2 CA         26.3371   -0.1085   13.4002 C.3       5 GLY6        0.0000 
      3 OG         26.2867    0.8246   12.2269 O.2       1 SER1        0.0000 
      4 CA         26.2098   -2.2111   13.6512 C.3       5 GLY6        0.0000 
      5 CA         26.1593   -1.2779   12.4779 C.3       5 GLY6        0.0000 
      6 N          26.1834   -6.1799   16.2488 N.2       2 ALA2        0.0000 
      7 CA         26.1329   -5.2468   15.0755 C.3       5 GLY6        0.0000 
      8 CA         26.0824   -4.3136   13.9022 C.3       5 GLY6        0.0000 
      9 CA         26.0319   -3.3805   12.7288 C.3       5 GLY6        0.0000 
     10 O          25.9814   -2.4474   11.5555 O.2       2 ALA2        0.0000 
     11 N          26.0055   -7.3493   15.3265 N.2       2 ALA2        0.0000 
     12 N          25.9550   -6.4162   14.1531 N.2       2 ALA2        0.0000 
     13 OG         25.0769    0.2359   15.6460 O.2       1 SER1        0.0000 
     14 OG         25.0265    1.1690   14.4726 O.2       1 SER1        0.0000 
     15 O          24.9760    2.1022   13.2993 O.2       2 ALA2        0.0000 
     16 CA         25.1010   -4.6661   19.4169 C.3       5 GLY6        0.0000 
     17 CA         25.0505   -3.7329   18.2436 C.3       5 GLY6        0.0000 
     18 CA         25.0000   -2.7998   17.0703 C.3       5 GLY6        0.0000 
     19 CA         24.9496   -1.8667   15.8969 C.3       5 GLY6        0.0000 
     20 CA         24.8991   -0.9335   14.7236 C.3       5 GLY6        0.0000 
     21 DU         24.8486   -0.0004   13.5503 H         6 CUB7        0.0000 
     22 OG         24.7981    0.9327   12.3769 O.2       1 SER1        0.0000 
     23 N          24.9232   -5.8355   18.4946 N.2       2 ALA2        0.0000 
     24 CA         24.8727   -4.9024   17.3212 C.3       5 GLY6        0.0000 
     25 CA         24.8222   -3.9692   16.1479 C.3       5 GLY6        0.0000 
     26 CA         24.7717   -3.0361   14.9746 C.3       5 GLY6        0.0000 
     27 CA         24.7212   -2.1030   13.8012 C.3       5 GLY6        0.0000 
     28 OG         24.6707   -1.1698   12.6279 O.2       1 SER1        0.0000 
     29 OG         24.6202   -0.2367   11.4546 O.2       1 SER1        0.0000 
     30 CZ         24.6948   -6.0718   16.3988 C.ar      4 PHE5        0.0000 
     31 CZ         24.6443   -5.1387   15.2255 C.ar      4 PHE5        0.0000 
     32 CZ         24.5938   -4.2055   14.0522 C.ar      4 PHE5        0.0000 
     33 CA         24.5433   -3.2724   12.8788 C.3       5 GLY6        0.0000 
     34 O          24.4928   -2.3393   11.7055 O.2       2 ALA2        0.0000 
     35 O          24.5169   -7.2412   15.4765 O.2       2 ALA2        0.0000 
     36 CZ         24.4664   -6.3081   14.3031 C.ar      4 PHE5        0.0000 
     37 O          23.9177   -1.2860   20.2384 O.2       2 ALA2        0.0000 
     38 OG         23.7158    2.4466   15.5450 O.2       1 SER1        0.0000 
     39 NZ         23.7399   -2.4554   19.3160 N.2       3 LYS4        0.0000 
     40 OG         23.5379    1.2771   14.6227 O.2       1 SER1        0.0000 
     41 O          23.4874    2.2103   13.4493 O.2       2 ALA2        0.0000 
     42 CA         23.6125   -4.5580   19.5670 C.3       5 GLY6        0.0000 
     43 NZ         23.5620   -3.6248   18.3936 N.2       3 LYS4        0.0000 
     44 NZ         23.5115   -2.6917   17.2203 N.2       3 LYS4        0.0000 
     45 NZ         23.4610   -1.7586   16.0469 N.2       3 LYS4        0.0000 
     46 NZ         23.4105   -0.8254   14.8736 N.2       3 LYS4        0.0000 
     47 NZ         23.3600    0.1077   13.7003 N.2       3 LYS4        0.0000 
     48 NZ         23.3095    1.0408   12.5269 N.2       3 LYS4        0.0000 
     49 N          23.4346   -5.7274   18.6446 N.2       2 ALA2        0.0000 
     50 CZ         23.3841   -4.7943   17.4712 C.ar      4 PHE5        0.0000 
     51 CZ         23.2326   -1.9949   13.9512 C.ar      4 PHE5        0.0000 
     52 NZ         23.1822   -1.0617   12.7779 N.2       3 LYS4        0.0000 
     53 CZ         23.0548   -3.1643   13.0289 C.ar      4 PHE5        0.0000 
     54 OG         23.0043   -2.2312   11.8555 O.2       1 SER1        0.0000 
     55 NZ         22.9538   -1.2981   10.6822 N.2       3 LYS4        0.0000 
     56 CZ         22.8769   -4.3338   12.1065 C.ar      4 PHE5        0.0000 
     57 OG         22.8264   -3.4006   10.9331 O.2       1 SER1        0.0000 
     58 NZ         22.6839    3.0273   19.8865 N.2       3 LYS4        0.0000 
     59 NZ         22.6334    3.9604   18.7131 N.2       3 LYS4        0.0000 
     60 NZ         22.4292   -1.1779   20.3884 N.2       3 LYS4        0.0000 
     61 OG         22.0493    1.3852   14.7727 O.2       1 SER1        0.0000 
     62 OG         21.9988    2.3183   13.5993 O.2       1 SER1        0.0000 
     63 NZ         22.0734   -3.5168   18.5436 N.2       3 LYS4        0.0000 
     64 OG         21.9220   -0.7174   15.0236 O.2       1 SER1        0.0000 
     65 NZ         21.8715    0.2158   13.8503 N.2       3 LYS4        0.0000 
     66 NZ         21.6936   -0.9537   12.9279 N.2       3 LYS4        0.0000 
     67 NZ         21.5157   -2.1231   12.0055 N.2       3 LYS4        0.0000 
     68 NZ         21.1954    3.1353   20.0365 N.2       3 LYS4        0.0000 
@<TRIPOS>BOND
@<TRIPOS>SUBSTRUCTURE
     1 SER1        3 GROUP   
     2 ALA2        6 GROUP   
     3 LYS4       39 GROUP   
     4 PHE5       30 GROUP   
     5 GLY6        1 GROUP   
     6 CUB7       21 GROUP   
@<TRIPOS>SET

