#    Name: 2znu_NDZ_1_INTS_M
#    Modification time : Tue Mar 25 10:55:47 2014

@<TRIPOS>MOLECULE
2znu_NDZ_1_INTS_M
   79     0    15     0     0
SMALL
NO_CHARGES


@<TRIPOS>ATOM
      1 NZ         20.2585   -5.1795    9.3215 N.4       4 LYC4        0.0000 
      2 NZ         20.3130   -4.2050   10.3510 N.4      14 LYL4        0.0000 
      3 NZ         20.9520   -7.2420    8.3800 N.4       9 LYP4        0.0000 
      4 N          19.1455   -3.8495    9.5410 N.am      2 SEC2        0.0000 
      5 N          20.3130   -4.2050   10.3510 N.am     12 SEL2        0.0000 
      6 N          17.9780   -3.4940    8.7310 N.am      7 SEP2        0.0000 
      7 N          20.2585   -5.1795    9.3215 N.am      2 SEC2        0.0000 
      8 N          20.2040   -6.1540    8.2920 N.am      7 SEP2        0.0000 
      9 NZ         21.3100   -5.5485    9.3885 N.4       4 LYC4        0.0000 
     10 NZ         22.4160   -4.9430   10.4850 N.4      14 LYL4        0.0000 
     11 N          21.3100   -5.5485    9.3885 N.am      2 SEC2        0.0000 
     12 N          22.4160   -4.9430   10.4850 N.am     12 SEL2        0.0000 
     13 N          22.1265   -6.1530    9.9220 N.am      2 SEC2        0.0000 
     14 N          21.8370   -7.3630    9.3590 N.am      7 SEP2        0.0000 
     15 N          23.6725   -4.7365    9.8640 N.am      2 SEC2        0.0000 
     16 N          24.9290   -4.5300    9.2430 N.am      7 SEP2        0.0000 
     17 CA         21.0010   -3.9060   12.3750 C.3       5 GLC5        0.0000 
     18 CA         21.9670   -2.6970   11.0970 C.3      15 GLL5        0.0000 
     19 CA         20.0350   -5.1150   13.6530 C.3      10 GLP5        0.0000 
     20 CA         20.8370   -2.5265    9.2605 C.3       5 GLC5        0.0000 
     21 CA         19.7070   -2.3560    7.4240 C.3      10 GLP5        0.0000 
     22 CA         22.7475   -3.1910    9.2310 C.3       5 GLC5        0.0000 
     23 CA         23.5280   -3.6850    7.3650 C.3      10 GLP5        0.0000 
     24 OD1        20.9105   -0.4190   11.1965 O.co2     3 ASC3        0.0000 
     25 OD1        20.7760   -1.8810   11.3530 O.co2    13 ASL3        0.0000 
     26 OD1        21.0450    1.0430   11.0400 O.co2     8 ASP3        0.0000 
     27 OD1        21.2690   -0.8125   10.2280 O.co2     3 ASC3        0.0000 
     28 OD1        21.7620    0.2560    9.1030 O.co2     8 ASP3        0.0000 
     29 O          19.3790   -2.0825   11.8015 O.2       1 ALC1        0.0000 
     30 O          20.7760   -1.8810   11.3530 O.2      11 ALL1        0.0000 
     31 O          17.9820   -2.2840   12.2500 O.2       6 ALP1        0.0000 
     32 O          20.3360   -1.6915    9.9640 O.2       1 ALC1        0.0000 
     33 O          19.8960   -1.5020    8.5750 O.2       6 ALP1        0.0000 
     34 O          21.2690   -0.8125   10.2280 O.2       1 ALC1        0.0000 
     35 O          21.7620    0.2560    9.1030 O.2       6 ALP1        0.0000 
     36 CA         21.9855   -4.3655   13.1620 C.3       5 GLC5        0.0000 
     37 CA         22.7350   -2.9500   12.4040 C.3      15 GLL5        0.0000 
     38 CA         21.2360   -5.7810   13.9200 C.3      10 GLP5        0.0000 
     39 CA         24.3045   -4.2760   11.8060 C.3       5 GLC5        0.0000 
     40 CA         25.8740   -5.6020   11.2080 C.3      10 GLP5        0.0000 
     41 N          25.3215    0.2165   10.3500 N.am      2 SEC2        0.0000 
     42 N          24.6650   -0.0890   11.3990 N.am     12 SEL2        0.0000 
     43 N          25.9780    0.5220    9.3010 N.am      7 SEP2        0.0000 
     44 N          25.7750   -2.1975    9.7840 N.am      2 SEC2        0.0000 
     45 N          25.2510   -2.2150   11.1440 N.am     12 SEL2        0.0000 
     46 N          26.2990   -2.1800    8.4240 N.am      7 SEP2        0.0000 
     47 CA         25.8855   -2.6375   15.1310 C.3       5 GLC5        0.0000 
     48 CA         24.3220   -2.0680   14.1260 C.3      15 GLL5        0.0000 
     49 CA         27.4490   -3.2070   16.1360 C.3      10 GLP5        0.0000 
     50 CA         21.6350   -1.9255   14.9735 C.3       5 GLC5        0.0000 
     51 CA         22.7930   -0.3040   14.5350 C.3      15 GLL5        0.0000 
     52 CA         20.4770   -3.5470   15.4120 C.3      10 GLP5        0.0000 
     53 CA         26.0395   -0.7455   15.6530 C.3       5 GLC5        0.0000 
     54 CA         24.2020   -0.7930   14.9570 C.3      15 GLL5        0.0000 
     55 CA         27.8770   -0.6980   16.3490 C.3      10 GLP5        0.0000 
     56 CA         26.4685    0.3845   15.6485 C.3       5 GLC5        0.0000 
     57 CA         25.0600    1.4670   14.9480 C.3      15 GLL5        0.0000 
     58 CA         24.9135    1.4805   17.1205 C.3       5 GLC5        0.0000 
     59 CA         24.7670    1.4940   19.2930 C.3      10 GLP5        0.0000 
     60 N          24.1055    3.2340   12.0410 N.am      2 SEC2        0.0000 
     61 N          23.8800    2.1570   12.9200 N.am     12 SEL2        0.0000 
     62 N          24.3310    4.3110   11.1620 N.am      7 SEP2        0.0000 
     63 CA         21.0815    0.7100   16.2950 C.3       5 GLC5        0.0000 
     64 CA         22.5440    1.2120   14.7480 C.3      15 GLL5        0.0000 
     65 CA         19.6190    0.2080   17.8420 C.3      10 GLP5        0.0000 
     66 N          20.9460    2.8590   14.3370 N.am      2 SEC2        0.0000 
     67 N          21.3490    1.6210   14.0130 N.am     12 SEL2        0.0000 
     68 N          20.5430    4.0970   14.6610 N.am      7 SEP2        0.0000 
     69 O          21.1970    1.3320   12.5265 O.2       1 ALC1        0.0000 
     70 O          21.3490    1.6210   14.0130 O.2      11 ALL1        0.0000 
     71 O          21.0450    1.0430   11.0400 O.2       6 ALP1        0.0000 
     72 CA         22.8618   -2.7743   14.9610 C.3       5 GLC5        0.0000 
     73 CA         23.5720   -1.7280   12.8120 C.3      15 GLL5        0.0000 
     74 CA         21.6490   -4.2030   15.7090 C.3      10 GLP5        0.0000 
     75 CA         24.9465    3.4765   14.3815 C.3       5 GLC5        0.0000 
     76 CA         25.4760    5.1840   14.1100 C.3      10 GLP5        0.0000 
     77 CA         22.3290    3.3777   14.7765 C.3       5 GLC5        0.0000 
     78 CA         23.7740    2.0710   14.3580 C.3      15 GLL5        0.0000 
     79 CA         21.4990    5.1140   15.0000 C.3      10 GLP5        0.0000 
@<TRIPOS>BOND
@<TRIPOS>SUBSTRUCTURE
     1 ALC1       29 GROUP        1 X    ALC  0     ROOT ALC X 1
     2 SEC2        4 GROUP        1 X    SEC  0     **** SEC X 2
     3 ASC3       24 GROUP        1 X    ASC  0     **** ASC X 3
     4 LYC4        1 GROUP        1 X    LYC  0     **** LYC X 4
     5 GLC5       17 GROUP        1 X    GLC  0     **** GLC X 6
     6 ALP1       31 GROUP        1 Y    ALP  0     ROOT ALP Y 8
     7 SEP2        6 GROUP        1 Y    SEP  0     **** SEP Y 9
     8 ASP3       26 GROUP        1 Y    ASP  0     **** ASP Y 10
     9 LYP4        3 GROUP        1 Y    LYP  0     **** LYP Y 11
    10 GLP5       19 GROUP        1 Y    GLP  0     **** GLP Y 13
    11 ALL1       30 GROUP        1 Z    ALL  0     ROOT ALL Z 15
    12 SEL2        5 GROUP        1 Z    SEL  0     **** SEL Z 16
    13 ASL3       25 GROUP        1 Z    ASL  0     **** ASL Z 17
    14 LYL4        2 GROUP        1 Z    LYL  0     **** LYL Z 18
    15 GLL5       18 GROUP        1 Z    GLL  0     **** GLL Z 20
@<TRIPOS>SET

