#    Name: 2znu_NDZ_1_ligand
#    Modification time : Tue Mar 25 10:55:47 2014

@<TRIPOS>MOLECULE
2znu_NDZ_1_ligand
   36    37     1     0     0
SMALL
NO_CHARGES


@<TRIPOS>ATOM
      1 O          20.3130   -4.2050   10.3510 O.co2     1 NDZ1        0.0000 
      2 C          21.5280   -4.0600   10.5950 C.2       1 NDZ1        0.0000 
      3 OXT        22.4160   -4.9430   10.4850 O.co2     1 NDZ1        0.0000 
      4 CA         21.9670   -2.6970   11.0970 C.3       1 NDZ1        0.0000 
      5 N          20.7760   -1.8810   11.3530 N.4       1 NDZ1        0.0000 
      6 CB         22.7350   -2.9500   12.4040 C.3       1 NDZ1        0.0000 
      7 CAJ        23.5720   -1.7280   12.8120 C.3       1 NDZ1        0.0000 
      8 CAD        24.5790   -1.3020   11.6850 C.2       1 NDZ1        0.0000 
      9 OAA        24.6650   -0.0890   11.3990 O.co2     1 NDZ1        0.0000 
     10 OAE        25.2510   -2.2150   11.1440 O.co2     1 NDZ1        0.0000 
     11 CAR        24.3220   -2.0680   14.1260 C.3       1 NDZ1        0.0000 
     12 OAI        22.6660   -0.6190   13.1200 O.3       1 NDZ1        0.0000 
     13 CAH        22.7930   -0.3040   14.5350 C.3       1 NDZ1        0.0000 
     14 CAQ        24.2020   -0.7930   14.9570 C.3       1 NDZ1        0.0000 
     15 OAP        25.2510    0.0910   14.5080 O.3       1 NDZ1        0.0000 
     16 CAO        25.0600    1.4670   14.9480 C.3       1 NDZ1        0.0000 
     17 CAF        23.7740    2.0710   14.3580 C.3       1 NDZ1        0.0000 
     18 OAB        23.8800    2.1570   12.9200 O.3       1 NDZ1        0.0000 
     19 CAG        22.5440    1.2120   14.7480 C.3       1 NDZ1        0.0000 
     20 OAC        21.3490    1.6210   14.0130 O.3       1 NDZ1        0.0000 
     21 H          22.6136   -2.2558   10.3939 H         1 NDZ1        0.0000 
     22 H          23.3954   -3.8066   12.2698 H         1 NDZ1        0.0000 
     23 H          22.0235   -3.1768   13.1978 H         1 NDZ1        0.0000 
     24 H          25.3380   -2.2661   13.9057 H         1 NDZ1        0.0000 
     25 H          23.8283   -2.8682   14.6116 H         1 NDZ1        0.0000 
     26 H          22.0623   -0.8620   15.0965 H         1 NDZ1        0.0000 
     27 H          24.2104   -1.0334   15.9518 H         1 NDZ1        0.0000 
     28 H          25.9017    2.1008   14.6382 H         1 NDZ1        0.0000 
     29 H          24.9870    1.5248   16.0423 H         1 NDZ1        0.0000 
     30 H          23.6371    3.0531   14.7925 H         1 NDZ1        0.0000 
     31 H          22.3734    1.3565   15.8246 H         1 NDZ1        0.0000 
     32 H          20.9290   -1.2213   12.0887 H         1 NDZ1        0.0000 
     33 H          20.5018   -1.3602   10.5445 H         1 NDZ1        0.0000 
     34 H          19.9922   -2.4415   11.6203 H         1 NDZ1        0.0000 
     35 H          24.1295    1.2352   12.6234 H         1 NDZ1        0.0000 
     36 H          21.5130    1.3304   13.0703 H         1 NDZ1        0.0000 
@<TRIPOS>BOND
     1    2    1 ar   
     2    3    2 ar   
     3    4    2 1    
     4    5    4 1    
     5    6    4 1    
     6   21    4 1    
     7   32    5 1    
     8   33    5 1    
     9   34    5 1    
    10    7    6 1    
    11   22    6 1    
    12   23    6 1    
    13    8    7 1    
    14   11    7 1    
    15   12    7 1    
    16    9    8 ar   
    17   10    8 ar   
    18   14   11 1    
    19   24   11 1    
    20   25   11 1    
    21   13   12 1    
    22   14   13 1    
    23   19   13 1    
    24   26   13 1    
    25   15   14 1    
    26   27   14 1    
    27   16   15 1    
    28   17   16 1    
    29   28   16 1    
    30   29   16 1    
    31   18   17 1    
    32   19   17 1    
    33   30   17 1    
    34   35   18 1    
    35   20   19 1    
    36   31   19 1    
    37   36   20 1    
@<TRIPOS>SUBSTRUCTURE
     1 NDZ1        1 GROUP   
@<TRIPOS>SET

