#    Name: 3skh_058_1_INTS_M
#    Modification time : Mon Mar 24 17:48:07 2014

@<TRIPOS>MOLECULE
3skh_058_1_INTS_M
   60     0     3     0     0
SMALL
NO_CHARGES


@<TRIPOS>ATOM
      1 CA         21.4675   44.5465   46.5940 C.3       1 GLC5        0.0000 
      2 CA         21.6070   45.8780   45.1850 C.3       3 GLL5        0.0000 
      3 CA         21.3280   43.2150   48.0030 C.3       2 GLP5        0.0000 
      4 CA         21.8585   44.1490   44.5095 C.3       1 GLC5        0.0000 
      5 CA         22.1100   42.4200   43.8340 C.3       2 GLP5        0.0000 
      6 CA         23.7505   41.6885   51.5875 C.3       1 GLC5        0.0000 
      7 CA         25.3050   42.8100   50.9080 C.3       3 GLL5        0.0000 
      8 CA         22.1960   40.5670   52.2670 C.3       2 GLP5        0.0000 
      9 CA         27.5320   42.9130   51.1065 C.3       1 GLC5        0.0000 
     10 CA         29.7590   43.0160   51.3050 C.3       2 GLP5        0.0000 
     11 CA         26.0225   41.9430   52.4405 C.3       1 GLC5        0.0000 
     12 CA         26.7400   41.0760   53.9730 C.3       2 GLP5        0.0000 
     13 CA         25.8435   44.2240   51.8435 C.3       1 GLC5        0.0000 
     14 CA         26.3820   45.6380   52.7790 C.3       2 GLP5        0.0000 
     15 CA         25.0440   42.0270   42.3420 C.3       1 GLC5        0.0000 
     16 CA         25.8040   43.0000   43.9530 C.3       3 GLL5        0.0000 
     17 CA         24.2840   41.0540   40.7310 C.3       2 GLP5        0.0000 
     18 CA         24.2650   42.3620   44.4145 C.3       1 GLC5        0.0000 
     19 CA         22.7260   41.7240   44.8760 C.3       2 GLP5        0.0000 
     20 CA         22.3540   44.8085   47.3555 C.3       1 GLC5        0.0000 
     21 CA         23.3800   46.4020   46.7080 C.3       3 GLL5        0.0000 
     22 CA         19.2495   47.2570   46.6560 C.3       1 GLC5        0.0000 
     23 CA         21.3830   47.8030   46.5180 C.3       3 GLL5        0.0000 
     24 CA         17.1160   46.7110   46.7940 C.3       2 GLP5        0.0000 
     25 CA         28.5960   43.4095   45.2805 C.3       1 GLC5        0.0000 
     26 CA         27.6560   44.7240   44.2410 C.3       3 GLL5        0.0000 
     27 CA         29.5360   42.0950   46.3200 C.3       2 GLP5        0.0000 
     28 CA         23.1695   43.3750   48.4507 C.3       1 GLC5        0.0000 
     29 CA         25.3360   42.9830   49.1900 C.3       3 GLL5        0.0000 
     30 CA         20.0825   46.0905   44.7873 C.3       1 GLC5        0.0000 
     31 CA         22.1230   46.6840   46.1280 C.3       3 GLL5        0.0000 
     32 CA         18.3000   45.9000   43.9180 C.3       2 GLP5        0.0000 
     33 CA         26.4797   40.1412   48.1393 C.3       1 GLC5        0.0000 
     34 CA         26.0190   42.1820   47.0050 C.3       3 GLL5        0.0000 
     35 CA         26.9550   38.1730   48.5760 C.3       2 GLP5        0.0000 
     36 CA         27.6114   42.3999   46.6901 C.3       1 GLC5        0.0000 
     37 CA         25.3690   43.3000   46.4180 C.3       3 GLL5        0.0000 
     38 CA         23.1145   43.6174   47.2955 C.3       1 GLC5        0.0000 
     39 CA         27.8538   42.1883   44.3047 C.3       1 GLC5        0.0000 
     40 CA         29.2530   41.0610   44.8680 C.3       2 GLP5        0.0000 
     41 CA         21.9292   46.6410   48.5983 C.3       1 GLC5        0.0000 
     42 CA         23.8750   47.2680   47.7010 C.3       3 GLL5        0.0000 
     43 CA         20.3570   45.4540   49.3000 C.3       2 GLP5        0.0000 
     44 CA         21.8978   49.4735   49.6790 C.3       1 GLC5        0.0000 
     45 CA         23.1280   48.3880   48.0920 C.3       3 GLL5        0.0000 
     46 CA         21.2900   50.4250   51.5620 C.3       2 GLP5        0.0000 
     47 CA         20.0815   49.1852   47.9485 C.3       1 GLC5        0.0000 
     48 CA         21.8830   48.6560   47.5000 C.3       3 GLL5        0.0000 
     49 CA         18.5300   50.1410   48.8880 C.3       2 GLP5        0.0000 
     50 CA         21.1175   46.4554   47.9342 C.3       1 GLC5        0.0000 
     51 CA         28.3732   41.5495   41.8515 C.3       1 GLC5        0.0000 
     52 CA         27.8010   43.1360   42.4150 C.3       3 GLL5        0.0000 
     53 CA         28.3410   39.6690   41.4880 C.3       2 GLP5        0.0000 
     54 CA         28.8293   42.2455   43.5415 C.3       1 GLC5        0.0000 
     55 CA         30.7592   42.8967   42.1628 C.3       1 GLC5        0.0000 
     56 CA         29.0100   43.7240   42.0150 C.3       3 GLL5        0.0000 
     57 CA         32.2420   41.5290   41.9530 C.3       2 GLP5        0.0000 
     58 CA         30.0160   43.9820   44.7742 C.3       1 GLC5        0.0000 
     59 CA         29.5430   44.8050   42.7300 C.3       3 GLL5        0.0000 
     60 CA         30.8270   42.9090   46.2600 C.3       2 GLP5        0.0000 
@<TRIPOS>BOND
@<TRIPOS>SUBSTRUCTURE
     1 GLC5        1 GROUP        1 X    GLC  0     ROOT GLC X 6
     2 GLP5        3 GROUP        1 Y    GLP  0     ROOT GLP Y 13
     3 GLL5        2 GROUP        1 Z    GLL  0     ROOT GLL Z 20
@<TRIPOS>SET

