#    Name: 3skh_058_1_ligand
#    Modification time : Mon Mar 24 17:48:07 2014

@<TRIPOS>MOLECULE
3skh_058_1_ligand
   41    44     1     0     0
SMALL
NO_CHARGES


@<TRIPOS>ATOM
      1 C1         25.3360   42.9830   49.1900 C.ar      1 058577      0.0000 
      2 F1         21.6070   45.8780   45.1850 F         1 058577      0.0000 
      3 N1         25.2380   43.7040   45.0960 N.pl3     1 058577      0.0000 
      4 O1         24.5230   46.9150   43.8280 O.co2     1 058577      0.0000 
      5 CL1        25.3050   42.8100   50.9080 Cl        1 058577      0.0000 
      6 C2         25.9900   42.0370   48.4000 C.ar      1 058577      0.0000 
      7 O2         23.7210   45.1040   42.7440 O.co2     1 058577      0.0000 
      8 C3         26.0190   42.1820   47.0050 C.ar      1 058577      0.0000 
      9 C4         24.6860   44.0870   48.6070 C.ar      1 058577      0.0000 
     10 C5         24.5070   44.8850   45.0050 C.2       1 058577      0.0000 
     11 C6         24.1630   45.2300   46.3190 C.2       1 058577      0.0000 
     12 C7         24.7030   44.2490   47.1970 C.ar      1 058577      0.0000 
     13 C8         25.3690   43.3000   46.4180 C.ar      1 058577      0.0000 
     14 C9         25.8040   43.0000   43.9530 C.3       1 058577      0.0000 
     15 C10        24.1850   45.5980   43.7660 C.2       1 058577      0.0000 
     16 C11        23.3800   46.4020   46.7080 C.ar      1 058577      0.0000 
     17 C12        23.8750   47.2680   47.7010 C.ar      1 058577      0.0000 
     18 C13        23.1280   48.3880   48.0920 C.ar      1 058577      0.0000 
     19 C14        21.8830   48.6560   47.5000 C.ar      1 058577      0.0000 
     20 C15        21.3830   47.8030   46.5180 C.ar      1 058577      0.0000 
     21 C16        22.1230   46.6840   46.1280 C.ar      1 058577      0.0000 
     22 C17        27.1050   43.6310   43.5300 C.ar      1 058577      0.0000 
     23 C18        27.8010   43.1360   42.4150 C.ar      1 058577      0.0000 
     24 C19        29.0100   43.7240   42.0150 C.ar      1 058577      0.0000 
     25 C20        29.5430   44.8050   42.7300 C.ar      1 058577      0.0000 
     26 C21        28.8670   45.3050   43.8470 C.ar      1 058577      0.0000 
     27 C22        27.6560   44.7240   44.2410 C.ar      1 058577      0.0000 
     28 H          26.4523   41.2314   48.8376 H         1 058577      0.0000 
     29 H          26.4935   41.5049   46.4192 H         1 058577      0.0000 
     30 H          24.2042   44.7694   49.1897 H         1 058577      0.0000 
     31 H          25.1097   43.0225   43.1018 H         1 058577      0.0000 
     32 H          25.9892   41.9458   44.2005 H         1 058577      0.0000 
     33 H          24.7819   47.0776   48.1368 H         1 058577      0.0000 
     34 H          23.4931   49.0181   48.8169 H         1 058577      0.0000 
     35 H          21.3469   49.4786   47.7930 H         1 058577      0.0000 
     36 H          20.4750   47.9946   46.0821 H         1 058577      0.0000 
     37 H          27.4220   42.3391   41.8902 H         1 058577      0.0000 
     38 H          29.5071   43.3598   41.1933 H         1 058577      0.0000 
     39 H          30.4282   45.2279   42.4330 H         1 058577      0.0000 
     40 H          29.2548   46.0914   44.3742 H         1 058577      0.0000 
     41 H          27.1525   45.0928   45.0605 H         1 058577      0.0000 
@<TRIPOS>BOND
     1    5    1 1    
     2    6    1 ar   
     3    9    1 ar   
     4   21    2 1    
     5   10    3 1    
     6   13    3 1    
     7   14    3 1    
     8   15    4 ar   
     9    8    6 ar   
    10   28    6 1    
    11   15    7 ar   
    12   13    8 ar   
    13   29    8 1    
    14   12    9 ar   
    15   30    9 1    
    16   11   10 2    
    17   15   10 1    
    18   12   11 1    
    19   16   11 1    
    20   13   12 ar   
    21   22   14 1    
    22   31   14 1    
    23   32   14 1    
    24   17   16 ar   
    25   21   16 ar   
    26   18   17 ar   
    27   33   17 1    
    28   19   18 ar   
    29   34   18 1    
    30   20   19 ar   
    31   35   19 1    
    32   21   20 ar   
    33   36   20 1    
    34   23   22 ar   
    35   27   22 ar   
    36   24   23 ar   
    37   37   23 1    
    38   25   24 ar   
    39   38   24 1    
    40   26   25 ar   
    41   39   25 1    
    42   27   26 ar   
    43   40   26 1    
    44   41   27 1    
@<TRIPOS>SUBSTRUCTURE
     1 058577      1 GROUP   
@<TRIPOS>SET

