#    Name: 3iop_8I1_1_INTS_M
#    Modification time : Tue Mar 25 17:02:18 2014

@<TRIPOS>MOLECULE
3iop_8I1_1_INTS_M
   98     0    12     0     0
SMALL
NO_CHARGES


@<TRIPOS>ATOM
      1 CA        -35.1650  -21.4040    3.9185 C.3       4 GLC5        0.0000 
      2 CA        -35.0160  -22.1170    5.7780 C.3      12 GLL5        0.0000 
      3 CA        -35.3140  -20.6910    2.0590 C.3       8 GLP5        0.0000 
      4 N         -34.7645  -29.7540    1.9690 N.am      2 SEC2        0.0000 
      5 N         -34.4090  -29.3920    3.3120 N.am     10 SEL2        0.0000 
      6 N         -35.1200  -30.1160    0.6260 N.am      6 SEP2        0.0000 
      7 N         -29.2205  -26.7755    4.1830 N.am      2 SEC2        0.0000 
      8 N         -30.6070  -26.6870    4.6760 N.am     10 SEL2        0.0000 
      9 N         -27.8340  -26.8640    3.6900 N.am      6 SEP2        0.0000 
     10 CA        -33.5260  -24.2925    3.1950 C.3       4 GLC5        0.0000 
     11 CA        -33.5820  -24.6210    5.3010 C.3      12 GLL5        0.0000 
     12 CA        -33.4700  -23.9640    1.0890 C.3       8 GLP5        0.0000 
     13 O         -30.7620  -30.3355    3.2830 O.2       1 ALC1        0.0000 
     14 O         -32.2640  -30.3040    3.0920 O.2       9 ALL1        0.0000 
     15 O         -29.2600  -30.3670    3.4740 O.2       5 ALP1        0.0000 
     16 N         -39.4060  -31.3765    3.4585 N.am      2 SEC2        0.0000 
     17 N         -38.5830  -30.2100    3.2000 N.am     10 SEL2        0.0000 
     18 N         -40.2290  -32.5430    3.7170 N.am      6 SEP2        0.0000 
     19 OD1       -40.8135  -22.7855    2.3670 O.co2     3 ASC3        0.0000 
     20 OD1       -40.9920  -24.2770    2.4590 O.co2    11 ASL3        0.0000 
     21 OD1       -40.6350  -21.2940    2.2750 O.co2     7 ASP3        0.0000 
     22 OD1       -41.6995  -22.9535    1.7460 O.co2     3 ASC3        0.0000 
     23 OD1       -42.4070  -21.6300    1.0330 O.co2     7 ASP3        0.0000 
     24 O         -40.8135  -22.7855    2.3670 O.2       1 ALC1        0.0000 
     25 O         -40.9920  -24.2770    2.4590 O.2       9 ALL1        0.0000 
     26 O         -40.6350  -21.2940    2.2750 O.2       5 ALP1        0.0000 
     27 O         -41.6995  -22.9535    1.7460 O.2       1 ALC1        0.0000 
     28 O         -42.4070  -21.6300    1.0330 O.2       5 ALP1        0.0000 
     29 CA        -33.6830  -31.1515    3.7110 C.3       4 GLC5        0.0000 
     30 CA        -33.0720  -29.2330    3.4730 C.3      12 GLL5        0.0000 
     31 CA        -34.2940  -33.0700    3.9490 C.3       8 GLP5        0.0000 
     32 CA        -33.9470  -29.1500    1.5835 C.3       4 GLC5        0.0000 
     33 CA        -34.8220  -29.0670   -0.3060 C.3       8 GLP5        0.0000 
     34 CA        -29.2930  -28.3465    4.5835 C.3       4 GLC5        0.0000 
     35 CA        -31.1540  -27.8160    4.1840 C.3      12 GLL5        0.0000 
     36 CA        -27.4320  -28.8770    4.9830 C.3       8 GLP5        0.0000 
     37 CA        -29.8875  -26.6795    2.9820 C.3       4 GLC5        0.0000 
     38 CA        -28.6210  -25.5430    1.7800 C.3       8 GLP5        0.0000 
     39 CA        -30.0200  -25.6125    3.4025 C.3       4 GLC5        0.0000 
     40 CA        -31.4190  -25.6820    5.0250 C.3      12 GLL5        0.0000 
     41 CA        -29.1700  -25.1390    4.1675 C.3       4 GLC5        0.0000 
     42 CA        -30.8300  -24.5260    5.5340 C.3      12 GLL5        0.0000 
     43 CA        -27.5100  -25.7520    2.8010 C.3       8 GLP5        0.0000 
     44 CA        -31.5300  -23.8425    7.8440 C.3       4 GLC5        0.0000 
     45 CA        -31.5820  -23.4090    5.9290 C.3      12 GLL5        0.0000 
     46 CA        -31.4780  -24.2760    9.7590 C.3       8 GLP5        0.0000 
     47 CA        -30.5670  -23.2115    8.2340 C.3       4 GLC5        0.0000 
     48 CA        -29.6560  -22.1470    6.7090 C.3      12 GLL5        0.0000 
     49 CA        -28.8170  -23.8040    7.2420 C.3       4 GLC5        0.0000 
     50 CA        -27.9780  -25.4610    7.7750 C.3       8 GLP5        0.0000 
     51 CA        -30.0850  -21.4890    4.9400 C.3       4 GLC5        0.0000 
     52 CA        -30.5140  -20.8310    3.1710 C.3       8 GLP5        0.0000 
     53 CA        -37.9205  -31.7215    4.3520 C.3       4 GLC5        0.0000 
     54 CA        -37.2570  -29.9470    3.3840 C.3      12 GLL5        0.0000 
     55 CA        -38.5840  -33.4960    5.3200 C.3       8 GLP5        0.0000 
     56 CA        -35.7755  -31.5085    3.6665 C.3       4 GLC5        0.0000 
     57 CA        -38.0760  -30.1190    1.3805 C.3       4 GLC5        0.0000 
     58 CA        -38.8950  -30.2910   -0.6230 C.3       8 GLP5        0.0000 
     59 CA        -40.3730  -27.8340    1.0955 C.3       4 GLC5        0.0000 
     60 CA        -41.1080  -26.7130    2.6620 C.3      12 GLL5        0.0000 
     61 CA        -39.6380  -28.9550   -0.4710 C.3       8 GLP5        0.0000 
     62 CA        -40.2340  -29.1375    9.1400 C.3       4 GLC5        0.0000 
     63 CA        -40.4690  -28.2740    7.1710 C.3      12 GLL5        0.0000 
     64 CA        -39.9990  -30.0010   11.1090 C.3       8 GLP5        0.0000 
     65 CA        -33.5072  -24.6632    7.3897 C.3       4 GLC5        0.0000 
     66 CA        -33.7310  -25.2880    9.2250 C.3       8 GLP5        0.0000 
     67 CA        -34.3965  -28.1590    6.0953 C.3       4 GLC5        0.0000 
     68 CA        -33.3890  -26.9770    4.3650 C.3      12 GLL5        0.0000 
     69 CA        -34.7100  -29.2340    7.9210 C.3       8 GLP5        0.0000 
     70 CA        -33.6815  -26.9898    2.5658 C.3       4 GLC5        0.0000 
     71 CA        -34.7770  -27.1910    4.1740 C.3      12 GLL5        0.0000 
     72 CA        -32.3450  -26.1870    1.2180 C.3       8 GLP5        0.0000 
     73 CA        -35.2445  -27.7717    2.0332 C.3       4 GLC5        0.0000 
     74 CA        -35.4710  -27.7510    0.1530 C.3       8 GLP5        0.0000 
     75 CA        -31.5000  -29.1304    5.4499 C.3       4 GLC5        0.0000 
     76 CA        -31.0240  -30.0350    6.9390 C.3       8 GLP5        0.0000 
     77 CA        -32.1605  -27.2064    2.5894 C.3       4 GLC5        0.0000 
     78 CA        -32.3041  -26.1059    3.0229 C.3       4 GLC5        0.0000 
     79 CA        -32.8260  -25.7580    4.8960 C.3      12 GLL5        0.0000 
     80 CA        -31.5466  -25.8630    7.0416 C.3       4 GLC5        0.0000 
     81 CA        -31.6170  -26.6030    8.8360 C.3       8 GLP5        0.0000 
     82 CA        -31.0354  -22.4051    4.4361 C.3       4 GLC5        0.0000 
     83 CA        -39.2484  -28.6917    1.3394 C.3       4 GLC5        0.0000 
     84 CA        -39.4160  -29.1430    3.0800 C.3      12 GLL5        0.0000 
     85 CA        -36.8409  -29.5144    5.3615 C.3       4 GLC5        0.0000 
     86 CA        -37.0640  -29.7910    7.2560 C.3       8 GLP5        0.0000 
     87 CA        -36.3391  -28.3959    1.7676 C.3       4 GLC5        0.0000 
     88 CA        -39.0570  -25.7193    7.7583 C.3       4 GLC5        0.0000 
     89 CA        -40.0870  -26.1720    6.0300 C.3      12 GLL5        0.0000 
     90 CA        -38.2560  -24.7510    9.0740 C.3       8 GLP5        0.0000 
     91 CA        -38.5565  -28.7647    7.1345 C.3       4 GLC5        0.0000 
     92 CA        -41.5093  -30.3545    7.5143 C.3       4 GLC5        0.0000 
     93 CA        -41.7680  -28.3220    6.6560 C.3      12 GLL5        0.0000 
     94 CA        -41.9000  -32.4110    8.1150 C.3       8 GLP5        0.0000 
     95 CA        -41.2883  -26.9311    8.5907 C.3       4 GLC5        0.0000 
     96 CA        -41.6680  -25.8320   10.3470 C.3       8 GLP5        0.0000 
     97 CA        -43.1421  -27.6000    7.4456 C.3       4 GLC5        0.0000 
     98 CA        -44.6080  -27.4040    8.5210 C.3       8 GLP5        0.0000 
@<TRIPOS>BOND
@<TRIPOS>SUBSTRUCTURE
     1 ALC1       13 GROUP        1 X    ALC  0     ROOT ALC X 1
     2 SEC2        4 GROUP        1 X    SEC  0     **** SEC X 2
     3 ASC3       19 GROUP        1 X    ASC  0     **** ASC X 3
     4 GLC5        1 GROUP        1 X    GLC  0     **** GLC X 6
     5 ALP1       15 GROUP        1 Y    ALP  0     ROOT ALP Y 8
     6 SEP2        6 GROUP        1 Y    SEP  0     **** SEP Y 9
     7 ASP3       21 GROUP        1 Y    ASP  0     **** ASP Y 10
     8 GLP5        3 GROUP        1 Y    GLP  0     **** GLP Y 13
     9 ALL1       14 GROUP        1 Z    ALL  0     ROOT ALL Z 15
    10 SEL2        5 GROUP        1 Z    SEL  0     **** SEL Z 16
    11 ASL3       20 GROUP        1 Z    ASL  0     **** ASL Z 17
    12 GLL5        2 GROUP        1 Z    GLL  0     **** GLL Z 20
@<TRIPOS>SET

