#    Name: 3iop_8I1_1_ligand
#    Modification time : Tue Mar 25 17:02:18 2014

@<TRIPOS>MOLECULE
3iop_8I1_1_ligand
   64    68     1     0     0
SMALL
NO_CHARGES


@<TRIPOS>ATOM
      1 C1        -35.0160  -22.1170    5.7780 C.3       1 8I11        0.0000 
      2 N1        -34.4090  -29.3920    3.3120 N.ar      1 8I11        0.0000 
      3 O1        -33.6730  -22.3330    6.2130 O.3       1 8I11        0.0000 
      4 C2        -32.9850  -23.4560    5.8080 C.ar      1 8I11        0.0000 
      5 N2        -30.6070  -26.6870    4.6760 N.ar      1 8I11        0.0000 
      6 O2        -31.0530  -22.2430    6.4380 O.3       1 8I11        0.0000 
      7 C3        -33.5820  -24.6210    5.3010 C.ar      1 8I11        0.0000 
      8 N3        -32.2640  -30.3040    3.0920 N.pl3     1 8I11        0.0000 
      9 O3        -39.7200  -26.6700    3.0140 O.3       1 8I11        0.0000 
     10 C4        -32.8260  -25.7580    4.8960 C.ar      1 8I11        0.0000 
     11 N4        -38.5830  -30.2100    3.2000 N.ar      1 8I11        0.0000 
     12 C5        -33.3890  -26.9770    4.3650 C.ar      1 8I11        0.0000 
     13 N5        -40.9920  -24.2770    2.4590 N.4       1 8I11        0.0000 
     14 C6        -34.7770  -27.1910    4.1740 C.ar      1 8I11        0.0000 
     15 C7        -35.2590  -28.3940    3.6530 C.ar      1 8I11        0.0000 
     16 C8        -33.0720  -29.2330    3.4730 C.ar      1 8I11        0.0000 
     17 C9        -32.5240  -28.0380    4.0020 C.ar      1 8I11        0.0000 
     18 C10       -31.1540  -27.8160    4.1840 C.ar      1 8I11        0.0000 
     19 C11       -31.4190  -25.6820    5.0250 C.ar      1 8I11        0.0000 
     20 C12       -30.8300  -24.5260    5.5340 C.ar      1 8I11        0.0000 
     21 C13       -31.5820  -23.4090    5.9290 C.ar      1 8I11        0.0000 
     22 C14       -29.6560  -22.1470    6.7090 C.3       1 8I11        0.0000 
     23 C15       -36.6980  -28.6630    3.4470 C.ar      1 8I11        0.0000 
     24 C16       -37.6170  -27.6060    3.3140 C.ar      1 8I11        0.0000 
     25 C17       -38.9860  -27.8220    3.1250 C.ar      1 8I11        0.0000 
     26 C18       -39.4160  -29.1430    3.0800 C.ar      1 8I11        0.0000 
     27 C19       -37.2570  -29.9470    3.3840 C.ar      1 8I11        0.0000 
     28 C20       -41.1080  -26.7130    2.6620 C.3       1 8I11        0.0000 
     29 C21       -41.7770  -25.3900    3.0760 C.3       1 8I11        0.0000 
     30 C22       -41.8840  -25.1040    4.5960 C.3       1 8I11        0.0000 
     31 C23       -41.3940  -26.2090    5.5040 C.ar      1 8I11        0.0000 
     32 C24       -40.0870  -26.1720    6.0300 C.ar      1 8I11        0.0000 
     33 C25       -39.6290  -27.2030    6.8550 C.ar      1 8I11        0.0000 
     34 C26       -40.4690  -28.2740    7.1710 C.ar      1 8I11        0.0000 
     35 C27       -41.7680  -28.3220    6.6560 C.ar      1 8I11        0.0000 
     36 C28       -42.2340  -27.2940    5.8270 C.ar      1 8I11        0.0000 
     37 H         -34.6170  -24.6639    5.2144 H         1 8I11        0.0000 
     38 H         -32.7405  -31.1204    2.7657 H         1 8I11        0.0000 
     39 H         -31.2777  -30.1634    3.1779 H         1 8I11        0.0000 
     40 H         -35.4361  -26.4391    4.4271 H         1 8I11        0.0000 
     41 H         -30.5051  -28.6208    3.9034 H         1 8I11        0.0000 
     42 H         -29.7919  -24.4856    5.6264 H         1 8I11        0.0000 
     43 H         -37.2616  -26.6282    3.3584 H         1 8I11        0.0000 
     44 H         -40.4523  -29.3141    2.9443 H         1 8I11        0.0000 
     45 H         -36.5857  -30.7665    3.4890 H         1 8I11        0.0000 
     46 H         -41.6332  -27.5229    3.1732 H         1 8I11        0.0000 
     47 H         -41.2521  -26.8334    1.5860 H         1 8I11        0.0000 
     48 H         -42.7786  -25.3581    2.6500 H         1 8I11        0.0000 
     49 H         -42.9450  -24.8791    4.8275 H         1 8I11        0.0000 
     50 H         -41.3197  -24.1734    4.8091 H         1 8I11        0.0000 
     51 H         -39.4726  -25.3819    5.8031 H         1 8I11        0.0000 
     52 H         -38.6734  -27.1733    7.2296 H         1 8I11        0.0000 
     53 H         -40.1322  -29.0270    7.7822 H         1 8I11        0.0000 
     54 H         -42.3820  -29.1117    6.8854 H         1 8I11        0.0000 
     55 H         -43.1870  -27.3268    5.4523 H         1 8I11        0.0000 
     56 H         -35.0795  -22.0630    4.7815 H         1 8I11        0.0000 
     57 H         -35.6244  -22.8546    6.0709 H         1 8I11        0.0000 
     58 H         -35.3919  -21.2649    6.1423 H         1 8I11        0.0000 
     59 H         -40.0400  -24.2799    2.7650 H         1 8I11        0.0000 
     60 H         -40.9793  -24.3402    1.4611 H         1 8I11        0.0000 
     61 H         -41.3718  -23.3815    2.6912 H         1 8I11        0.0000 
     62 H         -29.1072  -22.2922    5.8858 H         1 8I11        0.0000 
     63 H         -29.4089  -21.2483    7.0713 H         1 8I11        0.0000 
     64 H         -29.3607  -22.8255    7.3816 H         1 8I11        0.0000 
@<TRIPOS>BOND
     1    3    1 1    
     2   56    1 1    
     3   57    1 1    
     4   58    1 1    
     5   15    2 ar   
     6   16    2 ar   
     7    4    3 1    
     8    7    4 ar   
     9   21    4 ar   
    10   18    5 ar   
    11   19    5 ar   
    12   21    6 1    
    13   22    6 1    
    14   10    7 ar   
    15   37    7 1    
    16   16    8 1    
    17   38    8 1    
    18   39    8 1    
    19   25    9 1    
    20   28    9 1    
    21   12   10 ar   
    22   19   10 ar   
    23   26   11 ar   
    24   27   11 ar   
    25   14   12 ar   
    26   17   12 ar   
    27   29   13 1    
    28   59   13 1    
    29   60   13 1    
    30   61   13 1    
    31   15   14 ar   
    32   40   14 1    
    33   23   15 1    
    34   17   16 ar   
    35   18   17 ar   
    36   41   18 1    
    37   20   19 ar   
    38   21   20 ar   
    39   42   20 1    
    40   62   22 1    
    41   63   22 1    
    42   64   22 1    
    43   24   23 ar   
    44   27   23 ar   
    45   25   24 ar   
    46   43   24 1    
    47   26   25 ar   
    48   44   26 1    
    49   45   27 1    
    50   29   28 1    
    51   46   28 1    
    52   47   28 1    
    53   30   29 1    
    54   48   29 1    
    55   31   30 1    
    56   49   30 1    
    57   50   30 1    
    58   32   31 ar   
    59   36   31 ar   
    60   33   32 ar   
    61   51   32 1    
    62   34   33 ar   
    63   52   33 1    
    64   35   34 ar   
    65   53   34 1    
    66   36   35 ar   
    67   54   35 1    
    68   55   36 1    
@<TRIPOS>SUBSTRUCTURE
     1 8I11        1 GROUP   
@<TRIPOS>SET

