#    Name: 4fv2_EK5_1_INTS_M
#    Modification time : Mon Mar 24 20:49:48 2014

@<TRIPOS>MOLECULE
4fv2_EK5_1_INTS_M
   78     0     9     0     0
SMALL
NO_CHARGES


@<TRIPOS>ATOM
      1 N          14.2575    3.8760   18.9730 N.am      2 SEC2        0.0000 
      2 N          15.0970    3.7310   17.9030 N.am      8 SEL2        0.0000 
      3 N          13.4180    4.0210   20.0430 N.am      5 SEP2        0.0000 
      4 CA         12.6215    4.4740   15.5125 C.3       3 GLC5        0.0000 
      5 CA         13.9150    5.6590   16.2420 C.3       9 GLL5        0.0000 
      6 CA         11.3280    3.2890   14.7830 C.3       6 GLP5        0.0000 
      7 CA         13.4300    9.7205   21.1480 C.3       3 GLC5        0.0000 
      8 CA         13.2140    8.6120   19.2680 C.3       9 GLL5        0.0000 
      9 CA         13.6460   10.8290   23.0280 C.3       6 GLP5        0.0000 
     10 CA         12.0785   10.8075   19.5025 C.3       3 GLC5        0.0000 
     11 CA         11.3970    9.1600   20.5920 C.3       9 GLL5        0.0000 
     12 CA         12.7600   12.4550   18.4130 C.3       6 GLP5        0.0000 
     13 CA         10.7365   10.6555   22.0120 C.3       3 GLC5        0.0000 
     14 CA         10.0760   12.1510   23.4320 C.3       6 GLP5        0.0000 
     15 CA         12.5215    9.9945   21.8100 C.3       3 GLC5        0.0000 
     16 CA         12.0470    8.1880   22.2625 C.3       3 GLC5        0.0000 
     17 CA         12.6970    7.2160   23.9330 C.3       6 GLP5        0.0000 
     18 CA         17.8325    2.0830   16.8010 C.3       3 GLC5        0.0000 
     19 CA         17.2460    4.0790   16.9950 C.3       9 GLL5        0.0000 
     20 CA         18.4190    0.0870   16.6070 C.3       6 GLP5        0.0000 
     21 O          17.5240    2.4335   19.0045 O.2       1 ALC1        0.0000 
     22 O          17.8380    3.1890   17.8590 O.2       7 ALL1        0.0000 
     23 O          17.2100    1.6780   20.1500 O.2       4 ALP1        0.0000 
     24 CA         21.0695    3.1780   18.3600 C.3       3 GLC5        0.0000 
     25 CA         19.1590    3.1190   17.5550 C.3       9 GLL5        0.0000 
     26 CA         22.9800    3.2370   19.1650 C.3       6 GLP5        0.0000 
     27 CA         19.4505    1.4640   18.8290 C.3       3 GLC5        0.0000 
     28 CA         19.7420   -0.1910   20.1030 C.3       6 GLP5        0.0000 
     29 CA         21.8070    3.7260   17.5185 C.3       3 GLC5        0.0000 
     30 CA         20.6340    4.2150   15.8720 C.3       9 GLL5        0.0000 
     31 CA         19.9445    3.0155   14.6690 C.3       3 GLC5        0.0000 
     32 CA         19.2550    1.8160   13.4660 C.3       6 GLP5        0.0000 
     33 O          22.1660    2.0160   16.5615 O.2       1 ALC1        0.0000 
     34 O          21.7410    3.4580   16.0270 O.2       7 ALL1        0.0000 
     35 O          22.5910    0.5740   17.0960 O.2       4 ALP1        0.0000 
     36 N          23.8825    2.9995   14.9255 N.am      2 SEC2        0.0000 
     37 N          22.8470    3.9440   15.3910 N.am      8 SEL2        0.0000 
     38 N          24.9180    2.0550   14.4600 N.am      5 SEP2        0.0000 
     39 CA         20.1415    7.1000   17.4555 C.3       3 GLC5        0.0000 
     40 CA         19.6390    7.3310   15.5930 C.3       9 GLL5        0.0000 
     41 CA         20.6440    6.8690   19.3180 C.3       6 GLP5        0.0000 
     42 CA         20.6790    9.6550   11.5500 C.3       3 GLC5        0.0000 
     43 CA         19.9040    8.2850   13.0100 C.3       9 GLL5        0.0000 
     44 CA         21.4540   11.0250   10.0900 C.3       6 GLP5        0.0000 
     45 CA         19.3460    8.2775   17.3150 C.3       3 GLC5        0.0000 
     46 CA         18.9720    8.4670   15.1890 C.3       9 GLL5        0.0000 
     47 CA         19.7200    8.0880   19.4410 C.3       6 GLP5        0.0000 
     48 CA         18.9070   10.7735   16.3985 C.3       3 GLC5        0.0000 
     49 CA         17.9000    9.2610   16.3110 C.3       9 GLL5        0.0000 
     50 CA         19.9140   12.2860   16.4860 C.3       6 GLP5        0.0000 
     51 CA         17.2405   10.9790   17.3245 C.3       3 GLC5        0.0000 
     52 CA         16.5810   12.6970   18.3380 C.3       6 GLP5        0.0000 
     53 CA         18.0805    8.4490   17.8685 C.3       3 GLC5        0.0000 
     54 CA         18.2610    7.6370   19.4260 C.3       6 GLP5        0.0000 
     55 CA         14.7033    6.3285   19.1430 C.3       3 GLC5        0.0000 
     56 CA         14.6710    7.6150   17.6690 C.3       9 GLL5        0.0000 
     57 CA         15.2300    5.5060   20.7910 C.3       6 GLP5        0.0000 
     58 CA         16.4113    7.8665   18.7912 C.3       3 GLC5        0.0000 
     59 CA         13.2965   10.5248   18.6845 C.3       3 GLC5        0.0000 
     60 CA         14.4520    8.5770   18.6440 C.3       9 GLL5        0.0000 
     61 CA         14.5315    7.0503   19.8735 C.3       3 GLC5        0.0000 
     62 CA         13.7840    6.3665   19.6295 C.3       3 GLC5        0.0000 
     63 CA         12.2170    7.7090   18.9510 C.3       9 GLL5        0.0000 
     64 CA         17.9917    5.9810   17.9965 C.3       3 GLC5        0.0000 
     65 CA         16.6022    3.4845   14.8865 C.3       3 GLC5        0.0000 
     66 CA         15.4820    2.6440   13.2060 C.3       6 GLP5        0.0000 
     67 CA         18.8575    1.8070   16.8107 C.3       3 GLC5        0.0000 
     68 CA         19.4330    3.9350   16.4740 C.3       9 GLL5        0.0000 
     69 CA         19.1212    2.7510   15.1984 C.3       3 GLC5        0.0000 
     70 CA         20.3045    5.3700   17.8806 C.3       3 GLC5        0.0000 
     71 CA         21.8672    7.5333   15.1485 C.3       3 GLC5        0.0000 
     72 CA         21.1010    5.3710   15.0940 C.3       9 GLL5        0.0000 
     73 CA         22.9680    9.0640   15.4080 C.3       6 GLP5        0.0000 
     74 CA         19.7869    5.1524   12.9983 C.3       3 GLC5        0.0000 
     75 CA         20.5610    7.1230   13.3880 C.3       9 GLL5        0.0000 
     76 CA         18.9100    3.7420   11.8580 C.3       6 GLP5        0.0000 
     77 CA         19.4738   10.5012   15.5180 C.3       3 GLC5        0.0000 
     78 CA         21.3422    8.5661   14.6665 C.3       3 GLC5        0.0000 
@<TRIPOS>BOND
@<TRIPOS>SUBSTRUCTURE
     1 ALC1       21 GROUP        1 X    ALC  0     ROOT ALC X 1
     2 SEC2        1 GROUP        1 X    SEC  0     **** SEC X 2
     3 GLC5        4 GROUP        1 X    GLC  0     **** GLC X 6
     4 ALP1       23 GROUP        1 Y    ALP  0     ROOT ALP Y 8
     5 SEP2        3 GROUP        1 Y    SEP  0     **** SEP Y 9
     6 GLP5        6 GROUP        1 Y    GLP  0     **** GLP Y 13
     7 ALL1       22 GROUP        1 Z    ALL  0     ROOT ALL Z 15
     8 SEL2        2 GROUP        1 Z    SEL  0     **** SEL Z 16
     9 GLL5        5 GROUP        1 Z    GLL  0     **** GLL Z 20
@<TRIPOS>SET

