#    Name: 4fv2_EK5_1_ligand
#    Modification time : Mon Mar 24 20:49:48 2014

@<TRIPOS>MOLECULE
4fv2_EK5_1_ligand
   49    53     1     0     0
SMALL
NO_CHARGES


@<TRIPOS>ATOM
      1 O1         15.0970    3.7310   17.9030 O.2       1 EK5401      0.0000 
      2 C14        15.7910    4.3180   17.0730 C.2       1 EK5401      0.0000 
      3 N4         15.2830    5.1670   16.1770 N.am      1 EK5401      0.0000 
      4 C15        13.9150    5.6590   16.2420 C.3       1 EK5401      0.0000 
      5 C16        13.6820    6.6870   17.3210 C.ar      1 EK5401      0.0000 
      6 C23        14.6710    7.6150   17.6690 C.ar      1 EK5401      0.0000 
      7 C22        14.4520    8.5770   18.6440 C.ar      1 EK5401      0.0000 
      8 C21        13.2140    8.6120   19.2680 C.ar      1 EK5401      0.0000 
      9 O2         12.7640    9.4970   20.2200 O.3       1 EK5401      0.0000 
     10 C20        11.3970    9.1600   20.5920 C.3       1 EK5401      0.0000 
     11 C19        10.9580    7.9820   19.7310 C.3       1 EK5401      0.0000 
     12 C18        12.2170    7.7090   18.9510 C.ar      1 EK5401      0.0000 
     13 C17        12.4590    6.7450   17.9850 C.ar      1 EK5401      0.0000 
     14 C12        17.2460    4.0790   16.9950 C.2       1 EK5401      0.0000 
     15 C11        18.1990    4.5710   16.1390 C.2       1 EK5401      0.0000 
     16 N3         17.8380    3.1890   17.8590 N.pl3     1 EK5401      0.0000 
     17 C13        19.1590    3.1190   17.5550 C.2       1 EK5401      0.0000 
     18 C10        19.4330    3.9350   16.4740 C.2       1 EK5401      0.0000 
     19 C9         20.6340    4.2150   15.8720 C.2       1 EK5401      0.0000 
     20 N2         21.7410    3.4580   16.0270 N.pl3     1 EK5401      0.0000 
     21 N1         22.8470    3.9440   15.3910 N.2       1 EK5401      0.0000 
     22 C8         22.4590    5.0950   14.8550 C.2       1 EK5401      0.0000 
     23 C7         21.1010    5.3710   15.0940 C.2       1 EK5401      0.0000 
     24 C3         20.4320    6.6340   14.6840 C.ar      1 EK5401      0.0000 
     25 C2         19.6390    7.3310   15.5930 C.ar      1 EK5401      0.0000 
     26 C4         20.5610    7.1230   13.3880 C.ar      1 EK5401      0.0000 
     27 C5         19.9040    8.2850   13.0100 C.ar      1 EK5401      0.0000 
     28 C6         19.0950    8.9660   13.9110 C.ar      1 EK5401      0.0000 
     29 C1         18.9720    8.4670   15.1890 C.ar      1 EK5401      0.0000 
     30 CL         17.9000    9.2610   16.3110 Cl        1 EK5401      0.0000 
     31 H          15.8537    5.5242   15.3732 H         1 EK5401      0.0000 
     32 H          13.2090    4.8149   16.4086 H         1 EK5401      0.0000 
     33 H          13.6192    6.1063   15.2667 H         1 EK5401      0.0000 
     34 H          15.5874    7.5776   17.1829 H         1 EK5401      0.0000 
     35 H          15.1818    9.2407   18.8951 H         1 EK5401      0.0000 
     36 H          10.7236    9.9905   20.4083 H         1 EK5401      0.0000 
     37 H          11.3344    8.8666   21.6345 H         1 EK5401      0.0000 
     38 H          10.1830    8.2833   19.0850 H         1 EK5401      0.0000 
     39 H          10.7210    7.1610   20.3463 H         1 EK5401      0.0000 
     40 H          11.7217    6.0565   17.7514 H         1 EK5401      0.0000 
     41 H          18.0936    5.2035   15.4549 H         1 EK5401      0.0000 
     42 H          17.3874    2.7064   18.5527 H         1 EK5401      0.0000 
     43 H          19.8188    2.5840   18.0160 H         1 EK5401      0.0000 
     44 H          21.7576    2.6117   16.5608 H         1 EK5401      0.0000 
     45 H          23.0269    5.7160   14.3400 H         1 EK5401      0.0000 
     46 H          19.5561    6.9932   16.5608 H         1 EK5401      0.0000 
     47 H          21.1476    6.6186   12.7069 H         1 EK5401      0.0000 
     48 H          20.0169    8.6482   12.0490 H         1 EK5401      0.0000 
     49 H          18.6060    9.8149   13.6276 H         1 EK5401      0.0000 
@<TRIPOS>BOND
     1    2    1 2    
     2    3    2 am   
     3   14    2 1    
     4    4    3 1    
     5   31    3 1    
     6    5    4 1    
     7   32    4 1    
     8   33    4 1    
     9    6    5 ar   
    10   13    5 ar   
    11    7    6 ar   
    12   34    6 1    
    13    8    7 ar   
    14   35    7 1    
    15    9    8 1    
    16   12    8 ar   
    17   10    9 1    
    18   11   10 1    
    19   36   10 1    
    20   37   10 1    
    21   12   11 1    
    22   38   11 1    
    23   39   11 1    
    24   13   12 ar   
    25   40   13 1    
    26   15   14 2    
    27   16   14 1    
    28   18   15 1    
    29   41   15 1    
    30   17   16 1    
    31   42   16 1    
    32   18   17 2    
    33   43   17 1    
    34   19   18 1    
    35   20   19 1    
    36   23   19 2    
    37   21   20 1    
    38   44   20 1    
    39   22   21 2    
    40   23   22 1    
    41   45   22 1    
    42   24   23 1    
    43   25   24 ar   
    44   26   24 ar   
    45   29   25 ar   
    46   46   25 1    
    47   27   26 ar   
    48   47   26 1    
    49   28   27 ar   
    50   48   27 1    
    51   29   28 ar   
    52   49   28 1    
    53   30   29 1    
@<TRIPOS>SUBSTRUCTURE
     1 EK5401      1 GROUP   
@<TRIPOS>SET

