#    Name: 2Q58_1_CAVITY_N1_6.mol2
#    Modification time : Tue Mar 11 06:55:55 2014

@<TRIPOS>MOLECULE
2Q58_1_CAVITY_N1_6.mol2
   80     0     7     0     0
SMALL
NO_CHARGES


@<TRIPOS>ATOM
      1 CA          2.6002   20.0643   50.6610 C.3       6 GLY6        0.0000 
      2 NZ          2.0372   19.8189   52.0295 N.2       4 LYS4        0.0000 
      3 O           2.3516   18.6294   50.3015 O.2       2 ALA2        0.0000 
      4 OD1         1.7886   18.3840   51.6700 O.3       3 ASP3        0.0000 
      5 NZ          1.2257   18.1386   53.0385 N.2       4 LYS4        0.0000 
      6 N           1.5400   16.9491   51.3105 N.2       2 ALA2        0.0000 
      7 O           0.9771   16.7037   52.6790 O.2       2 ALA2        0.0000 
      8 O           0.7285   15.2688   52.3195 O.2       2 ALA2        0.0000 
      9 O           0.5457   11.2095   49.8723 O.2       2 ALA2        0.0000 
     10 O          -0.0173   10.9641   51.2409 O.2       2 ALA2        0.0000 
     11 N           4.2167   21.1374   51.5184 N.2       2 ALA2        0.0000 
     12 NZ          3.6538   20.8921   52.8869 N.2       4 LYS4        0.0000 
     13 OG          3.9681   19.7025   51.1588 O.2       1 SER1        0.0000 
     14 NZ          3.4052   19.4572   52.5274 N.2       4 LYS4        0.0000 
     15 CA          2.8422   19.2118   53.8959 C.3       6 GLY6        0.0000 
     16 O           3.7195   18.2676   50.7993 O.2       2 ALA2        0.0000 
     17 O           3.1566   18.0223   52.1678 O.2       2 ALA2        0.0000 
     18 CA          2.5936   17.7769   53.5364 C.3       6 GLY6        0.0000 
     19 O           2.9080   16.5874   51.8083 O.2       2 ALA2        0.0000 
     20 O           2.3451   16.3420   53.1768 O.2       2 ALA2        0.0000 
     21 O           2.6594   15.1525   51.4488 O.2       2 ALA2        0.0000 
     22 O           2.0965   14.9071   52.8173 O.2       2 ALA2        0.0000 
     23 O           1.8479   13.4722   52.4578 O.2       2 ALA2        0.0000 
     24 O           1.5993   12.0373   52.0982 O.2       2 ALA2        0.0000 
     25 O           1.0363   11.7919   53.4668 O.2       2 ALA2        0.0000 
     26 O           0.4734   11.5465   54.8353 O.2       2 ALA2        0.0000 
     27 O          -0.0895   11.3012   56.2038 O.2       2 ALA2        0.0000 
     28 CA          2.4766   11.0931   49.0016 C.3       6 GLY6        0.0000 
     29 O           1.9136   10.8478   50.3702 O.2       2 ALA2        0.0000 
     30 O           1.3507   10.6024   51.7387 O.2       2 ALA2        0.0000 
     31 DU          0.7877   10.3570   53.1072 H         7 CUB7        0.0000 
     32 DU          0.2248   10.1116   54.4758 H         7 CUB7        0.0000 
     33 N           5.0217   20.5303   53.3847 N.2       2 ALA2        0.0000 
     34 OG          5.3361   19.3408   51.6567 O.2       1 SER1        0.0000 
     35 OG          4.7731   19.0954   53.0252 O.2       1 SER1        0.0000 
     36 O           5.0875   17.9059   51.2971 O.2       2 ALA2        0.0000 
     37 OG          4.5245   17.6605   52.6657 O.2       1 SER1        0.0000 
     38 O           4.8389   16.4710   50.9376 O.2       2 ALA2        0.0000 
     39 OG          4.2759   16.2256   52.3061 O.2       1 SER1        0.0000 
     40 CA          3.7130   15.9803   53.6747 C.3       6 GLY6        0.0000 
     41 O           4.5903   15.0361   50.5781 O.2       2 ALA2        0.0000 
     42 DU          4.0274   14.7907   51.9466 H         7 CUB7        0.0000 
     43 O           3.4644   14.5454   53.3151 O.2       2 ALA2        0.0000 
     44 CA          4.3417   13.6012   50.2185 C.3       6 GLY6        0.0000 
     45 O           3.7788   13.3558   51.5871 O.2       2 ALA2        0.0000 
     46 O           3.2158   13.1105   52.9556 O.2       2 ALA2        0.0000 
     47 O           2.6529   12.8651   54.3241 O.2       2 ALA2        0.0000 
     48 O           1.5270   12.3743   57.0612 O.2       2 ALA2        0.0000 
     49 O           3.5302   11.9209   51.2275 O.2       2 ALA2        0.0000 
     50 DU          2.9672   11.6756   52.5961 H         7 CUB7        0.0000 
     51 O           2.4043   11.4302   53.9646 O.2       2 ALA2        0.0000 
     52 O           1.8414   11.1848   55.3332 O.2       2 ALA2        0.0000 
     53 O           1.2784   10.9394   56.7017 O.2       2 ALA2        0.0000 
     54 DU          3.2816   10.4860   50.8680 H         7 CUB7        0.0000 
     55 DU          2.7186   10.2407   52.2365 H         7 CUB7        0.0000 
     56 OG          6.4554   17.5442   51.7950 O.2       1 SER1        0.0000 
     57 CA          6.7698   16.3546   50.0669 C.3       6 GLY6        0.0000 
     58 OG          6.2068   16.1093   51.4354 O.2       1 SER1        0.0000 
     59 OG          5.6439   15.8639   52.8040 O.2       1 SER1        0.0000 
     60 OG          5.0810   15.6185   54.1725 O.2       1 SER1        0.0000 
     61 CZ          6.5212   14.9197   49.7074 C.ar      5 PHE5        0.0000 
     62 CZ          5.9582   14.6744   51.0759 C.ar      5 PHE5        0.0000 
     63 O           5.3953   14.4290   52.4445 O.2       2 ALA2        0.0000 
     64 O           4.8324   14.1836   53.8130 O.2       2 ALA2        0.0000 
     65 CA          4.2694   13.9382   55.1815 C.3       6 GLY6        0.0000 
     66 CA          3.1436   13.4475   57.9186 C.3       6 GLY6        0.0000 
     67 CZ          5.1467   12.9941   52.0849 C.ar      5 PHE5        0.0000 
     68 DU          4.5838   12.7487   53.4535 H         7 CUB7        0.0000 
     69 O           4.0208   12.5033   54.8220 O.2       2 ALA2        0.0000 
     70 O           3.4579   12.2580   56.1905 O.2       2 ALA2        0.0000 
     71 CZ          4.8981   11.5592   51.7254 C.ar      5 PHE5        0.0000 
     72 CZ          4.3352   11.3138   53.0939 C.ar      5 PHE5        0.0000 
     73 DU          3.7722   11.0684   54.4625 H         7 CUB7        0.0000 
     74 DU          3.2093   10.8231   55.8310 H         7 CUB7        0.0000 
     75 CA          8.1377   15.9929   50.5648 C.3       6 GLY6        0.0000 
     76 O           7.5748   15.7475   51.9333 O.2       2 ALA2        0.0000 
     77 O           7.3262   14.3126   51.5738 O.2       2 ALA2        0.0000 
     78 CA          5.6374   13.5765   55.6794 C.3       6 GLY6        0.0000 
     79 O           5.9517   12.3870   53.9513 O.2       2 ALA2        0.0000 
     80 O           5.3888   12.1416   55.3198 O.2       2 ALA2        0.0000 
@<TRIPOS>BOND
@<TRIPOS>SUBSTRUCTURE
     1 SER1       13 GROUP   
     2 ALA2        3 GROUP   
     3 ASP3        4 GROUP   
     4 LYS4        2 GROUP   
     5 PHE5       61 GROUP   
     6 GLY6        1 GROUP   
     7 CUB7       31 GROUP   
@<TRIPOS>SET

