#    Name: 2q58_ZOL_1_INTS_M
#    Modification time : Mon Mar 24 20:45:41 2014

@<TRIPOS>MOLECULE
2q58_ZOL_1_INTS_M
   53     0    12     0     0
SMALL
NO_CHARGES


@<TRIPOS>ATOM
      1 NZ         -0.6665   16.6560   54.1920 N.4       2 LYC4        0.0000 
      2 NZ         -0.8300   17.1600   53.0860 N.4      10 LYL4        0.0000 
      3 NZ          0.1500   15.4390   56.2050 N.4       6 LYP4        0.0000 
      4 Zn         -1.1155   18.1175   53.1125 Zn        3 ZIC7        0.0000 
      5 Zn         -0.8300   17.1600   53.0860 Zn       11 ZIL7        0.0000 
      6 Zn         -1.4010   19.0750   53.1390 Zn        7 ZIP7        0.0000 
      7 N          -0.6665   16.6560   54.1920 N.am      1 SEC2        0.0000 
      8 N          -0.8300   17.1600   53.0860 N.am      9 SEL2        0.0000 
      9 N          -0.5030   16.1520   55.2980 N.am      5 SEP2        0.0000 
     10 Zn         -0.9115   16.3045   50.1555 Zn        3 ZIC7        0.0000 
     11 Zn         -0.5200   15.8120   50.9330 Zn       11 ZIL7        0.0000 
     12 Zn         -1.3030   16.7970   49.3780 Zn        7 ZIP7        0.0000 
     13 N           0.0685   15.6755   49.6975 N.am      1 SEC2        0.0000 
     14 N          -0.5200   15.8120   50.9330 N.am      9 SEL2        0.0000 
     15 N           0.6570   15.5390   48.4620 N.am      5 SEP2        0.0000 
     16 NZ          1.0300   14.9385   54.3450 N.4       2 LYC4        0.0000 
     17 NZ          1.0740   15.3760   52.9000 N.4      10 LYL4        0.0000 
     18 N           0.2855   15.7640   54.0990 N.am      1 SEC2        0.0000 
     19 N           1.0740   15.3760   52.9000 N.am      9 SEL2        0.0000 
     20 N           1.0300   14.9385   54.3450 N.am      1 SEC2        0.0000 
     21 N           0.9860   14.5010   55.7900 N.am      5 SEP2        0.0000 
     22 NZ          2.0070   20.7540   48.9490 N.4       2 LYC4        0.0000 
     23 NZ          1.7030   20.0280   50.2220 N.4      10 LYL4        0.0000 
     24 NZ          2.3110   21.4800   47.6760 N.4       6 LYP4        0.0000 
     25 N           2.0070   20.7540   48.9490 N.am      1 SEC2        0.0000 
     26 N           1.7030   20.0280   50.2220 N.am      9 SEL2        0.0000 
     27 N           2.3110   21.4800   47.6760 N.am      5 SEP2        0.0000 
     28 Zn         -0.6945   17.5860   49.3755 Zn        3 ZIC7        0.0000 
     29 Zn         -0.0860   18.3750   49.3730 Zn       11 ZIL7        0.0000 
     30 N           0.2855   16.9570   48.9175 N.am      1 SEC2        0.0000 
     31 N          -0.0860   18.3750   49.3730 N.am      9 SEL2        0.0000 
     32 Zn         -0.9365   19.4150   52.3425 Zn        3 ZIC7        0.0000 
     33 Zn         -0.4720   19.7550   51.5460 Zn       11 ZIL7        0.0000 
     34 Zn         -0.4035   20.7555   51.8130 Zn        3 ZIC7        0.0000 
     35 Zn         -0.3350   21.7560   52.0800 Zn        7 ZIP7        0.0000 
     36 N           3.3430   17.2605   49.5745 N.am      1 SEC2        0.0000 
     37 N           2.2780   17.0460   50.6520 N.am      9 SEL2        0.0000 
     38 N           4.4080   17.4750   48.4970 N.am      5 SEP2        0.0000 
     39 CA          2.7880   18.1485   54.4370 C.3       4 GLC5        0.0000 
     40 CA          2.2300   18.3050   52.7600 C.3      12 GLL5        0.0000 
     41 CA          3.3460   17.9920   56.1140 C.3       8 GLP5        0.0000 
     42 N           5.8765   19.5790   50.2885 N.am      1 SEC2        0.0000 
     43 N           5.1330   19.8090   51.5060 N.am      9 SEL2        0.0000 
     44 N           6.6200   19.3490   49.0710 N.am      5 SEP2        0.0000 
     45 CA          4.7550   23.0075   52.9010 C.3       4 GLC5        0.0000 
     46 CA          4.7400   20.8590   52.4060 C.3      12 GLL5        0.0000 
     47 CA          4.7700   25.1560   53.3960 C.3       8 GLP5        0.0000 
     48 CA          5.2545   21.7955   50.5550 C.3       4 GLC5        0.0000 
     49 CA          5.7690   22.7320   48.7040 C.3       8 GLP5        0.0000 
     50 CA          3.4705   19.1745   54.5105 C.3       4 GLC5        0.0000 
     51 CA          3.5950   20.3570   52.9070 C.3      12 GLL5        0.0000 
     52 CA          2.3050   20.6985   54.6520 C.3       4 GLC5        0.0000 
     53 CA          1.0150   21.0400   56.3970 C.3       8 GLP5        0.0000 
@<TRIPOS>BOND
@<TRIPOS>SUBSTRUCTURE
     1 SEC2        7 GROUP        1 X    SEC  0     ROOT SEC X 2
     2 LYC4        1 GROUP        1 X    LYC  0     **** LYC X 4
     3 ZIC7        4 GROUP        1 X    ZIC  0     **** ZIC X 5
     4 GLC5       39 GROUP        1 X    GLC  0     **** GLC X 6
     5 SEP2        9 GROUP        1 Y    SEP  0     ROOT SEP Y 9
     6 LYP4        3 GROUP        1 Y    LYP  0     **** LYP Y 11
     7 ZIP7        6 GROUP        1 Y    ZIP  0     **** ZIP Y 12
     8 GLP5       41 GROUP        1 Y    GLP  0     **** GLP Y 13
     9 SEL2        8 GROUP        1 Z    SEL  0     ROOT SEL Z 16
    10 LYL4        2 GROUP        1 Z    LYL  0     **** LYL Z 18
    11 ZIL7        5 GROUP        1 Z    ZIL  0     **** ZIL Z 19
    12 GLL5       40 GROUP        1 Z    GLL  0     **** GLL Z 20
@<TRIPOS>SET

