#    Name: 2q58_ZOL_1_ligand
#    Modification time : Mon Mar 24 20:45:41 2014

@<TRIPOS>MOLECULE
2q58_ZOL_1_ligand
   22    22     1     0     0
SMALL
NO_CHARGES


@<TRIPOS>ATOM
      1 O17        -0.8300   17.1600   53.0860 O.co2     1 ZOL1        0.0000 
      2 P14         0.1800   16.4930   52.2040 P.3       1 ZOL1        0.0000 
      3 O16        -0.5200   15.8120   50.9330 O.co2     1 ZOL1        0.0000 
      4 O15         1.0740   15.3760   52.9000 O.co2     1 ZOL1        0.0000 
      5 C8          1.3910   17.7080   51.5720 C.3       1 ZOL1        0.0000 
      6 P9          0.5190   19.0450   50.6880 P.3       1 ZOL1        0.0000 
      7 O10         1.7030   20.0280   50.2220 O.co2     1 ZOL1        0.0000 
      8 O11        -0.0860   18.3750   49.3730 O.co2     1 ZOL1        0.0000 
      9 O12        -0.4720   19.7550   51.5460 O.co2     1 ZOL1        0.0000 
     10 O13         2.2780   17.0460   50.6520 O.3       1 ZOL1        0.0000 
     11 C7          2.2300   18.3050   52.7600 C.3       1 ZOL1        0.0000 
     12 N15         3.3720   19.1510   52.4090 N.pl3     1 ZOL1        0.0000 
     13 C16         4.3110   18.8650   51.5560 C.2       1 ZOL1        0.0000 
     14 N17         5.1330   19.8090   51.5060 N.2       1 ZOL1        0.0000 
     15 C18         4.7400   20.8590   52.4060 C.2       1 ZOL1        0.0000 
     16 C19         3.5950   20.3570   52.9070 C.2       1 ZOL1        0.0000 
     17 H           2.5588   17.4363   53.3844 H         1 ZOL1        0.0000 
     18 H           1.5089   18.8636   53.4086 H         1 ZOL1        0.0000 
     19 H           4.3466   18.0124   51.0326 H         1 ZOL1        0.0000 
     20 H           5.1857   21.6306   52.5542 H         1 ZOL1        0.0000 
     21 H           3.0189   20.8274   53.5476 H         1 ZOL1        0.0000 
     22 H           1.6768   16.5696   50.0104 H         1 ZOL1        0.0000 
@<TRIPOS>BOND
     1    2    1 ar   
     2    3    2 ar   
     3    4    2 ar   
     4    5    2 1    
     5    6    5 1    
     6   10    5 1    
     7   11    5 1    
     8    7    6 ar   
     9    8    6 ar   
    10    9    6 ar   
    11   22   10 1    
    12   12   11 1    
    13   17   11 1    
    14   18   11 1    
    15   13   12 1    
    16   16   12 1    
    17   14   13 2    
    18   19   13 1    
    19   15   14 1    
    20   16   15 2    
    21   20   15 1    
    22   21   16 1    
@<TRIPOS>SUBSTRUCTURE
     1 ZOL1        1 GROUP   
@<TRIPOS>SET

