#    Name: 3cr3_ADP_2_INTS_M
#    Modification time : Mon Mar 24 22:13:28 2014

@<TRIPOS>MOLECULE
3cr3_ADP_2_INTS_M
   69     0    12     0     0
SMALL
NO_CHARGES


@<TRIPOS>ATOM
      1 Zn         99.4570   20.9285   58.6785 Zn        3 ZIC7        0.0000 
      2 Zn         99.1790   21.1870   57.8140 Zn       11 ZIL7        0.0000 
      3 Zn         99.7350   20.6700   59.5430 Zn        7 ZIP7        0.0000 
      4 Zn         99.8290   21.0040   57.0065 Zn        3 ZIC7        0.0000 
      5 Zn        100.4790   20.8210   56.1990 Zn        7 ZIP7        0.0000 
      6 N          97.1865   23.3920   55.9250 N.am      2 SEC2        0.0000 
      7 N          97.4530   22.0450   56.1940 N.am     10 SEL2        0.0000 
      8 N          96.9200   24.7390   55.6560 N.am      6 SEP2        0.0000 
      9 Zn         99.4090   21.5820   59.9405 Zn        3 ZIC7        0.0000 
     10 Zn         99.0830   22.4940   60.3380 Zn       11 ZIL7        0.0000 
     11 N          99.5710   25.4245   60.7970 N.am      2 SEC2        0.0000 
     12 N          99.5880   24.8280   59.3390 N.am     10 SEL2        0.0000 
     13 N          99.5540   26.0210   62.2550 N.am      6 SEP2        0.0000 
     14 N         100.6740   24.6095   58.5785 N.am      2 SEC2        0.0000 
     15 N         101.7600   24.3910   57.8180 N.am      6 SEP2        0.0000 
     16 N          99.2550   26.1925   59.1250 N.am      2 SEC2        0.0000 
     17 N          98.9220   27.5570   58.9110 N.am      6 SEP2        0.0000 
     18 N          97.4200   24.0160   56.9190 N.am      2 SEC2        0.0000 
     19 N          97.9200   23.2930   58.1820 N.am     10 SEL2        0.0000 
     20 CA         95.8405   22.7300   63.9200 C.3       4 GLC5        0.0000 
     21 CA         94.3240   23.5340   62.5170 C.3      12 GLL5        0.0000 
     22 CA         97.3570   21.9260   65.3230 C.3       8 GLP5        0.0000 
     23 N          95.4120   24.2500   64.6890 N.am      2 SEC2        0.0000 
     24 N          94.8470   23.3140   63.8380 N.am     10 SEL2        0.0000 
     25 N          95.9770   25.1860   65.5400 N.am      6 SEP2        0.0000 
     26 O          94.0055   22.8230   64.6410 O.2       1 ALC1        0.0000 
     27 O          94.8470   23.3140   63.8380 O.2       9 ALL1        0.0000 
     28 O          93.1640   22.3320   65.4440 O.2       5 ALP1        0.0000 
     29 CA         91.2935   24.6480   63.6305 C.3       4 GLC5        0.0000 
     30 CA         93.0480   24.3740   62.4890 C.3      12 GLL5        0.0000 
     31 CA         89.5390   24.9220   64.7720 C.3       8 GLP5        0.0000 
     32 N          91.7630   26.1585   64.2330 N.am      2 SEC2        0.0000 
     33 N          92.9120   25.2480   63.6150 N.am     10 SEL2        0.0000 
     34 N          90.6140   27.0690   64.8510 N.am      6 SEP2        0.0000 
     35 O          93.0380   23.7900   64.5295 O.2       1 ALC1        0.0000 
     36 O          92.9120   25.2480   63.6150 O.2       9 ALL1        0.0000 
     37 O          92.8110   24.8300   64.8165 O.2       1 ALC1        0.0000 
     38 O          92.7100   24.4120   66.0180 O.2       5 ALP1        0.0000 
     39 CA         92.7570   26.5080   59.7345 C.3       4 GLC5        0.0000 
     40 CA         93.1970   25.2170   61.2310 C.3      12 GLL5        0.0000 
     41 CA         92.3170   27.7990   58.2380 C.3       8 GLP5        0.0000 
     42 CA         88.1855   26.1415   57.0975 C.3       4 GLC5        0.0000 
     43 CA         89.0440   25.0790   58.4530 C.3      12 GLL5        0.0000 
     44 CA         87.3270   27.2040   55.7420 C.3       8 GLP5        0.0000 
     45 CA         87.1435   25.4580   59.5310 C.3       4 GLC5        0.0000 
     46 CA         85.2430   25.8370   60.6090 C.3       8 GLP5        0.0000 
     47 CA         88.0485   23.3800   59.1820 C.3       4 GLC5        0.0000 
     48 CA         87.0530   21.6810   59.9110 C.3       8 GLP5        0.0000 
     49 O          87.1585   24.9040   56.8700 O.2       1 ALC1        0.0000 
     50 O          88.3970   24.4510   57.4420 O.2       9 ALL1        0.0000 
     51 O          85.9200   25.3570   56.2980 O.2       5 ALP1        0.0000 
     52 CA         90.7305   27.2885   59.1665 C.3       4 GLC5        0.0000 
     53 CA         89.1440   26.7780   60.0950 C.3      12 GLL5        0.0000 
     54 CA         88.9915   28.8930   60.1125 C.3       4 GLC5        0.0000 
     55 CA         88.8390   31.0080   60.1300 C.3       8 GLP5        0.0000 
     56 CA         87.1935   26.3075   60.3520 C.3       4 GLC5        0.0000 
     57 CA         89.0385   25.9990   61.7430 C.3       4 GLC5        0.0000 
     58 CA         88.9330   25.2200   63.3910 C.3       8 GLP5        0.0000 
     59 CA         87.8660   28.0255   61.1610 C.3       4 GLC5        0.0000 
     60 CA         86.5880   29.2730   62.2270 C.3       8 GLP5        0.0000 
     61 CA         94.7329   25.3114   63.6486 C.3       4 GLC5        0.0000 
     62 CA         95.5300   26.4770   65.0120 C.3       8 GLP5        0.0000 
     63 CA         89.9965   25.3178   56.9117 C.3       4 GLC5        0.0000 
     64 CA         90.3840   24.6340   58.9020 C.3      12 GLL5        0.0000 
     65 CA         90.2790   25.7790   55.1460 C.3       8 GLP5        0.0000 
     66 CA         91.3402   26.4589   58.7901 C.3       4 GLC5        0.0000 
     67 CA         89.4802   24.5279   60.9761 C.3       4 GLC5        0.0000 
     68 CA         91.0130   25.3810   60.0070 C.3      12 GLL5        0.0000 
     69 CA         88.5970   23.9370   62.6100 C.3       8 GLP5        0.0000 
@<TRIPOS>BOND
@<TRIPOS>SUBSTRUCTURE
     1 ALC1       26 GROUP        1 X    ALC  0     ROOT ALC X 1
     2 SEC2        6 GROUP        1 X    SEC  0     **** SEC X 2
     3 ZIC7        1 GROUP        1 X    ZIC  0     **** ZIC X 5
     4 GLC5       20 GROUP        1 X    GLC  0     **** GLC X 6
     5 ALP1       28 GROUP        1 Y    ALP  0     ROOT ALP Y 8
     6 SEP2        8 GROUP        1 Y    SEP  0     **** SEP Y 9
     7 ZIP7        3 GROUP        1 Y    ZIP  0     **** ZIP Y 12
     8 GLP5       22 GROUP        1 Y    GLP  0     **** GLP Y 13
     9 ALL1       27 GROUP        1 Z    ALL  0     ROOT ALL Z 15
    10 SEL2        7 GROUP        1 Z    SEL  0     **** SEL Z 16
    11 ZIL7        2 GROUP        1 Z    ZIL  0     **** ZIL Z 19
    12 GLL5       21 GROUP        1 Z    GLL  0     **** GLL Z 20
@<TRIPOS>SET

