#    Name: 3cr3_ADP_2_ligand
#    Modification time : Mon Mar 24 22:13:28 2014

@<TRIPOS>MOLECULE
3cr3_ADP_2_ligand
   39    41     1     0     0
SMALL
NO_CHARGES


@<TRIPOS>ATOM
      1 PB         97.7850   21.7780   57.6280 P.3       1 ADP1211     0.0000 
      2 O1B        99.1790   21.1870   57.8140 O.co2     1 ADP1211     0.0000 
      3 O2B        97.4530   22.0450   56.1940 O.co2     1 ADP1211     0.0000 
      4 O3B        96.6820   21.1310   58.4550 O.co2     1 ADP1211     0.0000 
      5 PA         98.6020   23.7190   59.5990 P.3       1 ADP1211     0.0000 
      6 O1A        99.0830   22.4940   60.3380 O.co2     1 ADP1211     0.0000 
      7 O2A        99.5880   24.8280   59.3390 O.co2     1 ADP1211     0.0000 
      8 O3A        97.9200   23.2930   58.1820 O.3       1 ADP1211     0.0000 
      9 O5'        97.3530   24.2850   60.4280 O.3       1 ADP1211     0.0000 
     10 C5'        96.3260   23.4130   60.9150 C.3       1 ADP1211     0.0000 
     11 C4'        95.3230   24.3010   61.6460 C.3       1 ADP1211     0.0000 
     12 O4'        94.5320   25.0250   60.7000 O.3       1 ADP1211     0.0000 
     13 C3'        94.3240   23.5340   62.5170 C.3       1 ADP1211     0.0000 
     14 O3'        94.8470   23.3140   63.8380 O.3       1 ADP1211     0.0000 
     15 C2'        93.0480   24.3740   62.4890 C.3       1 ADP1211     0.0000 
     16 O2'        92.9120   25.2480   63.6150 O.3       1 ADP1211     0.0000 
     17 C1'        93.1970   25.2170   61.2310 C.3       1 ADP1211     0.0000 
     18 N9         92.1910   24.7980   60.2200 N.pl3     1 ADP1211     0.0000 
     19 C8         92.3190   23.7800   59.3520 C.2       1 ADP1211     0.0000 
     20 N7         91.2400   23.6690   58.5480 N.2       1 ADP1211     0.0000 
     21 C5         90.3840   24.6340   58.9020 C.ar      1 ADP1211     0.0000 
     22 C6         89.0440   25.0790   58.4530 C.ar      1 ADP1211     0.0000 
     23 N6         88.3970   24.4510   57.4420 N.pl3     1 ADP1211     0.0000 
     24 N1         88.5090   26.1410   59.0880 N.ar      1 ADP1211     0.0000 
     25 C2         89.1440   26.7780   60.0950 C.ar      1 ADP1211     0.0000 
     26 N3         90.3600   26.4300   60.5530 N.ar      1 ADP1211     0.0000 
     27 C4         91.0130   25.3810   60.0070 C.ar      1 ADP1211     0.0000 
     28 H          96.7105   22.6875   61.6191 H         1 ADP1211     0.0000 
     29 H          95.8073   22.9090   60.1108 H         1 ADP1211     0.0000 
     30 H          95.8577   24.9917   62.2836 H         1 ADP1211     0.0000 
     31 H          94.1118   22.6037   62.0010 H         1 ADP1211     0.0000 
     32 H          92.2165   23.7284   62.3491 H         1 ADP1211     0.0000 
     33 H          93.0396   26.2462   61.4939 H         1 ADP1211     0.0000 
     34 H          93.1054   23.1836   59.3052 H         1 ADP1211     0.0000 
     35 H          87.8020   25.0233   56.8777 H         1 ADP1211     0.0000 
     36 H          88.5717   23.4707   57.3495 H         1 ADP1211     0.0000 
     37 H          88.6497   27.6073   60.5539 H         1 ADP1211     0.0000 
     38 H          94.3215   22.5438   64.1994 H         1 ADP1211     0.0000 
     39 H          92.8874   24.6428   64.4107 H         1 ADP1211     0.0000 
@<TRIPOS>BOND
     1    2    1 ar   
     2    3    1 ar   
     3    4    1 ar   
     4    8    1 1    
     5    6    5 ar   
     6    7    5 ar   
     7    8    5 1    
     8    9    5 1    
     9   10    9 1    
    10   11   10 1    
    11   28   10 1    
    12   29   10 1    
    13   12   11 1    
    14   13   11 1    
    15   30   11 1    
    16   17   12 1    
    17   14   13 1    
    18   15   13 1    
    19   31   13 1    
    20   38   14 1    
    21   16   15 1    
    22   17   15 1    
    23   32   15 1    
    24   39   16 1    
    25   18   17 1    
    26   33   17 1    
    27   19   18 1    
    28   27   18 1    
    29   20   19 2    
    30   34   19 1    
    31   21   20 1    
    32   22   21 ar   
    33   27   21 ar   
    34   23   22 1    
    35   24   22 ar   
    36   35   23 1    
    37   36   23 1    
    38   25   24 ar   
    39   26   25 ar   
    40   37   25 1    
    41   27   26 ar   
@<TRIPOS>SUBSTRUCTURE
     1 ADP1211     1 GROUP   
@<TRIPOS>SET

