#    Name: 3gyq_SAM_1_INTS_M
#    Modification time : Tue Mar 25 13:17:05 2014

@<TRIPOS>MOLECULE
3gyq_SAM_1_INTS_M
   72     0    12     0     0
SMALL
NO_CHARGES


@<TRIPOS>ATOM
      1 NZ         19.9760   28.4340   83.3410 N.4       3 LYC4        0.0000 
      2 NZ         20.2720   28.8440   82.1180 N.4      11 LYL4        0.0000 
      3 NZ         19.2240   28.7020   85.6080 N.4       7 LYP4        0.0000 
      4 NZ         21.2855   29.6880   82.7775 N.4       3 LYC4        0.0000 
      5 NZ         22.1260   31.8460   83.5030 N.4       7 LYP4        0.0000 
      6 N          19.9760   28.4340   83.3410 N.am      2 SEC2        0.0000 
      7 N          20.2720   28.8440   82.1180 N.am     10 SEL2        0.0000 
      8 N          19.6800   28.0240   84.5640 N.am      6 SEP2        0.0000 
      9 N          21.2855   29.6880   82.7775 N.am      2 SEC2        0.0000 
     10 N          22.2990   30.5320   83.4370 N.am      6 SEP2        0.0000 
     11 CA         16.0920   32.9855   78.4355 C.3       4 GLC5        0.0000 
     12 CA         15.3790   31.3220   79.4560 C.3      12 GLL5        0.0000 
     13 CA         16.8050   34.6490   77.4150 C.3       8 GLP5        0.0000 
     14 CA         12.6275   32.9295   80.5180 C.3       4 GLC5        0.0000 
     15 CA         14.5950   32.1900   80.8370 C.3      12 GLL5        0.0000 
     16 CA         10.6600   33.6690   80.1990 C.3       8 GLP5        0.0000 
     17 CA         14.3205   32.1725   82.7660 C.3       4 GLC5        0.0000 
     18 CA         14.0460   32.1550   84.6950 C.3       8 GLP5        0.0000 
     19 CA         13.0420   31.2105   76.2510 C.3       4 GLC5        0.0000 
     20 CA         12.7880   30.7550   78.3690 C.3      12 GLL5        0.0000 
     21 CA         13.2960   31.6660   74.1330 C.3       8 GLP5        0.0000 
     22 N          11.3985   30.6075   75.9930 N.am      2 SEC2        0.0000 
     23 N          10.5940   30.4370   77.5040 N.am     10 SEL2        0.0000 
     24 N          12.2030   30.7780   74.4820 N.am      6 SEP2        0.0000 
     25 O           9.4120   30.8610   77.6065 O.2       1 ALC1        0.0000 
     26 O          10.5940   30.4370   77.5040 O.2       9 ALL1        0.0000 
     27 O           8.2300   31.2850   77.7090 O.2       5 ALP1        0.0000 
     28 CA         10.6750   27.7905   77.9800 C.3       4 GLC5        0.0000 
     29 CA         11.3180   29.1430   79.3770 C.3      12 GLL5        0.0000 
     30 CA         10.0320   26.4380   76.5830 C.3       8 GLP5        0.0000 
     31 CA         11.3250   27.3915   80.0570 C.3       4 GLC5        0.0000 
     32 CA         11.3320   25.6400   80.7370 C.3       8 GLP5        0.0000 
     33 N          12.3950   30.6930   83.2445 N.am      2 SEC2        0.0000 
     34 N          11.3480   29.7410   82.9680 N.am     10 SEL2        0.0000 
     35 N          13.4420   31.6450   83.5210 N.am      6 SEP2        0.0000 
     36 N          12.5085   29.3850   84.0035 N.am      2 SEC2        0.0000 
     37 N          13.6690   29.0290   85.0390 N.am      6 SEP2        0.0000 
     38 CA         11.4875   28.0965   83.7760 C.3       4 GLC5        0.0000 
     39 CA         10.0330   29.4920   82.7840 C.3      12 GLL5        0.0000 
     40 CA         12.9420   26.7010   84.7680 C.3       8 GLP5        0.0000 
     41 CA          7.9210   28.0465   84.2865 C.3       4 GLC5        0.0000 
     42 CA          8.9590   29.4590   83.6620 C.3      12 GLL5        0.0000 
     43 CA          6.8830   26.6340   84.9110 C.3       8 GLP5        0.0000 
     44 O           7.9675   29.2635   85.9510 O.2       1 ALC1        0.0000 
     45 O           9.1390   29.7040   84.9570 O.2       9 ALL1        0.0000 
     46 O           6.7960   28.8230   86.9450 O.2       5 ALP1        0.0000 
     47 N           6.5730   28.8785   83.7830 N.am      2 SEC2        0.0000 
     48 N           7.7020   29.1720   83.1790 N.am     10 SEL2        0.0000 
     49 N           5.4440   28.5850   84.3870 N.am      6 SEP2        0.0000 
     50 CA          7.1650   28.7305   79.8930 C.3       4 GLC5        0.0000 
     51 CA          7.5160   28.9180   81.8350 C.3      12 GLL5        0.0000 
     52 CA          6.8140   28.5430   77.9510 C.3       8 GLP5        0.0000 
     53 CA          7.5870   30.7495   80.9695 C.3       4 GLC5        0.0000 
     54 CA          7.6580   32.5810   80.1040 C.3       8 GLP5        0.0000 
     55 CA          5.8435   29.5900   82.5125 C.3       4 GLC5        0.0000 
     56 CA          4.1710   30.2620   83.1900 C.3       8 GLP5        0.0000 
     57 CA          7.1010   27.4805   82.6750 C.3       4 GLC5        0.0000 
     58 CA          6.6860   26.0430   83.5150 C.3       8 GLP5        0.0000 
     59 CA          8.7440   30.9065   80.7690 C.3       4 GLC5        0.0000 
     60 CA          9.8300   29.2320   81.4340 C.3      12 GLL5        0.0000 
     61 CA         10.5810   27.4360   81.0855 C.3       4 GLC5        0.0000 
     62 CA         17.1448   28.1632   82.1093 C.3       4 GLC5        0.0000 
     63 CA         16.9990   30.1740   81.3730 C.3      12 GLL5        0.0000 
     64 CA         16.6450   26.1410   82.4430 C.3       8 GLP5        0.0000 
     65 CA         14.8910   33.5770   80.3418 C.3       4 GLC5        0.0000 
     66 CA         14.7950   35.3980   80.5370 C.3       8 GLP5        0.0000 
     67 CA         14.6783   27.7233   79.0300 C.3       4 GLC5        0.0000 
     68 CA         14.6360   29.6880   79.6660 C.3      12 GLL5        0.0000 
     69 CA         15.2780   25.8750   78.8970 C.3       8 GLP5        0.0000 
     70 CA         11.3615   32.1478   79.3660 C.3       4 GLC5        0.0000 
     71 CA          8.8450   31.2337   83.5395 C.3       4 GLC5        0.0000 
     72 CA          8.1940   32.9920   83.8560 C.3       8 GLP5        0.0000 
@<TRIPOS>BOND
@<TRIPOS>SUBSTRUCTURE
     1 ALC1       25 GROUP        1 X    ALC  0     ROOT ALC X 1
     2 SEC2        6 GROUP        1 X    SEC  0     **** SEC X 2
     3 LYC4        1 GROUP        1 X    LYC  0     **** LYC X 4
     4 GLC5       11 GROUP        1 X    GLC  0     **** GLC X 6
     5 ALP1       27 GROUP        1 Y    ALP  0     ROOT ALP Y 8
     6 SEP2        8 GROUP        1 Y    SEP  0     **** SEP Y 9
     7 LYP4        3 GROUP        1 Y    LYP  0     **** LYP Y 11
     8 GLP5       13 GROUP        1 Y    GLP  0     **** GLP Y 13
     9 ALL1       26 GROUP        1 Z    ALL  0     ROOT ALL Z 15
    10 SEL2        7 GROUP        1 Z    SEL  0     **** SEL Z 16
    11 LYL4        2 GROUP        1 Z    LYL  0     **** LYL Z 18
    12 GLL5       12 GROUP        1 Z    GLL  0     **** GLL Z 20
@<TRIPOS>SET

