#    Name: 3gyq_SAM_1_ligand
#    Modification time : Tue Mar 25 13:17:05 2014

@<TRIPOS>MOLECULE
3gyq_SAM_1_ligand
   50    52     1     0     0
SMALL
NO_CHARGES


@<TRIPOS>ATOM
      1 N          18.7290   31.5750   82.3620 N.4       1 SAM270      0.0000 
      2 CA         18.2900   30.1970   82.1780 C.3       1 SAM270      0.0000 
      3 C          19.3560   29.3590   81.4790 C.2       1 SAM270      0.0000 
      4 O          19.3250   29.1670   80.2640 O.co2     1 SAM270      0.0000 
      5 OXT        20.2720   28.8440   82.1180 O.co2     1 SAM270      0.0000 
      6 CB         16.9990   30.1740   81.3730 C.3       1 SAM270      0.0000 
      7 CG         17.0330   31.0640   80.1380 C.3       1 SAM270      0.0000 
      8 SD         15.3790   31.3220   79.4560 S.3       1 SAM270      0.0000 
      9 CE         14.5950   32.1900   80.8370 C.3       1 SAM270      0.0000 
     10 C5'        14.6360   29.6880   79.6660 C.3       1 SAM270      0.0000 
     11 C4'        13.5210   29.4550   78.6600 C.3       1 SAM270      0.0000 
     12 O4'        12.5920   28.5460   79.2200 O.3       1 SAM270      0.0000 
     13 C3'        12.7880   30.7550   78.3690 C.3       1 SAM270      0.0000 
     14 O3'        12.9150   31.1090   77.0160 O.3       1 SAM270      0.0000 
     15 C2'        11.3380   30.4980   78.6970 C.3       1 SAM270      0.0000 
     16 O2'        10.5940   30.4370   77.5040 O.3       1 SAM270      0.0000 
     17 C1'        11.3180   29.1430   79.3770 C.3       1 SAM270      0.0000 
     18 N9         11.0490   29.3310   80.8140 N.pl3     1 SAM270      0.0000 
     19 C8         11.9760   29.6490   81.7730 C.2       1 SAM270      0.0000 
     20 N7         11.3480   29.7410   82.9680 N.2       1 SAM270      0.0000 
     21 C5         10.0330   29.4920   82.7840 C.ar      1 SAM270      0.0000 
     22 C6          8.9590   29.4590   83.6620 C.ar      1 SAM270      0.0000 
     23 N6          9.1390   29.7040   84.9570 N.pl3     1 SAM270      0.0000 
     24 N1          7.7020   29.1720   83.1790 N.ar      1 SAM270      0.0000 
     25 C2          7.5160   28.9180   81.8350 C.ar      1 SAM270      0.0000 
     26 N3          8.5900   28.9520   80.9690 N.ar      1 SAM270      0.0000 
     27 C4          9.8300   29.2320   81.4340 C.ar      1 SAM270      0.0000 
     28 H          18.0837   29.7398   83.1444 H         1 SAM270      0.0000 
     29 H          16.1660   30.4919   82.0210 H         1 SAM270      0.0000 
     30 H          16.7879   29.1377   81.0622 H         1 SAM270      0.0000 
     31 H          17.5578   30.6319   79.3125 H         1 SAM270      0.0000 
     32 H          17.3580   32.0629   80.3383 H         1 SAM270      0.0000 
     33 H          14.3009   29.7165   80.6800 H         1 SAM270      0.0000 
     34 H          15.4732   29.0368   79.5382 H         1 SAM270      0.0000 
     35 H          13.9417   29.0846   77.7523 H         1 SAM270      0.0000 
     36 H          13.1564   31.5033   79.0373 H         1 SAM270      0.0000 
     37 H          11.0010   31.2288   79.3766 H         1 SAM270      0.0000 
     38 H          10.5457   28.5532   78.9342 H         1 SAM270      0.0000 
     39 H          12.9152   29.7825   81.6122 H         1 SAM270      0.0000 
     40 H           8.5197   29.2320   85.5843 H         1 SAM270      0.0000 
     41 H           9.8774   30.3381   85.1864 H         1 SAM270      0.0000 
     42 H           6.5719   28.7023   81.4772 H         1 SAM270      0.0000 
     43 H          19.5610   31.6291   82.9141 H         1 SAM270      0.0000 
     44 H          18.9268   32.0215   81.4893 H         1 SAM270      0.0000 
     45 H          18.0347   32.1275   82.8232 H         1 SAM270      0.0000 
     46 H          14.4341   31.5820   81.6145 H         1 SAM270      0.0000 
     47 H          15.1588   32.9465   81.1683 H         1 SAM270      0.0000 
     48 H          13.7094   32.5758   80.5784 H         1 SAM270      0.0000 
     49 H          12.0246   30.9030   76.6100 H         1 SAM270      0.0000 
     50 H           9.9548   31.2042   77.5582 H         1 SAM270      0.0000 
@<TRIPOS>BOND
     1    2    1 1    
     2   43    1 1    
     3   44    1 1    
     4   45    1 1    
     5    3    2 1    
     6    6    2 1    
     7   28    2 1    
     8    4    3 ar   
     9    5    3 ar   
    10    7    6 1    
    11   29    6 1    
    12   30    6 1    
    13    8    7 1    
    14   31    7 1    
    15   32    7 1    
    16    9    8 1    
    17   10    8 1    
    18   46    9 1    
    19   47    9 1    
    20   48    9 1    
    21   11   10 1    
    22   33   10 1    
    23   34   10 1    
    24   12   11 1    
    25   13   11 1    
    26   35   11 1    
    27   17   12 1    
    28   14   13 1    
    29   15   13 1    
    30   36   13 1    
    31   49   14 1    
    32   16   15 1    
    33   17   15 1    
    34   37   15 1    
    35   50   16 1    
    36   18   17 1    
    37   38   17 1    
    38   19   18 1    
    39   27   18 1    
    40   20   19 2    
    41   39   19 1    
    42   21   20 1    
    43   22   21 ar   
    44   27   21 ar   
    45   23   22 1    
    46   24   22 ar   
    47   40   23 1    
    48   41   23 1    
    49   25   24 ar   
    50   26   25 ar   
    51   42   25 1    
    52   27   26 ar   
@<TRIPOS>SUBSTRUCTURE
     1 SAM270      1 GROUP   
@<TRIPOS>SET

