#    Name: 3ine_X17_1_INTS_M
#    Modification time : Tue Mar 25 16:47:56 2014

@<TRIPOS>MOLECULE
3ine_X17_1_INTS_M
   53     0    12     0     0
SMALL
NO_CHARGES


@<TRIPOS>ATOM
      1 CA         16.6765  -12.8990   20.3310 C.3       4 GLC5        0.0000 
      2 CA         16.0380  -11.1070   19.8410 C.3      12 GLL5        0.0000 
      3 CA         17.3150  -14.6910   20.8210 C.3       8 GLP5        0.0000 
      4 CA         15.1285  -11.3325   21.3205 C.3       4 GLC5        0.0000 
      5 CA         14.2190  -11.5580   22.8000 C.3       8 GLP5        0.0000 
      6 N          15.5495  -13.7400   17.9635 N.am      2 SEC2        0.0000 
      7 N          16.5840  -12.7150   17.6370 N.am     10 SEL2        0.0000 
      8 N          14.5150  -14.7650   18.2900 N.am      6 SEP2        0.0000 
      9 O          15.2065   -7.3185   14.2470 O.2       1 ALC1        0.0000 
     10 O          14.9920   -6.8470   15.4410 O.2       9 ALL1        0.0000 
     11 O          15.4210   -7.7900   13.0530 O.2       5 ALP1        0.0000 
     12 O          16.2125   -5.4760   13.4915 O.2       1 ALC1        0.0000 
     13 O          16.4120   -5.0920   14.8090 O.2       9 ALL1        0.0000 
     14 O          16.0130   -5.8600   12.1740 O.2       5 ALP1        0.0000 
     15 O          15.9165   -6.4410   13.9310 O.2       1 ALC1        0.0000 
     16 O          17.0235   -3.9335   14.8805 O.2       1 ALC1        0.0000 
     17 O          17.6350   -2.7750   14.9520 O.2       5 ALP1        0.0000 
     18 CA         17.4350  -14.4790   14.7740 C.3       4 GLC5        0.0000 
     19 CA         17.0960  -13.4720   16.5460 C.3      12 GLL5        0.0000 
     20 CA         17.7740  -15.4860   13.0020 C.3       8 GLP5        0.0000 
     21 CA         17.2055  -14.0815   18.6835 C.3       4 GLC5        0.0000 
     22 CA         16.3040  -15.0270   16.7140 C.3       4 GLC5        0.0000 
     23 CA         15.5120  -16.5820   16.8820 C.3       8 GLP5        0.0000 
     24 CA         18.7755  -14.5750   17.3855 C.3       4 GLC5        0.0000 
     25 CA         20.4550  -15.6780   18.2250 C.3       8 GLP5        0.0000 
     26 OD1        15.9165   -6.4410   13.9310 O.co2     3 ASC3        0.0000 
     27 OD1        15.6490   -5.7600   15.7220 O.co2    11 ASL3        0.0000 
     28 OD1        16.0130   -5.8600   12.1740 O.co2     7 ASP3        0.0000 
     29 OD1        15.2065   -7.3185   14.2470 O.co2     3 ASC3        0.0000 
     30 OD1        15.4210   -7.7900   13.0530 O.co2     7 ASP3        0.0000 
     31 OD1        17.0235   -3.9335   14.8805 O.co2     3 ASC3        0.0000 
     32 OD1        17.6350   -2.7750   14.9520 O.co2     7 ASP3        0.0000 
     33 CA         10.7695  -10.0410   18.2800 C.3       4 GLC5        0.0000 
     34 CA         10.7370   -7.9730   17.9490 C.3      12 GLL5        0.0000 
     35 CA         10.8020  -12.1090   18.6110 C.3       8 GLP5        0.0000 
     36 CA         11.9565  -10.0760   17.7460 C.3       4 GLC5        0.0000 
     37 CA         12.2770   -8.0400   17.9840 C.3      12 GLL5        0.0000 
     38 CA         11.6360  -12.1120   17.5080 C.3       8 GLP5        0.0000 
     39 CA         10.9290  -10.4095   17.1060 C.3       4 GLC5        0.0000 
     40 CA         10.2220   -8.7070   16.7040 C.3      12 GLL5        0.0000 
     41 CA          8.7215   -7.3685   14.5170 C.3       4 GLC5        0.0000 
     42 CA         10.3410   -6.5900   15.3760 C.3      12 GLL5        0.0000 
     43 CA          7.1020   -8.1470   13.6580 C.3       8 GLP5        0.0000 
     44 CA         17.0264  -10.3009   15.2235 C.3       4 GLC5        0.0000 
     45 CA         15.3400   -9.7050   15.8300 C.3      12 GLL5        0.0000 
     46 CA         18.2140   -9.6910   13.8150 C.3       8 GLP5        0.0000 
     47 CA          9.0050   -8.8867   15.0645 C.3       4 GLC5        0.0000 
     48 CA         10.7840   -8.0580   15.4320 C.3      12 GLL5        0.0000 
     49 CA          7.5070   -9.3910   14.0610 C.3       8 GLP5        0.0000 
     50 CA         11.1446   -7.3090   13.6608 C.3       4 GLC5        0.0000 
     51 CA         10.8460   -6.8880   11.8850 C.3       8 GLP5        0.0000 
     52 CA         11.0252   -9.2811   14.1543 C.3       4 GLC5        0.0000 
     53 CA         10.6370  -10.3030   12.5400 C.3       8 GLP5        0.0000 
@<TRIPOS>BOND
@<TRIPOS>SUBSTRUCTURE
     1 ALC1        9 GROUP        1 X    ALC  0     ROOT ALC X 1
     2 SEC2        6 GROUP        1 X    SEC  0     **** SEC X 2
     3 ASC3       26 GROUP        1 X    ASC  0     **** ASC X 3
     4 GLC5        1 GROUP        1 X    GLC  0     **** GLC X 6
     5 ALP1       11 GROUP        1 Y    ALP  0     ROOT ALP Y 8
     6 SEP2        8 GROUP        1 Y    SEP  0     **** SEP Y 9
     7 ASP3       28 GROUP        1 Y    ASP  0     **** ASP Y 10
     8 GLP5        3 GROUP        1 Y    GLP  0     **** GLP Y 13
     9 ALL1       10 GROUP        1 Z    ALL  0     ROOT ALL Z 15
    10 SEL2        7 GROUP        1 Z    SEL  0     **** SEL Z 16
    11 ASL3       27 GROUP        1 Z    ASL  0     **** ASL Z 17
    12 GLL5        2 GROUP        1 Z    GLL  0     **** GLL Z 20
@<TRIPOS>SET

