#    Name: 3ine_X17_1_ligand
#    Modification time : Tue Mar 25 16:47:56 2014

@<TRIPOS>MOLECULE
3ine_X17_1_ligand
   57    61     1     0     0
SMALL
NO_CHARGES


@<TRIPOS>ATOM
      1 C1         16.0380  -11.1070   19.8410 C.3       1 X171        0.0000 
      2 N1         15.7360   -5.4810   17.0510 N.am      1 X171        0.0000 
      3 O1         16.5840  -12.7150   17.6370 O.3       1 X171        0.0000 
      4 C2         15.8030  -10.6420   18.4280 C.ar      1 X171        0.0000 
      5 N2         14.9920   -6.8470   15.4410 N.pl3     1 X171        0.0000 
      6 O2         14.9490   -6.4920   18.9720 O.2       1 X171        0.0000 
      7 C3         15.2950   -9.3510   18.2060 C.ar      1 X171        0.0000 
      8 N3         16.4120   -5.0920   14.8090 N.pl3     1 X171        0.0000 
      9 C4         15.0550   -8.8580   16.9120 C.ar      1 X171        0.0000 
     10 C5         15.3400   -9.7050   15.8300 C.ar      1 X171        0.0000 
     11 C6         15.8490  -10.9960   16.0340 C.ar      1 X171        0.0000 
     12 C7         16.0830  -11.4710   17.3320 C.ar      1 X171        0.0000 
     13 C8         17.0960  -13.4720   16.5460 C.3       1 X171        0.0000 
     14 C9         14.4930   -7.4370   16.7270 C.3       1 X171        0.0000 
     15 C10        15.0710   -6.4410   17.7560 C.2       1 X171        0.0000 
     16 C11        15.6490   -5.7600   15.7220 C.cat     1 X171        0.0000 
     17 C12        16.4100   -4.3480   17.6690 C.3       1 X171        0.0000 
     18 C13        12.9040   -7.3890   16.7130 C.3       1 X171        0.0000 
     19 C14        12.3930   -5.9120   16.6440 C.3       1 X171        0.0000 
     20 C15        10.8580   -5.8460   16.6190 C.3       1 X171        0.0000 
     21 C16        10.3050   -6.5020   17.8930 C.3       1 X171        0.0000 
     22 C17        10.7370   -7.9730   17.9490 C.3       1 X171        0.0000 
     23 C18        12.2770   -8.0400   17.9840 C.3       1 X171        0.0000 
     24 C19        10.2220   -8.7070   16.7040 C.3       1 X171        0.0000 
     25 C20        10.7840   -8.0580   15.4320 C.3       1 X171        0.0000 
     26 C21        10.3410   -6.5900   15.3760 C.3       1 X171        0.0000 
     27 C22        12.3240   -8.1360   15.4690 C.3       1 X171        0.0000 
     28 H          14.7999   -7.2810   14.6195 H         1 X171        0.0000 
     29 H          15.0909   -8.7433   19.0217 H         1 X171        0.0000 
     30 H          17.0150   -4.3827   15.1742 H         1 X171        0.0000 
     31 H          16.3011   -5.3705   13.8550 H         1 X171        0.0000 
     32 H          15.1721   -9.3719   14.8676 H         1 X171        0.0000 
     33 H          16.0517  -11.5977   15.2259 H         1 X171        0.0000 
     34 H          12.7918   -5.4515   15.7437 H         1 X171        0.0000 
     35 H          12.7662   -5.3777   17.5140 H         1 X171        0.0000 
     36 H          10.5505   -4.8306   16.5787 H         1 X171        0.0000 
     37 H           9.2238   -6.4459   17.8833 H         1 X171        0.0000 
     38 H          10.6921   -5.9814   18.7598 H         1 X171        0.0000 
     39 H          10.3451   -8.4269   18.8217 H         1 X171        0.0000 
     40 H          12.6409   -7.5119   18.8607 H         1 X171        0.0000 
     41 H          12.5915   -9.0785   18.0340 H         1 X171        0.0000 
     42 H           9.1382   -8.6576   16.6820 H         1 X171        0.0000 
     43 H          10.5360   -9.7449   16.7448 H         1 X171        0.0000 
     44 H          10.4243   -8.5747   14.5809 H         1 X171        0.0000 
     45 H          10.7483   -6.1257   14.4877 H         1 X171        0.0000 
     46 H           9.2604   -6.5416   15.3555 H         1 X171        0.0000 
     47 H          12.6316   -9.1765   15.5151 H         1 X171        0.0000 
     48 H          12.7301   -7.6803   14.5708 H         1 X171        0.0000 
     49 H          16.4018  -12.0380   19.8699 H         1 X171        0.0000 
     50 H          16.6918  -10.5218   20.3207 H         1 X171        0.0000 
     51 H          15.1943  -11.1052   20.3778 H         1 X171        0.0000 
     52 H          17.8511  -13.0015   16.0894 H         1 X171        0.0000 
     53 H          17.4416  -14.3626   16.8417 H         1 X171        0.0000 
     54 H          16.3962  -13.6446   15.8528 H         1 X171        0.0000 
     55 H          17.1308   -4.6419   18.2968 H         1 X171        0.0000 
     56 H          16.8386   -3.7543   16.9880 H         1 X171        0.0000 
     57 H          15.7764   -3.7808   18.1951 H         1 X171        0.0000 
@<TRIPOS>BOND
     1    4    1 1    
     2   49    1 1    
     3   50    1 1    
     4   51    1 1    
     5   15    2 am   
     6   16    2 ar   
     7   17    2 1    
     8   12    3 1    
     9   13    3 1    
    10    7    4 ar   
    11   12    4 ar   
    12   14    5 1    
    13   16    5 ar   
    14   28    5 1    
    15   15    6 2    
    16    9    7 ar   
    17   29    7 1    
    18   16    8 ar   
    19   30    8 1    
    20   31    8 1    
    21   10    9 ar   
    22   14    9 1    
    23   11   10 ar   
    24   32   10 1    
    25   12   11 ar   
    26   33   11 1    
    27   52   13 1    
    28   53   13 1    
    29   54   13 1    
    30   15   14 1    
    31   18   14 1    
    32   55   17 1    
    33   56   17 1    
    34   57   17 1    
    35   19   18 1    
    36   23   18 1    
    37   27   18 1    
    38   20   19 1    
    39   34   19 1    
    40   35   19 1    
    41   21   20 1    
    42   26   20 1    
    43   36   20 1    
    44   22   21 1    
    45   37   21 1    
    46   38   21 1    
    47   23   22 1    
    48   24   22 1    
    49   39   22 1    
    50   40   23 1    
    51   41   23 1    
    52   25   24 1    
    53   42   24 1    
    54   43   24 1    
    55   26   25 1    
    56   27   25 1    
    57   44   25 1    
    58   45   26 1    
    59   46   26 1    
    60   47   27 1    
    61   48   27 1    
@<TRIPOS>SUBSTRUCTURE
     1 X171        1 GROUP   
@<TRIPOS>SET

