#    Name: 1nhx_FTB_2_INTS_M
#    Modification time : Mon Mar 24 18:18:14 2014

@<TRIPOS>MOLECULE
1nhx_FTB_2_INTS_M
   63     0     6     0     0
SMALL
NO_CHARGES


@<TRIPOS>ATOM
      1 CA         40.6520   44.8045   31.6955 C.3       2 GLC5        0.0000 
      2 CA         39.6080   46.1290   32.8350 C.3       6 GLL5        0.0000 
      3 CA         41.6960   43.4800   30.5560 C.3       4 GLP5        0.0000 
      4 CA         40.6080   47.5930   32.7120 C.3       2 GLC5        0.0000 
      5 CA         41.6080   49.0570   32.5890 C.3       4 GLP5        0.0000 
      6 CA         37.8060   45.7085   34.0125 C.3       2 GLC5        0.0000 
      7 CA         36.0040   45.2880   35.1900 C.3       4 GLP5        0.0000 
      8 CA         37.7995   42.8665   35.6965 C.3       2 GLC5        0.0000 
      9 CA         39.1590   41.4440   35.3460 C.3       6 GLL5        0.0000 
     10 CA         36.4400   44.2890   36.0470 C.3       4 GLP5        0.0000 
     11 CA         39.2790   38.6720   34.1825 C.3       2 GLC5        0.0000 
     12 CA         40.2020   40.3990   34.8780 C.3       6 GLL5        0.0000 
     13 CA         38.3560   36.9450   33.4870 C.3       4 GLP5        0.0000 
     14 CA         40.3755   40.8875   32.8790 C.3       2 GLC5        0.0000 
     15 CA         40.5490   41.3760   30.8800 C.3       4 GLP5        0.0000 
     16 CA         43.0655   37.7595   34.4605 C.3       2 GLC5        0.0000 
     17 CA         41.9520   38.7370   35.6300 C.3       6 GLL5        0.0000 
     18 CA         44.1790   36.7820   33.2910 C.3       4 GLP5        0.0000 
     19 CA         37.6400   43.0780   30.3340 C.3       2 GLC5        0.0000 
     20 CA         37.4460   43.2730   32.5150 C.3       6 GLL5        0.0000 
     21 CA         37.8340   42.8830   28.1530 C.3       4 GLP5        0.0000 
     22 N          34.4470   43.3845   31.5890 N.am      1 SEC2        0.0000 
     23 N          35.6740   42.6810   31.1660 N.am      5 SEL2        0.0000 
     24 N          33.2200   44.0880   32.0120 N.am      3 SEP2        0.0000 
     25 N          34.6310   42.3545   30.1730 N.am      1 SEC2        0.0000 
     26 N          33.5880   42.0280   29.1800 N.am      3 SEP2        0.0000 
     27 N          36.7050   38.9675   35.5830 N.am      1 SEC2        0.0000 
     28 N          37.1310   39.7930   34.4150 N.am      5 SEL2        0.0000 
     29 N          36.2790   38.1420   36.7510 N.am      3 SEP2        0.0000 
     30 CA         37.0155   38.4880   32.8300 C.3       2 GLC5        0.0000 
     31 CA         35.6750   40.0310   32.1730 C.3       6 GLL5        0.0000 
     32 CA         36.4625   40.2225   30.3900 C.3       2 GLC5        0.0000 
     33 CA         37.2500   40.4140   28.6070 C.3       4 GLP5        0.0000 
     34 CA         29.8990   39.5790   32.9395 C.3       2 GLC5        0.0000 
     35 CA         31.6510   39.9680   33.7640 C.3       6 GLL5        0.0000 
     36 CA         28.1470   39.1900   32.1150 C.3       4 GLP5        0.0000 
     37 CA         30.2695   39.7365   31.4605 C.3       2 GLC5        0.0000 
     38 CA         31.8990   39.6340   32.4210 C.3       6 GLL5        0.0000 
     39 CA         28.6400   39.8390   30.5000 C.3       4 GLP5        0.0000 
     40 CA         33.2410   37.6700   30.4945 C.3       2 GLC5        0.0000 
     41 CA         33.4370   39.3320   30.6350 C.3       6 GLL5        0.0000 
     42 CA         33.0450   36.0080   30.3540 C.3       4 GLP5        0.0000 
     43 CA         34.4790   39.6835   28.9380 C.3       2 GLC5        0.0000 
     44 CA         35.5210   40.0350   27.2410 C.3       4 GLP5        0.0000 
     45 CA         32.4055   40.6705   29.4330 C.3       2 GLC5        0.0000 
     46 CA         31.3740   42.0090   28.2310 C.3       4 GLP5        0.0000 
     47 CA         35.9790   49.0478   32.1225 C.3       2 GLC5        0.0000 
     48 CA         38.0280   48.0880   32.9320 C.3       6 GLL5        0.0000 
     49 CA         34.2560   49.4910   30.9640 C.3       4 GLP5        0.0000 
     50 CA         39.3362   48.9344   32.0078 C.3       2 GLC5        0.0000 
     51 CA         40.3670   49.9510   30.5720 C.3       4 GLP5        0.0000 
     52 CA         33.2860   41.7863   33.2240 C.3       2 GLC5        0.0000 
     53 CA         34.2810   40.0170   32.7520 C.3       6 GLL5        0.0000 
     54 CA         32.4190   43.3890   33.0220 C.3       4 GLP5        0.0000 
     55 CA         32.3005   41.7700   33.6030 C.3       2 GLC5        0.0000 
     56 CA         32.7130   40.3340   34.6040 C.3       6 GLL5        0.0000 
     57 CA         33.4955   38.7235   34.7025 C.3       2 GLC5        0.0000 
     58 CA         34.4810   37.2920   35.3470 C.3       4 GLP5        0.0000 
     59 CA         32.4008   37.8058   31.9110 C.3       2 GLC5        0.0000 
     60 CA         32.2460   35.9620   31.6500 C.3       4 GLP5        0.0000 
     61 CA         32.4873   41.5192   32.5970 C.3       2 GLC5        0.0000 
     62 CA         34.2880   38.5682   33.7699 C.3       2 GLC5        0.0000 
     63 CA         33.2120   39.6650   31.9230 C.3       6 GLL5        0.0000 
@<TRIPOS>BOND
@<TRIPOS>SUBSTRUCTURE
     1 SEC2       22 GROUP        1 X    SEC  0     ROOT SEC X 2
     2 GLC5        1 GROUP        1 X    GLC  0     **** GLC X 6
     3 SEP2       24 GROUP        1 Y    SEP  0     ROOT SEP Y 9
     4 GLP5        3 GROUP        1 Y    GLP  0     **** GLP Y 13
     5 SEL2       23 GROUP        1 Z    SEL  0     ROOT SEL Z 16
     6 GLL5        2 GROUP        1 Z    GLL  0     **** GLL Z 20
@<TRIPOS>SET

