#    Name: 1nhx_FTB_2_ligand
#    Modification time : Mon Mar 24 18:18:14 2014

@<TRIPOS>MOLECULE
1nhx_FTB_2_ligand
   60    63     1     0     0
SMALL
NO_CHARGES


@<TRIPOS>ATOM
      1 O33        35.8010   51.4460   34.0580 O.2       1 FTB704      0.0000 
      2 C32        36.0990   51.3690   35.2450 C.2       1 FTB704      0.0000 
      3 C34        35.5200   52.3910   36.1800 C.3       1 FTB704      0.0000 
      4 N31        36.9390   50.3870   35.7390 N.am      1 FTB704      0.0000 
      5 C28        37.6020   49.3190   35.0080 C.ar      1 FTB704      0.0000 
      6 C29        38.5010   48.4660   35.6750 C.ar      1 FTB704      0.0000 
      7 C30        39.1520   47.4290   34.9770 C.ar      1 FTB704      0.0000 
      8 C27        37.3760   49.1210   33.6300 C.ar      1 FTB704      0.0000 
      9 C26        38.0280   48.0880   32.9320 C.ar      1 FTB704      0.0000 
     10 C25        38.9090   47.2310   33.6060 C.ar      1 FTB704      0.0000 
     11 C24        39.6080   46.1290   32.8350 C.3       1 FTB704      0.0000 
     12 C1         38.8310   44.8400   32.8870 C.2       1 FTB704      0.0000 
     13 N2         39.1550   43.9000   33.8030 N.2       1 FTB704      0.0000 
     14 C3         38.2640   42.9240   33.5450 C.2       1 FTB704      0.0000 
     15 N6         38.2170   41.7490   34.2440 N.am      1 FTB704      0.0000 
     16 C12        39.1590   41.4440   35.3460 C.3       1 FTB704      0.0000 
     17 C13        40.2020   40.3990   34.8780 C.3       1 FTB704      0.0000 
     18 C14        41.1370   39.9680   36.0180 C.3       1 FTB704      0.0000 
     19 C15        41.9520   38.7370   35.6300 C.3       1 FTB704      0.0000 
     20 C4         37.4460   43.2730   32.5150 C.2       1 FTB704      0.0000 
     21 N5         37.7890   44.5060   32.0810 N.pl3     1 FTB704      0.0000 
     22 C9         36.4470   42.4000   32.0870 C.2       1 FTB704      0.0000 
     23 O10        35.6740   42.6810   31.1660 O.2       1 FTB704      0.0000 
     24 N8         36.3800   41.1860   32.7780 N.am      1 FTB704      0.0000 
     25 C7         37.2450   40.8590   33.8370 C.2       1 FTB704      0.0000 
     26 O11        37.1310   39.7930   34.4150 O.2       1 FTB704      0.0000 
     27 C16        35.6750   40.0310   32.1730 C.3       1 FTB704      0.0000 
     28 C17        34.2810   40.0170   32.7520 C.ar      1 FTB704      0.0000 
     29 C18        34.0250   40.3500   34.1000 C.ar      1 FTB704      0.0000 
     30 C19        32.7130   40.3340   34.6040 C.ar      1 FTB704      0.0000 
     31 C20        31.6510   39.9680   33.7640 C.ar      1 FTB704      0.0000 
     32 C21        31.8990   39.6340   32.4210 C.ar      1 FTB704      0.0000 
     33 C22        33.2120   39.6650   31.9230 C.ar      1 FTB704      0.0000 
     34 F          33.4370   39.3320   30.6350 F         1 FTB704      0.0000 
     35 H          37.1442   50.3924   36.7985 H         1 FTB704      0.0000 
     36 H          38.6841   48.5991   36.6750 H         1 FTB704      0.0000 
     37 H          39.8070   46.8154   35.4733 H         1 FTB704      0.0000 
     38 H          36.7253   49.7411   33.1298 H         1 FTB704      0.0000 
     39 H          37.8571   47.9638   31.9296 H         1 FTB704      0.0000 
     40 H          40.6060   45.9720   33.2585 H         1 FTB704      0.0000 
     41 H          39.7289   46.4416   31.7921 H         1 FTB704      0.0000 
     42 H          38.6300   41.0328   36.2039 H         1 FTB704      0.0000 
     43 H          39.6939   42.3398   35.6562 H         1 FTB704      0.0000 
     44 H          40.7942   40.8314   34.0705 H         1 FTB704      0.0000 
     45 H          39.6750   39.5245   34.4944 H         1 FTB704      0.0000 
     46 H          40.5394   39.7425   36.9010 H         1 FTB704      0.0000 
     47 H          41.8129   40.7901   36.2525 H         1 FTB704      0.0000 
     48 H          37.4075   45.0084   31.3969 H         1 FTB704      0.0000 
     49 H          36.1763   39.1087   32.4252 H         1 FTB704      0.0000 
     50 H          35.6159   40.1444   31.1010 H         1 FTB704      0.0000 
     51 H          34.8059   40.6057   34.7152 H         1 FTB704      0.0000 
     52 H          32.5352   40.5878   35.5773 H         1 FTB704      0.0000 
     53 H          30.6941   39.9436   34.1276 H         1 FTB704      0.0000 
     54 H          31.1244   39.3690   31.8083 H         1 FTB704      0.0000 
     55 H          35.8172   52.2421   37.1231 H         1 FTB704      0.0000 
     56 H          35.7929   53.3200   35.9299 H         1 FTB704      0.0000 
     57 H          34.5202   52.3694   36.1809 H         1 FTB704      0.0000 
     58 H          42.5198   38.9063   34.8244 H         1 FTB704      0.0000 
     59 H          42.5654   38.4506   36.3660 H         1 FTB704      0.0000 
     60 H          41.3657   37.9556   35.4164 H         1 FTB704      0.0000 
@<TRIPOS>BOND
     1    2    1 2    
     2    3    2 1    
     3    4    2 am   
     4   55    3 1    
     5   56    3 1    
     6   57    3 1    
     7    5    4 1    
     8   35    4 1    
     9    6    5 ar   
    10    8    5 ar   
    11    7    6 ar   
    12   36    6 1    
    13   10    7 ar   
    14   37    7 1    
    15    9    8 ar   
    16   38    8 1    
    17   10    9 ar   
    18   39    9 1    
    19   11   10 1    
    20   12   11 1    
    21   40   11 1    
    22   41   11 1    
    23   13   12 2    
    24   21   12 1    
    25   14   13 1    
    26   15   14 1    
    27   20   14 2    
    28   16   15 1    
    29   25   15 am   
    30   17   16 1    
    31   42   16 1    
    32   43   16 1    
    33   18   17 1    
    34   44   17 1    
    35   45   17 1    
    36   19   18 1    
    37   46   18 1    
    38   47   18 1    
    39   58   19 1    
    40   59   19 1    
    41   60   19 1    
    42   21   20 1    
    43   22   20 1    
    44   48   21 1    
    45   23   22 2    
    46   24   22 am   
    47   25   24 am   
    48   27   24 1    
    49   26   25 2    
    50   28   27 1    
    51   49   27 1    
    52   50   27 1    
    53   29   28 ar   
    54   33   28 ar   
    55   30   29 ar   
    56   51   29 1    
    57   31   30 ar   
    58   52   30 1    
    59   32   31 ar   
    60   53   31 1    
    61   33   32 ar   
    62   54   32 1    
    63   34   33 1    
@<TRIPOS>SUBSTRUCTURE
     1 FTB704      1 GROUP   
@<TRIPOS>SET

