#    Name: 3a50_VD3_5_INTS_M
#    Modification time : Mon Apr  7 18:56:00 2014

@<TRIPOS>MOLECULE
3a50_VD3_5_INTS_M
   73     0     3     0     0
SMALL
NO_CHARGES


@<TRIPOS>ATOM
      1 CA        -63.7460   50.0780  -30.3790 C.3       1 GLC5        0.0000 
      2 CA        -64.2930   48.7070  -31.7460 C.3       3 GLL5        0.0000 
      3 CA        -63.1990   51.4490  -29.0120 C.3       2 GLP5        0.0000 
      4 CA        -62.1090   50.4885  -35.1870 C.3       1 GLC5        0.0000 
      5 CA        -63.4760   49.3990  -34.0830 C.3       3 GLL5        0.0000 
      6 CA        -60.7420   51.5780  -36.2910 C.3       2 GLP5        0.0000 
      7 CA        -60.6510   49.2255  -35.3505 C.3       1 GLC5        0.0000 
      8 CA        -61.4560   48.0160  -34.0820 C.3       3 GLL5        0.0000 
      9 CA        -59.8460   50.4350  -36.6190 C.3       2 GLP5        0.0000 
     10 CA        -58.9240   49.4120  -32.1245 C.3       1 GLC5        0.0000 
     11 CA        -59.8420   47.7940  -31.7710 C.3       3 GLL5        0.0000 
     12 CA        -58.0060   51.0300  -32.4780 C.3       2 GLP5        0.0000 
     13 CA        -60.6680   49.7585  -31.5225 C.3       1 GLC5        0.0000 
     14 CA        -61.4940   51.7230  -31.2740 C.3       2 GLP5        0.0000 
     15 CA        -60.7905   47.3210  -28.4730 C.3       1 GLC5        0.0000 
     16 CA        -59.6090   47.2560  -30.3460 C.3       3 GLL5        0.0000 
     17 CA        -61.9720   47.3860  -26.6000 C.3       2 GLP5        0.0000 
     18 CA        -57.5520   45.3755  -34.7655 C.3       1 GLC5        0.0000 
     19 CA        -59.0570   44.2470  -33.5430 C.3       3 GLL5        0.0000 
     20 CA        -56.0470   46.5040  -35.9880 C.3       2 GLP5        0.0000 
     21 CA        -57.4585   41.9465  -34.1900 C.3       1 GLC5        0.0000 
     22 CA        -58.2400   43.1960  -32.6900 C.3       3 GLL5        0.0000 
     23 CA        -56.6770   40.6970  -35.6900 C.3       2 GLP5        0.0000 
     24 CA        -61.3975   44.7085  -29.0975 C.3       1 GLC5        0.0000 
     25 CA        -59.9940   44.2290  -30.6820 C.3       3 GLL5        0.0000 
     26 CA        -62.8010   45.1880  -27.5130 C.3       2 GLP5        0.0000 
     27 CA        -53.9615   42.7430  -32.2050 C.3       1 GLC5        0.0000 
     28 CA        -55.3530   43.1730  -31.3900 C.3       3 GLL5        0.0000 
     29 CA        -52.5700   42.3130  -33.0200 C.3       2 GLP5        0.0000 
     30 CA        -55.6355   41.6290  -32.9785 C.3       1 GLC5        0.0000 
     31 CA        -55.9180   40.0850  -34.5670 C.3       2 GLP5        0.0000 
     32 CA        -58.7685   41.7015  -28.5330 C.3       1 GLC5        0.0000 
     33 CA        -57.0410   42.4780  -29.6240 C.3       3 GLL5        0.0000 
     34 CA        -60.4960   40.9250  -27.4420 C.3       2 GLP5        0.0000 
     35 CA        -57.4555   42.8305  -27.8030 C.3       1 GLC5        0.0000 
     36 CA        -57.8700   43.1830  -25.9820 C.3       2 GLP5        0.0000 
     37 CA        -54.0715   42.9955  -29.3270 C.3       1 GLC5        0.0000 
     38 CA        -54.9710   40.9940  -29.1720 C.3       3 GLL5        0.0000 
     39 CA        -53.1720   44.9970  -29.4820 C.3       2 GLP5        0.0000 
     40 CA        -53.3895   40.8130  -31.9990 C.3       1 GLC5        0.0000 
     41 CA        -54.2090   39.3130  -30.9780 C.3       3 GLL5        0.0000 
     42 CA        -55.0635   39.6990  -32.7725 C.3       1 GLC5        0.0000 
     43 CA        -52.6015   40.7390  -27.1910 C.3       1 GLC5        0.0000 
     44 CA        -52.9040   39.6280  -28.8830 C.3       3 GLL5        0.0000 
     45 CA        -52.2990   41.8500  -25.4990 C.3       2 GLP5        0.0000 
     46 CA        -64.0978   47.6597  -30.1492 C.3       1 GLC5        0.0000 
     47 CA        -64.5360   47.2300  -32.1910 C.3       3 GLL5        0.0000 
     48 CA        -63.7810   47.3510  -28.3300 C.3       2 GLP5        0.0000 
     49 CA        -65.8628   47.4217  -31.2892 C.3       1 GLC5        0.0000 
     50 CA        -67.3110   46.8750  -30.6100 C.3       2 GLP5        0.0000 
     51 CA        -65.9670   50.3205  -31.4023 C.3       1 GLC5        0.0000 
     52 CA        -67.5940   51.4130  -30.4840 C.3       2 GLP5        0.0000 
     53 CA        -62.7127   50.6485  -32.3815 C.3       1 GLC5        0.0000 
     54 CA        -64.3870   49.7490  -32.8950 C.3       3 GLL5        0.0000 
     55 CA        -65.1227   45.4513  -32.4960 C.3       1 GLC5        0.0000 
     56 CA        -63.5980   46.9370  -33.3700 C.3       3 GLL5        0.0000 
     57 CA        -66.6660   44.5750  -31.3470 C.3       2 GLP5        0.0000 
     58 CA        -58.7267   46.5288  -28.3567 C.3       1 GLC5        0.0000 
     59 CA        -58.4090   46.3330  -26.4000 C.3       2 GLP5        0.0000 
     60 CA        -57.3284   47.6375  -30.7479 C.3       1 GLC5        0.0000 
     61 CA        -58.4800   46.1930  -30.2810 C.3       3 GLL5        0.0000 
     62 CA        -55.5540   48.4160  -30.8260 C.3       2 GLP5        0.0000 
     63 CA        -57.1145   46.2332  -31.9855 C.3       1 GLC5        0.0000 
     64 CA        -58.7770   45.0180  -31.2020 C.3       3 GLL5        0.0000 
     65 CA        -55.3730   47.2050  -32.0500 C.3       2 GLP5        0.0000 
     66 CA        -54.5740   44.1857  -30.2377 C.3       1 GLC5        0.0000 
     67 CA        -56.5990   43.5760  -30.5970 C.3       3 GLL5        0.0000 
     68 CA        -55.8016   45.3584  -31.6497 C.3       1 GLC5        0.0000 
     69 CA        -57.9097   40.4155  -30.0183 C.3       1 GLC5        0.0000 
     70 CA        -59.1350   39.0230  -30.2910 C.3       2 GLP5        0.0000 
     71 CA        -53.9907   38.5763  -27.7015 C.3       1 GLC5        0.0000 
     72 CA        -54.2970   39.6390  -29.4910 C.3       3 GLL5        0.0000 
     73 CA        -54.3810   37.5190  -26.2160 C.3       2 GLP5        0.0000 
@<TRIPOS>BOND
@<TRIPOS>SUBSTRUCTURE
     1 GLC5        1 GROUP        1 X    GLC  0     ROOT GLC X 6
     2 GLP5        3 GROUP        1 Y    GLP  0     ROOT GLP Y 13
     3 GLL5        2 GROUP        1 Z    GLL  0     ROOT GLL Z 20
@<TRIPOS>SET

