#    Name: 3a50_VD3_5_ligand
#    Modification time : Mon Apr  7 18:56:00 2014

@<TRIPOS>MOLECULE
3a50_VD3_5_ligand
   70    72     1     0     0
SMALL
NO_CHARGES


@<TRIPOS>ATOM
      1 O         -65.7520   49.8650  -33.3470 O.3       1 VD32001     0.0000 
      2 C1        -64.5360   47.2300  -32.1910 C.3       1 VD32001     0.0000 
      3 C2        -64.2930   48.7070  -31.7460 C.3       1 VD32001     0.0000 
      4 C3        -64.3870   49.7490  -32.8950 C.3       1 VD32001     0.0000 
      5 C4        -63.4760   49.3990  -34.0830 C.3       1 VD32001     0.0000 
      6 C5        -62.7810   48.0680  -33.8550 C.2       1 VD32001     0.0000 
      7 C7        -61.4560   48.0160  -34.0820 C.2       1 VD32001     0.0000 
      8 C8        -60.6090   46.8310  -33.9170 C.2       1 VD32001     0.0000 
      9 C9        -59.8500   46.6960  -32.8190 C.2       1 VD32001     0.0000 
     10 C10       -59.8420   47.7940  -31.7710 C.3       1 VD32001     0.0000 
     11 C6        -63.5980   46.9370  -33.3700 C.2       1 VD32001     0.0000 
     12 C11       -59.6090   47.2560  -30.3460 C.3       1 VD32001     0.0000 
     13 C12       -58.4800   46.1930  -30.2810 C.3       1 VD32001     0.0000 
     14 C13       -58.7770   45.0180  -31.2020 C.3       1 VD32001     0.0000 
     15 C14       -58.9350   45.5050  -32.6400 C.3       1 VD32001     0.0000 
     16 C15       -59.0570   44.2470  -33.5430 C.3       1 VD32001     0.0000 
     17 C16       -58.2400   43.1960  -32.6900 C.3       1 VD32001     0.0000 
     18 C17       -57.6160   44.1250  -31.6210 C.3       1 VD32001     0.0000 
     19 C18       -59.9940   44.2290  -30.6820 C.3       1 VD32001     0.0000 
     20 C19       -63.5610   45.7180  -33.9200 C.2       1 VD32001     0.0000 
     21 C20       -56.5990   43.5760  -30.5970 C.3       1 VD32001     0.0000 
     22 C21       -55.3530   43.1730  -31.3900 C.3       1 VD32001     0.0000 
     23 C22       -57.0410   42.4780  -29.6240 C.3       1 VD32001     0.0000 
     24 C23       -56.3280   41.1380  -29.8670 C.3       1 VD32001     0.0000 
     25 C24       -54.9710   40.9940  -29.1720 C.3       1 VD32001     0.0000 
     26 C25       -54.2970   39.6390  -29.4910 C.3       1 VD32001     0.0000 
     27 C26       -54.2090   39.3130  -30.9780 C.3       1 VD32001     0.0000 
     28 C27       -52.9040   39.6280  -28.8830 C.3       1 VD32001     0.0000 
     29 H         -65.5559   47.1260  -32.5019 H         1 VD32001     0.0000 
     30 H         -64.3056   46.5797  -31.3714 H         1 VD32001     0.0000 
     31 H         -63.2969   48.7737  -31.2884 H         1 VD32001     0.0000 
     32 H         -65.0304   48.9641  -30.9739 H         1 VD32001     0.0000 
     33 H         -64.0482   50.7068  -32.4904 H         1 VD32001     0.0000 
     34 H         -62.7320   50.1848  -34.2001 H         1 VD32001     0.0000 
     35 H         -64.0802   49.3461  -34.9868 H         1 VD32001     0.0000 
     36 H         -60.9352   48.8842  -34.4105 H         1 VD32001     0.0000 
     37 H         -60.6354   46.1369  -34.6715 H         1 VD32001     0.0000 
     38 H         -60.8006   48.3265  -31.7913 H         1 VD32001     0.0000 
     39 H         -59.0519   48.5178  -32.0050 H         1 VD32001     0.0000 
     40 H         -60.5348   46.8068  -29.9767 H         1 VD32001     0.0000 
     41 H         -59.3453   48.0880  -29.6875 H         1 VD32001     0.0000 
     42 H         -58.3929   45.8426  -29.2543 H         1 VD32001     0.0000 
     43 H         -57.5439   46.6635  -30.5754 H         1 VD32001     0.0000 
     44 H         -57.8505   45.8952  -32.8849 H         1 VD32001     0.0000 
     45 H         -58.5645   44.4057  -34.4446 H         1 VD32001     0.0000 
     46 H         -60.0489   43.9406  -33.5960 H         1 VD32001     0.0000 
     47 H         -57.4953   42.7843  -33.2875 H         1 VD32001     0.0000 
     48 H         -58.9064   42.5331  -32.2455 H         1 VD32001     0.0000 
     49 H         -56.9864   44.8690  -32.3177 H         1 VD32001     0.0000 
     50 H         -56.2682   44.4635  -29.9847 H         1 VD32001     0.0000 
     51 H         -58.1228   42.3271  -29.7212 H         1 VD32001     0.0000 
     52 H         -56.8392   42.8063  -28.5974 H         1 VD32001     0.0000 
     53 H         -56.1883   41.0043  -30.9552 H         1 VD32001     0.0000 
     54 H         -56.9903   40.3194  -29.5312 H         1 VD32001     0.0000 
     55 H         -55.1076   41.0722  -28.0920 H         1 VD32001     0.0000 
     56 H         -54.3105   41.7996  -29.4975 H         1 VD32001     0.0000 
     57 H         -54.8741   38.8541  -28.9944 H         1 VD32001     0.0000 
     58 H         -60.2079   43.4474  -31.2680 H         1 VD32001     0.0000 
     59 H         -59.8388   43.8711  -29.7612 H         1 VD32001     0.0000 
     60 H         -60.8154   44.7979  -30.6408 H         1 VD32001     0.0000 
     61 H         -54.9542   43.9509  -31.8756 H         1 VD32001     0.0000 
     62 H         -54.6394   42.8008  -30.7965 H         1 VD32001     0.0000 
     63 H         -55.5587   42.4741  -32.0750 H         1 VD32001     0.0000 
     64 H         -53.6796   39.9985  -31.4778 H         1 VD32001     0.0000 
     65 H         -53.7701   38.4290  -31.1391 H         1 VD32001     0.0000 
     66 H         -55.1130   39.2733  -31.4036 H         1 VD32001     0.0000 
     67 H         -52.4258   38.7689  -29.0656 H         1 VD32001     0.0000 
     68 H         -52.3338   40.3641  -29.2477 H         1 VD32001     0.0000 
     69 H         -52.9313   39.7429  -27.8900 H         1 VD32001     0.0000 
     70 H         -65.6957   50.3550  -34.2169 H         1 VD32001     0.0000 
@<TRIPOS>BOND
     1    4    1 1    
     2   70    1 1    
     3    3    2 1    
     4   11    2 1    
     5   29    2 1    
     6   30    2 1    
     7    4    3 1    
     8   31    3 1    
     9   32    3 1    
    10    5    4 1    
    11   33    4 1    
    12    6    5 1    
    13   34    5 1    
    14   35    5 1    
    15    7    6 2    
    16   11    6 1    
    17    8    7 1    
    18   36    7 1    
    19    9    8 2    
    20   37    8 1    
    21   10    9 1    
    22   15    9 1    
    23   12   10 1    
    24   38   10 1    
    25   39   10 1    
    26   20   11 2    
    27   13   12 1    
    28   40   12 1    
    29   41   12 1    
    30   14   13 1    
    31   42   13 1    
    32   43   13 1    
    33   15   14 1    
    34   18   14 1    
    35   19   14 1    
    36   16   15 1    
    37   44   15 1    
    38   17   16 1    
    39   45   16 1    
    40   46   16 1    
    41   18   17 1    
    42   47   17 1    
    43   48   17 1    
    44   21   18 1    
    45   49   18 1    
    46   58   19 1    
    47   59   19 1    
    48   60   19 1    
    49   22   21 1    
    50   23   21 1    
    51   50   21 1    
    52   61   22 1    
    53   62   22 1    
    54   63   22 1    
    55   24   23 1    
    56   51   23 1    
    57   52   23 1    
    58   25   24 1    
    59   53   24 1    
    60   54   24 1    
    61   26   25 1    
    62   55   25 1    
    63   56   25 1    
    64   27   26 1    
    65   28   26 1    
    66   57   26 1    
    67   64   27 1    
    68   65   27 1    
    69   66   27 1    
    70   67   28 1    
    71   68   28 1    
    72   69   28 1    
@<TRIPOS>SUBSTRUCTURE
     1 VD32001     1 GROUP   
@<TRIPOS>SET

