#    Name: 2dbz_NAP_1_INTS_M
#    Modification time : Tue Mar 25 09:58:49 2014

@<TRIPOS>MOLECULE
2dbz_NAP_1_INTS_M
   85     0    12     0     0
SMALL
NO_CHARGES


@<TRIPOS>ATOM
      1 N          33.6365   -0.6170   -9.5860 N.am      2 SEC2        0.0000 
      2 N          32.3240   -0.8610   -9.0790 N.am     10 SEL2        0.0000 
      3 N          34.9490   -0.3730  -10.0930 N.am      6 SEP2        0.0000 
      4 CA         31.4300   -4.3500   -6.2070 C.3       4 GLC5        0.0000 
      5 CA         32.7300   -3.5850   -7.8570 C.3      12 GLL5        0.0000 
      6 CA         30.1300   -5.1150   -4.5570 C.3       8 GLP5        0.0000 
      7 CA         33.7610   -6.3195   -8.0245 C.3       4 GLC5        0.0000 
      8 CA         32.4860   -5.0010   -8.3900 C.3      12 GLL5        0.0000 
      9 CA         35.0360   -7.6380   -7.6590 C.3       8 GLP5        0.0000 
     10 O          32.7865   -7.0730  -11.0630 O.2       1 ALC1        0.0000 
     11 O          32.5330   -5.5640  -10.7320 O.2       9 ALL1        0.0000 
     12 O          33.0400   -8.5820  -11.3940 O.2       5 ALP1        0.0000 
     13 CA         33.1290   -7.2560   -8.0060 C.3       4 GLC5        0.0000 
     14 CA         31.2220   -6.8740   -8.3530 C.3      12 GLL5        0.0000 
     15 CA         32.1710   -7.5825   -6.6145 C.3       4 GLC5        0.0000 
     16 CA         33.1200   -8.2910   -4.8760 C.3       8 GLP5        0.0000 
     17 CA         30.6760   -5.9945   -6.4550 C.3       4 GLC5        0.0000 
     18 CA         32.3100  -11.0580   -9.1430 C.3       4 GLC5        0.0000 
     19 CA         31.2220  -11.2300   -7.5390 C.3      12 GLL5        0.0000 
     20 CA         33.3980  -10.8860  -10.7470 C.3       8 GLP5        0.0000 
     21 CA         29.8255  -10.7875   -8.6875 C.3       4 GLC5        0.0000 
     22 CA         28.4290  -10.3450   -9.8360 C.3       8 GLP5        0.0000 
     23 CA         32.1710   -9.7605   -6.2075 C.3       4 GLC5        0.0000 
     24 N          31.0015    0.8810   -7.2795 N.am      2 SEC2        0.0000 
     25 N          31.7610   -0.5410   -6.6320 N.am     10 SEL2        0.0000 
     26 N          30.2420    2.3030   -7.9270 N.am      6 SEP2        0.0000 
     27 NZ         31.6765    1.9435   -7.2285 N.4       3 LYC4        0.0000 
     28 NZ         33.1110    1.5840   -6.5300 N.4      11 LYL4        0.0000 
     29 NZ         30.7970    2.8380   -9.0040 N.4       7 LYP4        0.0000 
     30 N          32.6180    2.2385   -7.8160 N.am      2 SEC2        0.0000 
     31 N          33.1110    1.5840   -6.5300 N.am     10 SEL2        0.0000 
     32 N          32.1250    2.8930   -9.1020 N.am      6 SEP2        0.0000 
     33 N          31.6765    1.9435   -7.2285 N.am      2 SEC2        0.0000 
     34 N          35.5925   -0.1610   -7.4630 N.am      2 SEC2        0.0000 
     35 N          34.3150   -0.6150   -6.9110 N.am     10 SEL2        0.0000 
     36 N          36.8700    0.2930   -8.0150 N.am      6 SEP2        0.0000 
     37 CA         34.7830   -0.3265   -4.6655 C.3       4 GLC5        0.0000 
     38 CA         32.9800   -1.4500   -4.2010 C.3      12 GLL5        0.0000 
     39 CA         36.5860    0.7970   -5.1300 C.3       8 GLP5        0.0000 
     40 CA         31.1445   -2.6540   -4.4555 C.3       4 GLC5        0.0000 
     41 CA         29.3090   -3.8580   -4.7100 C.3       8 GLP5        0.0000 
     42 CA         34.4175   -2.2110    0.0635 C.3       4 GLC5        0.0000 
     43 CA         33.5610   -0.6060   -0.6850 C.3      12 GLL5        0.0000 
     44 CA         35.2740   -3.8160    0.8120 C.3       8 GLP5        0.0000 
     45 CA         35.2215   -1.5875    0.7735 C.3       4 GLC5        0.0000 
     46 CA         35.1690    0.6410    0.7350 C.3      12 GLL5        0.0000 
     47 O          37.1165   -0.5015    1.8045 O.2       1 ALC1        0.0000 
     48 O          37.1650    0.6330    2.7380 O.2       9 ALL1        0.0000 
     49 O          37.0680   -1.6360    0.8710 O.2       5 ALP1        0.0000 
     50 O          38.1910    0.7670    3.6945 O.2       1 ALC1        0.0000 
     51 O          39.2170    0.9010    4.6510 O.2       5 ALP1        0.0000 
     52 CA         35.1180    4.2750   -2.4410 C.3       4 GLC5        0.0000 
     53 CA         35.0130    2.8630   -0.9600 C.3      12 GLL5        0.0000 
     54 CA         35.2230    5.6870   -3.9220 C.3       8 GLP5        0.0000 
     55 NZ         30.1710   -4.0670  -13.8445 N.4       3 LYC4        0.0000 
     56 NZ         29.2890   -5.0610  -12.3500 N.4      11 LYL4        0.0000 
     57 NZ         31.0530   -3.0730  -15.3390 N.4       7 LYP4        0.0000 
     58 NZ         27.0565   -7.5235  -10.2165 N.4       3 LYC4        0.0000 
     59 NZ         27.6920   -6.1400  -10.6530 N.4      11 LYL4        0.0000 
     60 NZ         25.2720   -8.4520   -9.2960 N.4       7 LYP4        0.0000 
     61 N          27.0565   -7.5235  -10.2165 N.am      2 SEC2        0.0000 
     62 N          27.6920   -6.1400  -10.6530 N.am     10 SEL2        0.0000 
     63 N          26.4210   -8.9070   -9.7800 N.am      6 SEP2        0.0000 
     64 N          26.2445   -6.7085  -10.1720 N.am      2 SEC2        0.0000 
     65 N          24.7970   -7.2770   -9.6910 N.am      6 SEP2        0.0000 
     66 CA         33.3775   -3.6982   -9.6914 C.3       4 GLC5        0.0000 
     67 CA         34.6020   -2.7370  -10.4690 C.3       8 GLP5        0.0000 
     68 CA         31.4838   -8.7870   -5.9883 C.3       4 GLC5        0.0000 
     69 CA         29.2930   -9.5020   -6.7450 C.3      12 GLL5        0.0000 
     70 CA         29.1825  -10.0255   -4.6997 C.3       4 GLC5        0.0000 
     71 CA         29.1180   -9.8680   -2.8000 C.3       8 GLP5        0.0000 
     72 CA         29.1268   -9.9842   -8.4319 C.3       4 GLC5        0.0000 
     73 CA         31.0155   -2.5533   -2.4068 C.3       4 GLC5        0.0000 
     74 CA         32.7870   -1.4140   -2.6850 C.3      12 GLL5        0.0000 
     75 CA         29.7410   -4.2290   -2.3470 C.3       8 GLP5        0.0000 
     76 CA         32.0242    1.4765   -2.2317 C.3       4 GLC5        0.0000 
     77 CA         31.7930   -0.3410   -2.2480 C.3      12 GLL5        0.0000 
     78 CA         32.1270    3.3030   -2.9680 C.3       8 GLP5        0.0000 
     79 CA         30.2707    0.7505   -1.2717 C.3       4 GLC5        0.0000 
     80 CA         28.6200    1.8510   -1.0480 C.3       8 GLP5        0.0000 
     81 CA         37.2617    1.4617   -0.1968 C.3       4 GLC5        0.0000 
     82 CA         38.9720    1.7170   -1.2600 C.3       8 GLP5        0.0000 
     83 CA         37.2022    2.2920   -0.8325 C.3       4 GLC5        0.0000 
     84 CA         35.8520    2.8710    0.1500 C.3      12 GLL5        0.0000 
     85 CA         33.3757    2.8025   -2.0305 C.3       4 GLC5        0.0000 
@<TRIPOS>BOND
@<TRIPOS>SUBSTRUCTURE
     1 ALC1       10 GROUP        1 X    ALC  0     ROOT ALC X 1
     2 SEC2        1 GROUP        1 X    SEC  0     **** SEC X 2
     3 LYC4       27 GROUP        1 X    LYC  0     **** LYC X 4
     4 GLC5        4 GROUP        1 X    GLC  0     **** GLC X 6
     5 ALP1       12 GROUP        1 Y    ALP  0     ROOT ALP Y 8
     6 SEP2        3 GROUP        1 Y    SEP  0     **** SEP Y 9
     7 LYP4       29 GROUP        1 Y    LYP  0     **** LYP Y 11
     8 GLP5        6 GROUP        1 Y    GLP  0     **** GLP Y 13
     9 ALL1       11 GROUP        1 Z    ALL  0     ROOT ALL Z 15
    10 SEL2        2 GROUP        1 Z    SEL  0     **** SEL Z 16
    11 LYL4       28 GROUP        1 Z    LYL  0     **** LYL Z 18
    12 GLL5        5 GROUP        1 Z    GLL  0     **** GLL Z 20
@<TRIPOS>SET

