#    Name: 2dbz_NAP_1_ligand
#    Modification time : Tue Mar 25 09:58:49 2014

@<TRIPOS>MOLECULE
2dbz_NAP_1_ligand
   73    77     1     0     0
SMALL
NO_CHARGES


@<TRIPOS>ATOM
      1 PA         31.3810   -1.2780   -8.0170 P.3       1 NAP401      0.0000 
      2 O1A        29.9420   -1.0110   -8.2300 O.co2     1 NAP401      0.0000 
      3 O2A        32.3240   -0.8610   -9.0790 O.co2     1 NAP401      0.0000 
      4 O5B        31.5120   -2.8540   -7.6930 O.3       1 NAP401      0.0000 
      5 C5B        32.7300   -3.5850   -7.8570 C.3       1 NAP401      0.0000 
      6 C4B        32.4860   -5.0010   -8.3900 C.3       1 NAP401      0.0000 
      7 O4B        31.7840   -5.8740   -7.4870 O.3       1 NAP401      0.0000 
      8 C3B        31.6980   -5.0260   -9.7040 C.3       1 NAP401      0.0000 
      9 O3B        32.5330   -5.5640  -10.7320 O.3       1 NAP401      0.0000 
     10 C2B        30.5470   -5.9860   -9.3980 C.3       1 NAP401      0.0000 
     11 O2B        30.1980   -6.7440  -10.5630 O.3       1 NAP401      0.0000 
     12 C1B        31.2220   -6.8740   -8.3530 C.3       1 NAP401      0.0000 
     13 N9A        30.2620   -7.7520   -7.6390 N.pl3     1 NAP401      0.0000 
     14 C8A        29.1150   -7.3870   -7.0650 C.2       1 NAP401      0.0000 
     15 N7A        28.5200   -8.4470   -6.5200 N.2       1 NAP401      0.0000 
     16 C5A        29.2930   -9.5020   -6.7450 C.ar      1 NAP401      0.0000 
     17 C6A        29.2010  -10.8640   -6.4540 C.ar      1 NAP401      0.0000 
     18 N6A        28.1610  -11.3460   -5.7820 N.pl3     1 NAP401      0.0000 
     19 N1A        30.1770  -11.6830   -6.8650 N.ar      1 NAP401      0.0000 
     20 C2A        31.2220  -11.2300   -7.5390 C.ar      1 NAP401      0.0000 
     21 N3A        31.3390   -9.9460   -7.8340 N.ar      1 NAP401      0.0000 
     22 C4A        30.4020   -9.0640   -7.4560 C.ar      1 NAP401      0.0000 
     23 O3         31.7610   -0.5410   -6.6320 O.3       1 NAP401      0.0000 
     24 PN         33.1940    0.1220   -6.2940 P.3       1 NAP401      0.0000 
     25 O1N        33.1110    1.5840   -6.5300 O.co2     1 NAP401      0.0000 
     26 O2N        34.3150   -0.6150   -6.9110 O.co2     1 NAP401      0.0000 
     27 O5D        33.2530   -0.1400   -4.7060 O.3       1 NAP401      0.0000 
     28 C5D        32.9800   -1.4500   -4.2010 C.3       1 NAP401      0.0000 
     29 C4D        32.7870   -1.4140   -2.6850 C.3       1 NAP401      0.0000 
     30 O4D        33.9840   -1.0210   -1.9990 O.3       1 NAP401      0.0000 
     31 C3D        31.7930   -0.3410   -2.2480 C.3       1 NAP401      0.0000 
     32 O3D        30.4560   -0.7680   -2.5150 O.3       1 NAP401      0.0000 
     33 C2D        32.0500   -0.3590   -0.7430 C.3       1 NAP401      0.0000 
     34 O2D        31.3630   -1.4480   -0.1200 O.3       1 NAP401      0.0000 
     35 C1D        33.5610   -0.6060   -0.6850 C.3       1 NAP401      0.0000 
     36 N1N        34.3180    0.6280   -0.3780 N.pl3     1 NAP401      0.0000 
     37 C2N        35.1690    0.6410    0.7350 C.ar      1 NAP401      0.0000 
     38 C3N        35.9340    1.7720    0.9980 C.ar      1 NAP401      0.0000 
     39 C7N        36.8240    1.8180    2.2400 C.2       1 NAP401      0.0000 
     40 O7N        37.1490    2.8960    2.7380 O.2       1 NAP401      0.0000 
     41 N7N        37.1650    0.6330    2.7380 N.am      1 NAP401      0.0000 
     42 C4N        35.8520    2.8710    0.1500 C.ar      1 NAP401      0.0000 
     43 C5N        35.0130    2.8630   -0.9600 C.ar      1 NAP401      0.0000 
     44 C6N        34.2360    1.7410   -1.2260 C.ar      1 NAP401      0.0000 
     45 P2B        28.9150   -6.3500  -11.4590 P.3       1 NAP401      0.0000 
     46 O1X        29.2890   -5.0610  -12.3500 O.co2     1 NAP401      0.0000 
     47 O2X        28.7270   -7.5660  -12.4970 O.co2     1 NAP401      0.0000 
     48 O3X        27.6920   -6.1400  -10.6530 O.co2     1 NAP401      0.0000 
     49 H          33.2771   -3.6808   -6.9013 H         1 NAP401      0.0000 
     50 H          33.4145   -3.0792   -8.5624 H         1 NAP401      0.0000 
     51 H          33.4731   -5.4505   -8.6248 H         1 NAP401      0.0000 
     52 H          31.3213   -4.0778   -9.8941 H         1 NAP401      0.0000 
     53 H          29.7770   -5.4594   -8.9506 H         1 NAP401      0.0000 
     54 H          31.9894   -7.4197   -8.8376 H         1 NAP401      0.0000 
     55 H          28.7614   -6.4707   -7.0471 H         1 NAP401      0.0000 
     56 H          27.4972  -10.6727   -5.4564 H         1 NAP401      0.0000 
     57 H          28.1360  -12.3385   -5.6625 H         1 NAP401      0.0000 
     58 H          31.9754  -11.9058   -7.8465 H         1 NAP401      0.0000 
     59 H          33.8026   -2.1470   -4.4164 H         1 NAP401      0.0000 
     60 H          32.0668   -1.8730   -4.6439 H         1 NAP401      0.0000 
     61 H          32.4365   -2.3539   -2.3286 H         1 NAP401      0.0000 
     62 H          32.0717    0.5673   -2.6339 H         1 NAP401      0.0000 
     63 H          31.8468    0.5801   -0.3459 H         1 NAP401      0.0000 
     64 H          33.7667   -1.3611    0.0311 H         1 NAP401      0.0000 
     65 H          35.2237   -0.1772    1.3462 H         1 NAP401      0.0000 
     66 H          36.8367   -0.1666    2.2352 H         1 NAP401      0.0000 
     67 H          37.7190    0.6484    3.5704 H         1 NAP401      0.0000 
     68 H          36.4257    3.7110    0.3479 H         1 NAP401      0.0000 
     69 H          34.9683    3.6801   -1.5781 H         1 NAP401      0.0000 
     70 H          33.6078    1.7230   -2.0331 H         1 NAP401      0.0000 
     71 H          32.4837   -6.5556  -10.6127 H         1 NAP401      0.0000 
     72 H          30.1288   -1.1495   -1.6505 H         1 NAP401      0.0000 
     73 H          31.3186   -1.2053    0.8491 H         1 NAP401      0.0000 
@<TRIPOS>BOND
     1    2    1 ar   
     2    3    1 ar   
     3    4    1 1    
     4   23    1 1    
     5    5    4 1    
     6    6    5 1    
     7   49    5 1    
     8   50    5 1    
     9    7    6 1    
    10    8    6 1    
    11   51    6 1    
    12   12    7 1    
    13    9    8 1    
    14   10    8 1    
    15   52    8 1    
    16   71    9 1    
    17   11   10 1    
    18   12   10 1    
    19   53   10 1    
    20   45   11 1    
    21   13   12 1    
    22   54   12 1    
    23   14   13 1    
    24   22   13 1    
    25   15   14 2    
    26   55   14 1    
    27   16   15 1    
    28   17   16 ar   
    29   22   16 ar   
    30   18   17 1    
    31   19   17 ar   
    32   56   18 1    
    33   57   18 1    
    34   20   19 ar   
    35   21   20 ar   
    36   58   20 1    
    37   22   21 ar   
    38   24   23 1    
    39   25   24 ar   
    40   26   24 ar   
    41   27   24 1    
    42   28   27 1    
    43   29   28 1    
    44   59   28 1    
    45   60   28 1    
    46   30   29 1    
    47   31   29 1    
    48   61   29 1    
    49   35   30 1    
    50   32   31 1    
    51   33   31 1    
    52   62   31 1    
    53   72   32 1    
    54   34   33 1    
    55   35   33 1    
    56   63   33 1    
    57   73   34 1    
    58   36   35 1    
    59   64   35 1    
    60   37   36 ar   
    61   44   36 ar   
    62   38   37 ar   
    63   65   37 1    
    64   39   38 1    
    65   42   38 ar   
    66   40   39 2    
    67   41   39 am   
    68   66   41 1    
    69   67   41 1    
    70   43   42 ar   
    71   68   42 1    
    72   44   43 ar   
    73   69   43 1    
    74   70   44 1    
    75   46   45 ar   
    76   47   45 ar   
    77   48   45 ar   
@<TRIPOS>SUBSTRUCTURE
     1 NAP401      1 GROUP   
@<TRIPOS>SET

