#    Name: 3VER_1_CAVITY_N1_ALL.mol2
#    Modification time : Tue Mar 11 11:07:38 2014

@<TRIPOS>MOLECULE
3VER_1_CAVITY_N1_ALL.mol2
   79     0     5     0     0
SMALL
NO_CHARGES


@<TRIPOS>ATOM
      1 N          31.2326   40.2094    4.7256 N.2       2 ALA2        0.0000 
      2 CA         29.7419   40.7401    3.3127 C.3       4 GLY6        0.0000 
      3 CA         28.9910   40.0106    2.2385 C.3       4 GLY6        0.0000 
      4 OG         28.2513   41.2707    1.8998 O.2       1 SER1        0.0000 
      5 CA         27.5003   40.5412    0.8256 C.3       4 GLY6        0.0000 
      6 N          32.3958   38.0584    7.4679 N.2       2 ALA2        0.0000 
      7 O          31.6561   39.3186    7.1292 O.2       2 ALA2        0.0000 
      8 N          30.9052   38.5891    6.0550 N.2       2 ALA2        0.0000 
      9 CA         30.1654   39.8492    5.7163 C.3       4 GLY6        0.0000 
     10 CA         29.4257   41.1094    5.3775 C.3       4 GLY6        0.0000 
     11 CA         30.1542   37.8595    4.9808 C.3       4 GLY6        0.0000 
     12 CA         29.4145   39.1197    4.6421 C.3       4 GLY6        0.0000 
     13 CA         28.6748   40.3799    4.3033 C.3       4 GLY6        0.0000 
     14 CA         30.1430   35.8698    4.2453 C.3       4 GLY6        0.0000 
     15 CA         29.4033   37.1300    3.9066 C.3       4 GLY6        0.0000 
     16 CA         28.6635   38.3902    3.5679 C.3       4 GLY6        0.0000 
     17 CA         27.9238   39.6504    3.2292 C.3       4 GLY6        0.0000 
     18 CA         27.1841   40.9106    2.8904 C.3       4 GLY6        0.0000 
     19 CA         29.3921   35.1403    3.1711 C.3       4 GLY6        0.0000 
     20 CA         28.6523   36.4005    2.8324 C.3       4 GLY6        0.0000 
     21 CA         27.9126   37.6607    2.4937 C.3       4 GLY6        0.0000 
     22 CA         27.1729   38.9209    2.1550 C.3       4 GLY6        0.0000 
     23 OG         26.4332   40.1811    1.8162 O.2       1 SER1        0.0000 
     24 OG         26.4219   38.1913    1.0808 O.2       1 SER1        0.0000 
     25 OG         32.0796   38.4277    9.5327 O.2       1 SER1        0.0000 
     26 CA         31.3398   39.6879    9.1940 C.3       4 GLY6        0.0000 
     27 O          31.3286   37.6982    8.4585 O.2       2 ALA2        0.0000 
     28 CA         30.5889   38.9584    8.1198 C.3       4 GLY6        0.0000 
     29 CA         29.8492   40.2186    7.7811 C.3       4 GLY6        0.0000 
     30 N          30.5777   36.9687    7.3843 N.2       2 ALA2        0.0000 
     31 O          29.8380   38.2289    7.0456 O.2       2 ALA2        0.0000 
     32 O          29.0982   39.4891    6.7069 O.2       2 ALA2        0.0000 
     33 O          30.5665   34.9790    6.6489 O.2       2 ALA2        0.0000 
     34 N          29.8268   36.2392    6.3101 N.2       2 ALA2        0.0000 
     35 O          29.0870   37.4994    5.9714 O.2       2 ALA2        0.0000 
     36 O          28.3473   38.7596    5.6327 O.2       2 ALA2        0.0000 
     37 O          29.8155   34.2495    5.5747 O.2       2 ALA2        0.0000 
     38 DU         29.0758   35.5097    5.2359 H         5 CUB7        0.0000 
     39 O          28.3361   36.7698    4.8972 O.2       2 ALA2        0.0000 
     40 O          27.5964   38.0300    4.5585 O.2       2 ALA2        0.0000 
     41 O          26.8566   39.2902    4.2198 O.2       2 ALA2        0.0000 
     42 O          29.0646   33.5199    4.5005 O.2       2 ALA2        0.0000 
     43 N          28.3249   34.7801    4.1618 N.2       2 ALA2        0.0000 
     44 CA         27.5851   36.0403    3.8230 C.3       4 GLY6        0.0000 
     45 CA         26.8454   37.3005    3.4843 C.3       4 GLY6        0.0000 
     46 CA         26.1057   38.5607    3.1456 C.3       4 GLY6        0.0000 
     47 O          26.0945   36.5710    2.4101 O.2       2 ALA2        0.0000 
     48 OG         25.3548   37.8312    2.0714 O.2       1 SER1        0.0000 
     49 N          31.7633   38.7971   11.5976 N.2       2 ALA2        0.0000 
     50 O          31.7521   36.8074   10.8621 O.2       2 ALA2        0.0000 
     51 O          31.0124   38.0676   10.5234 O.2       2 ALA2        0.0000 
     52 CA         30.2726   39.3278   10.1846 C.3       4 GLY6        0.0000 
     53 O          31.0012   36.0779    9.7879 O.2       2 ALA2        0.0000 
     54 O          30.2614   37.3380    9.4492 O.2       2 ALA2        0.0000 
     55 O          29.5217   38.5982    9.1105 O.2       2 ALA2        0.0000 
     56 O          28.7820   39.8584    8.7717 O.2       2 ALA2        0.0000 
     57 O          30.2502   35.3483    8.7137 O.2       2 ALA2        0.0000 
     58 O          29.5105   36.6085    8.3750 O.2       2 ALA2        0.0000 
     59 O          28.7708   37.8687    8.0363 O.2       2 ALA2        0.0000 
     60 O          29.4993   34.6188    7.6395 O.2       2 ALA2        0.0000 
     61 O          28.7596   35.8790    7.3008 O.2       2 ALA2        0.0000 
     62 O          28.0198   37.1392    6.9621 O.2       2 ALA2        0.0000 
     63 O          28.7484   33.8893    6.5653 O.2       2 ALA2        0.0000 
     64 N          28.0086   35.1495    6.2266 N.2       2 ALA2        0.0000 
     65 O          27.2689   36.4097    5.8879 O.2       2 ALA2        0.0000 
     66 N          26.5180   35.6801    4.8137 N.2       2 ALA2        0.0000 
     67 O          30.6849   36.4472   11.8527 O.2       2 ALA2        0.0000 
     68 O          30.6737   34.4575   11.1172 O.2       2 ALA2        0.0000 
     69 O          29.9340   35.7177   10.7785 O.2       2 ALA2        0.0000 
     70 O          29.9228   33.7280   10.0431 O.2       2 ALA2        0.0000 
     71 O          29.1830   34.9882    9.7043 O.2       2 ALA2        0.0000 
     72 O          28.4433   36.2484    9.3656 O.2       2 ALA2        0.0000 
     73 OD1        27.7036   37.5085    9.0269 O.3       3 ASP3        0.0000 
     74 O          28.4321   34.2586    8.6301 O.2       2 ALA2        0.0000 
     75 O          27.6924   35.5188    8.2914 O.2       2 ALA2        0.0000 
     76 O          26.9414   34.7893    7.2172 O.2       2 ALA2        0.0000 
     77 OG         30.3575   34.8269   13.1821 O.2       1 SER1        0.0000 
     78 O          29.6065   34.0973   12.1079 O.2       2 ALA2        0.0000 
     79 CA         25.8742   34.4291    8.2079 C.3       4 GLY6        0.0000 
@<TRIPOS>BOND
@<TRIPOS>SUBSTRUCTURE
     1 SER1        4 GROUP   
     2 ALA2        1 GROUP   
     3 ASP3       73 GROUP   
     4 GLY6        2 GROUP   
     5 CUB7       38 GROUP   
@<TRIPOS>SET

