#    Name: 3ver_CA0_1_INTS_M
#    Modification time : Tue Mar 25 00:41:22 2014

@<TRIPOS>MOLECULE
3ver_CA0_1_INTS_M
   55     0    12     0     0
SMALL
NO_CHARGES


@<TRIPOS>ATOM
      1 CA         25.4560   38.0130    3.6085 C.3       4 GLC5        0.0000 
      2 CA         26.9930   39.1390    2.4700 C.3      12 GLL5        0.0000 
      3 CA         23.9190   36.8870    4.7470 C.3       8 GLP5        0.0000 
      4 CA         29.1100   38.4945    2.3355 C.3       4 GLC5        0.0000 
      5 CA         31.2270   37.8500    2.2010 C.3       8 GLP5        0.0000 
      6 CA         26.0755   40.9450    2.9775 C.3       4 GLC5        0.0000 
      7 CA         25.1580   42.7510    3.4850 C.3       8 GLP5        0.0000 
      8 CA         28.0335   39.1185    0.7415 C.3       4 GLC5        0.0000 
      9 CA         29.0740   39.0980   -0.9870 C.3       8 GLP5        0.0000 
     10 CA         26.8360   41.8425    3.0235 C.3       4 GLC5        0.0000 
     11 CA         28.5140   40.9340    2.5620 C.3      12 GLL5        0.0000 
     12 CA         29.6015   41.0275    0.9205 C.3       4 GLC5        0.0000 
     13 CA         30.6890   41.1210   -0.7210 C.3       8 GLP5        0.0000 
     14 O          28.2425   42.6210    0.7860 O.2       1 ALC1        0.0000 
     15 O          28.9650   42.1220    2.0830 O.2       9 ALL1        0.0000 
     16 O          27.5200   43.1200   -0.5110 O.2       5 ALP1        0.0000 
     17 N          32.1710   34.8450   10.7810 N.am      2 SEC2        0.0000 
     18 N          31.3580   36.0320   11.3330 N.am     10 SEL2        0.0000 
     19 N          32.9840   33.6580   10.2290 N.am      6 SEP2        0.0000 
     20 N          30.5990   35.4975   12.0960 N.am      2 SEC2        0.0000 
     21 N          29.8400   34.9630   12.8590 N.am      6 SEP2        0.0000 
     22 N          28.8595   38.0365   12.2890 N.am      2 SEC2        0.0000 
     23 N          30.2200   38.4260   12.7580 N.am     10 SEL2        0.0000 
     24 N          27.4990   37.6470   11.8200 N.am      6 SEP2        0.0000 
     25 N          29.9990   38.7005   14.2945 N.am      2 SEC2        0.0000 
     26 N          29.7780   38.9750   15.8310 N.am      6 SEP2        0.0000 
     27 N          30.0300   36.6945   12.8085 N.am      2 SEC2        0.0000 
     28 O          32.0015   36.6405    4.9565 O.2       1 ALC1        0.0000 
     29 O          30.8850   35.8240    5.1210 O.2       9 ALL1        0.0000 
     30 O          33.1180   37.4570    4.7920 O.2       5 ALP1        0.0000 
     31 NZ         33.1980   35.8910    8.8805 N.4       3 LYC4        0.0000 
     32 NZ         32.9010   37.1230    9.5490 N.4      11 LYL4        0.0000 
     33 NZ         33.5750   33.6150    9.0380 N.4       7 LYP4        0.0000 
     34 N          34.0610   36.9305   10.1725 N.am      2 SEC2        0.0000 
     35 N          32.9010   37.1230    9.5490 N.am     10 SEL2        0.0000 
     36 N          35.2210   36.7380   10.7960 N.am      6 SEP2        0.0000 
     37 N          33.1980   35.8910    8.8805 N.am      2 SEC2        0.0000 
     38 N          33.4950   34.6590    8.2120 N.am      6 SEP2        0.0000 
     39 O          31.1120   40.8800   14.1250 O.2       1 ALC1        0.0000 
     40 O          31.6040   40.1910   12.9310 O.2       9 ALL1        0.0000 
     41 O          30.6200   41.5690   15.3190 O.2       5 ALP1        0.0000 
     42 O          32.7485   40.7220   12.2900 O.2       1 ALC1        0.0000 
     43 O          33.8930   41.2530   11.6490 O.2       5 ALP1        0.0000 
     44 N          30.3365   33.3165    6.9550 N.am      2 SEC2        0.0000 
     45 N          29.5200   34.4550    7.0320 N.am     10 SEL2        0.0000 
     46 N          31.1530   32.1780    6.8780 N.am      6 SEP2        0.0000 
     47 CA         28.1235   37.9980   10.6750 C.3       4 GLC5        0.0000 
     48 CA         29.2440   36.9760    9.5710 C.3      12 GLL5        0.0000 
     49 CA         27.0030   39.0200   11.7790 C.3       8 GLP5        0.0000 
     50 CA         29.9672   39.0636    2.7281 C.3       4 GLC5        0.0000 
     51 CA         28.6240   38.9770    4.1760 C.3      12 GLL5        0.0000 
     52 CA         28.2747   41.5631    4.7441 C.3       4 GLC5        0.0000 
     53 CA         27.8420   42.8490    6.2330 C.3       8 GLP5        0.0000 
     54 CA         30.5260   37.3965    4.1623 C.3       4 GLC5        0.0000 
     55 CA         29.1850   37.3320    5.9890 C.3      12 GLL5        0.0000 
@<TRIPOS>BOND
@<TRIPOS>SUBSTRUCTURE
     1 ALC1       14 GROUP        1 X    ALC  0     ROOT ALC X 1
     2 SEC2       17 GROUP        1 X    SEC  0     **** SEC X 2
     3 LYC4       31 GROUP        1 X    LYC  0     **** LYC X 4
     4 GLC5        1 GROUP        1 X    GLC  0     **** GLC X 6
     5 ALP1       16 GROUP        1 Y    ALP  0     ROOT ALP Y 8
     6 SEP2       19 GROUP        1 Y    SEP  0     **** SEP Y 9
     7 LYP4       33 GROUP        1 Y    LYP  0     **** LYP Y 11
     8 GLP5        3 GROUP        1 Y    GLP  0     **** GLP Y 13
     9 ALL1       15 GROUP        1 Z    ALL  0     ROOT ALL Z 15
    10 SEL2       18 GROUP        1 Z    SEL  0     **** SEL Z 16
    11 LYL4       32 GROUP        1 Z    LYL  0     **** LYL Z 18
    12 GLL5        2 GROUP        1 Z    GLL  0     **** GLL Z 20
@<TRIPOS>SET

