#    Name: 3ver_CA0_1_ligand
#    Modification time : Tue Mar 25 00:41:22 2014

@<TRIPOS>MOLECULE
3ver_CA0_1_ligand
   40    42     1     0     0
SMALL
NO_CHARGES


@<TRIPOS>ATOM
      1 N1         27.4430   40.3200    1.9980 N.ar      1 CA0603      0.0000 
      2 C2         26.9930   39.1390    2.4700 C.ar      1 CA0603      0.0000 
      3 N3         27.5440   38.4810    3.5120 N.ar      1 CA0603      0.0000 
      4 C4         28.6240   38.9770    4.1760 C.ar      1 CA0603      0.0000 
      5 C5         29.1780   40.2640    3.7210 C.ar      1 CA0603      0.0000 
      6 C6         28.5140   40.9340    2.5620 C.ar      1 CA0603      0.0000 
      7 N6         28.9650   42.1220    2.0830 N.pl3     1 CA0603      0.0000 
      8 N7         30.2200   40.5320    4.5300 N.2       1 CA0603      0.0000 
      9 C8         30.3330   39.5070    5.4170 C.2       1 CA0603      0.0000 
     10 N9         29.3740   38.5750    5.2210 N.pl3     1 CA0603      0.0000 
     11 PA         31.7040   37.2060   10.4720 P.3       1 CA0603      0.0000 
     12 CB         31.2400   39.0110   12.4260 C.2       1 CA0603      0.0000 
     13 C1'        29.1850   37.3320    5.9890 C.3       1 CA0603      0.0000 
     14 O1A        31.3580   36.0320   11.3330 O.co2     1 CA0603      0.0000 
     15 O1B        30.2200   38.4260   12.7580 O.2       1 CA0603      0.0000 
     16 C2'        30.4650   36.5540    6.2580 C.3       1 CA0603      0.0000 
     17 O2'        30.8850   35.8240    5.1210 O.3       1 CA0603      0.0000 
     18 O2A        32.9010   37.1230    9.5490 O.co2     1 CA0603      0.0000 
     19 N2B        31.6040   40.1910   12.9310 N.am      1 CA0603      0.0000 
     20 C3'        30.0660   35.6940    7.4760 C.3       1 CA0603      0.0000 
     21 O3'        29.5200   34.4550    7.0320 O.3       1 CA0603      0.0000 
     22 O3A        32.1320   38.3770   11.4820 O.3       1 CA0603      0.0000 
     23 C4'        28.9570   36.5110    8.1520 C.3       1 CA0603      0.0000 
     24 O4'        28.6860   37.6440    7.2730 O.3       1 CA0603      0.0000 
     25 C5'        29.2440   36.9760    9.5710 C.3       1 CA0603      0.0000 
     26 O5'        30.4320   37.7440    9.6730 O.3       1 CA0603      0.0000 
     27 H          26.1463   38.6958    1.9885 H         1 CA0603      0.0000 
     28 H          28.4701   42.4968    1.2990 H         1 CA0603      0.0000 
     29 H          29.7522   42.5171    2.5566 H         1 CA0603      0.0000 
     30 H          31.0266   39.4550    6.1115 H         1 CA0603      0.0000 
     31 H          28.4987   36.6705    5.4801 H         1 CA0603      0.0000 
     32 H          31.1926   37.2712    6.6096 H         1 CA0603      0.0000 
     33 H          30.9820   40.5927   13.6031 H         1 CA0603      0.0000 
     34 H          32.4661   40.5676   12.5920 H         1 CA0603      0.0000 
     35 H          30.8760   35.6137    8.1198 H         1 CA0603      0.0000 
     36 H          28.0559   35.8746    8.1678 H         1 CA0603      0.0000 
     37 H          29.2878   36.0709   10.2152 H         1 CA0603      0.0000 
     38 H          28.3574   37.5496    9.9188 H         1 CA0603      0.0000 
     39 H          31.7380   36.2601    4.8342 H         1 CA0603      0.0000 
     40 H          29.7775   34.3895    6.0680 H         1 CA0603      0.0000 
@<TRIPOS>BOND
     1    2    1 ar   
     2    6    1 ar   
     3    3    2 ar   
     4   27    2 1    
     5    4    3 ar   
     6    5    4 ar   
     7   10    4 1    
     8    6    5 ar   
     9    8    5 1    
    10    7    6 1    
    11   28    7 1    
    12   29    7 1    
    13    9    8 2    
    14   10    9 1    
    15   30    9 1    
    16   13   10 1    
    17   14   11 ar   
    18   18   11 ar   
    19   22   11 1    
    20   26   11 1    
    21   15   12 2    
    22   19   12 am   
    23   22   12 1    
    24   16   13 1    
    25   24   13 1    
    26   31   13 1    
    27   17   16 1    
    28   20   16 1    
    29   32   16 1    
    30   39   17 1    
    31   33   19 1    
    32   34   19 1    
    33   21   20 1    
    34   23   20 1    
    35   35   20 1    
    36   40   21 1    
    37   24   23 1    
    38   25   23 1    
    39   36   23 1    
    40   26   25 1    
    41   37   25 1    
    42   38   25 1    
@<TRIPOS>SUBSTRUCTURE
     1 CA0603      1 GROUP   
@<TRIPOS>SET

