#    Name: 2ive_TWN_3_INTS_M
#    Modification time : Tue Mar 25 18:43:10 2014

@<TRIPOS>MOLECULE
2ive_TWN_3_INTS_M
   65     0     3     0     0
SMALL
NO_CHARGES


@<TRIPOS>ATOM
      1 CA        100.5585   26.6700   82.0235 C.3       1 GLC5        0.0000 
      2 CA         99.6120   26.4860   80.7060 C.3       3 GLL5        0.0000 
      3 CA        101.5050   26.8540   83.3410 C.3       2 GLP5        0.0000 
      4 CA        101.1665   24.9355   79.1135 C.3       1 GLC5        0.0000 
      5 CA         99.7670   26.4620   79.2030 C.3       3 GLL5        0.0000 
      6 CA        102.5660   23.4090   79.0240 C.3       2 GLP5        0.0000 
      7 CA        101.8125   26.7015   78.8795 C.3       1 GLC5        0.0000 
      8 CA        103.8580   26.9410   78.5560 C.3       2 GLP5        0.0000 
      9 CA         96.1940   26.1110   79.8925 C.3       1 GLC5        0.0000 
     10 CA         97.5330   27.5430   79.3860 C.3       3 GLL5        0.0000 
     11 CA         94.8550   24.6790   80.3990 C.3       2 GLP5        0.0000 
     12 CA         99.8375   28.1925   74.4590 C.3       1 GLC5        0.0000 
     13 CA         98.1710   27.5310   75.0040 C.3       3 GLL5        0.0000 
     14 CA        101.5040   28.8540   73.9140 C.3       2 GLP5        0.0000 
     15 CA         99.7775   26.3025   74.5150 C.3       1 GLC5        0.0000 
     16 CA        101.3840   25.0740   74.0260 C.3       2 GLP5        0.0000 
     17 CA         97.9345   25.5015   75.9200 C.3       1 GLC5        0.0000 
     18 CA         97.6980   23.4720   76.8360 C.3       2 GLP5        0.0000 
     19 CA         94.7925   27.8950   73.1905 C.3       1 GLC5        0.0000 
     20 CA         95.6240   27.5240   74.9920 C.3       3 GLL5        0.0000 
     21 CA         93.9610   28.2660   71.3890 C.3       2 GLP5        0.0000 
     22 CA         99.7445   26.2010   83.4825 C.3       1 GLC5        0.0000 
     23 CA         97.9840   25.5480   83.6240 C.3       3 GLL5        0.0000 
     24 CA         96.5925   24.0515   85.3990 C.3       1 GLC5        0.0000 
     25 CA         96.6790   25.8140   84.3620 C.3       3 GLL5        0.0000 
     26 CA         96.5060   22.2890   86.4360 C.3       2 GLP5        0.0000 
     27 CA         96.9090   28.6990   86.0285 C.3       1 GLC5        0.0000 
     28 CA         96.6230   27.2080   84.9600 C.3       3 GLL5        0.0000 
     29 CA         97.1950   30.1900   87.0970 C.3       2 GLP5        0.0000 
     30 CA         90.7555   28.4630   86.5435 C.3       1 GLC5        0.0000 
     31 CA         91.9190   29.0460   84.7190 C.3       3 GLL5        0.0000 
     32 CA         89.5920   27.8800   88.3680 C.3       2 GLP5        0.0000 
     33 CA         98.7407   24.9510   79.1527 C.3       1 GLC5        0.0000 
     34 CA         97.7920   23.4280   78.3510 C.3       2 GLP5        0.0000 
     35 CA        100.0938   28.4345   79.6298 C.3       1 GLC5        0.0000 
     36 CA        100.4980   30.3950   79.3050 C.3       2 GLP5        0.0000 
     37 CA         97.9845   25.4683   78.6707 C.3       1 GLC5        0.0000 
     38 CA         98.8210   27.4740   78.5950 C.3       3 GLL5        0.0000 
     39 CA         97.7312   25.2482   76.9578 C.3       1 GLC5        0.0000 
     40 CA         97.0200   26.9350   77.0010 C.3       3 GLL5        0.0000 
     41 CA         99.4205   28.8531   78.6896 C.3       1 GLC5        0.0000 
     42 CA         98.5090   27.1140   77.1580 C.3       3 GLL5        0.0000 
     43 CA         96.2600   25.3495   75.8125 C.3       1 GLC5        0.0000 
     44 CA         96.9060   26.8480   75.4880 C.3       3 GLL5        0.0000 
     45 CA         96.2550   23.5130   76.3850 C.3       2 GLP5        0.0000 
     46 CA         96.8406   29.1704   75.1475 C.3       1 GLC5        0.0000 
     47 CA         97.1000   30.9840   75.1760 C.3       2 GLP5        0.0000 
     48 CA         96.9071   29.3344   76.9379 C.3       1 GLC5        0.0000 
     49 CA         96.2120   28.0990   77.5880 C.3       3 GLL5        0.0000 
     50 CA         96.8260   31.1070   76.5420 C.3       2 GLP5        0.0000 
     51 CA         96.1365   26.1500   86.6355 C.3       1 GLC5        0.0000 
     52 CA         95.6220   25.7890   88.6100 C.3       2 GLP5        0.0000 
     53 CA         98.0746   25.7332   85.8852 C.3       1 GLC5        0.0000 
     54 CA         99.1720   25.0220   87.2940 C.3       2 GLP5        0.0000 
     55 CA         95.4450   29.4515   85.7645 C.3       1 GLC5        0.0000 
     56 CA         95.6050   28.0680   84.2260 C.3       3 GLL5        0.0000 
     57 CA         95.9230   30.7200   86.9030 C.3       2 GLP5        0.0000 
     58 CA         92.9042   27.1442   83.6677 C.3       1 GLC5        0.0000 
     59 CA         94.3290   28.2980   85.0260 C.3       3 GLL5        0.0000 
     60 CA         91.9700   25.5780   82.7270 C.3       2 GLP5        0.0000 
     61 CA         92.5919   30.5764   85.2875 C.3       1 GLC5        0.0000 
     62 CA         90.9540   29.6670   83.7030 C.3       3 GLL5        0.0000 
     63 CA         93.3900   31.7770   86.4960 C.3       2 GLP5        0.0000 
     64 CA         90.5706   28.0091   83.2387 C.3       1 GLC5        0.0000 
     65 CA         89.5740   26.3010   83.1600 C.3       2 GLP5        0.0000 
@<TRIPOS>BOND
@<TRIPOS>SUBSTRUCTURE
     1 GLC5        1 GROUP        1 X    GLC  0     ROOT GLC X 6
     2 GLP5        3 GROUP        1 Y    GLP  0     ROOT GLP Y 13
     3 GLL5        2 GROUP        1 Z    GLL  0     ROOT GLL Z 20
@<TRIPOS>SET

