#    Name: 2ive_TWN_3_ligand
#    Modification time : Tue Mar 25 18:43:11 2014

@<TRIPOS>MOLECULE
2ive_TWN_3_ligand
   67    67     1     0     0
SMALL
NO_CHARGES


@<TRIPOS>ATOM
      1 OAG        97.6050   27.4460   82.2560 O.2       1 TWN4003     0.0000 
      2 CAE        98.0060   26.2900   82.3070 C.2       1 TWN4003     0.0000 
      3 OAI        98.4880   25.7020   81.1850 O.3       1 TWN4003     0.0000 
      4 CAJ        99.6120   26.4860   80.7060 C.3       1 TWN4003     0.0000 
      5 CAM        99.7670   26.4620   79.2030 C.3       1 TWN4003     0.0000 
      6 CAH        98.8210   27.4740   78.5950 C.3       1 TWN4003     0.0000 
      7 CAO        97.5330   27.5430   79.3860 C.3       1 TWN4003     0.0000 
      8 CAB        98.5090   27.1140   77.1580 C.3       1 TWN4003     0.0000 
      9 OAA        98.7600   28.0910   76.1810 O.3       1 TWN4003     0.0000 
     10 CAD        98.1710   27.5310   75.0040 C.3       1 TWN4003     0.0000 
     11 CAF        96.9060   26.8480   75.4880 C.3       1 TWN4003     0.0000 
     12 CAN        95.6240   27.5240   74.9920 C.3       1 TWN4003     0.0000 
     13 CAC        97.0200   26.9350   77.0010 C.3       1 TWN4003     0.0000 
     14 CAK        96.2120   28.0990   77.5880 C.3       1 TWN4003     0.0000 
     15 CAL        97.9840   25.5480   83.6240 C.3       1 TWN4003     0.0000 
     16 CAP        96.6790   25.8140   84.3620 C.3       1 TWN4003     0.0000 
     17 CAW        96.6230   27.2080   84.9600 C.3       1 TWN4003     0.0000 
     18 CAS        95.6050   28.0680   84.2260 C.3       1 TWN4003     0.0000 
     19 CAX        94.3290   28.2980   85.0260 C.3       1 TWN4003     0.0000 
     20 CAT        93.3480   29.1230   84.1910 C.3       1 TWN4003     0.0000 
     21 CAU        91.9190   29.0460   84.7190 C.3       1 TWN4003     0.0000 
     22 CAV        90.9540   29.6670   83.7030 C.3       1 TWN4003     0.0000 
     23 CAR        91.6980   30.0780   82.4240 C.3       1 TWN4003     0.0000 
     24 CAQ        90.7350   30.6390   81.3770 C.3       1 TWN4003     0.0000 
     25 CAY        91.1830   31.9910   80.8210 C.3       1 TWN4003     0.0000 
     26 H         100.5598   26.1222   81.1568 H         1 TWN4003     0.0000 
     27 H          99.5116   27.5450   81.0260 H         1 TWN4003     0.0000 
     28 H          99.5292   25.4725   78.8284 H         1 TWN4003     0.0000 
     29 H         100.7877   26.7150   78.9384 H         1 TWN4003     0.0000 
     30 H          99.2900   28.4487   78.6123 H         1 TWN4003     0.0000 
     31 H          98.9568   26.1705   76.9016 H         1 TWN4003     0.0000 
     32 H          98.8061   26.7899   74.5474 H         1 TWN4003     0.0000 
     33 H          97.8977   28.2891   74.2887 H         1 TWN4003     0.0000 
     34 H          96.9311   25.8241   75.2058 H         1 TWN4003     0.0000 
     35 H          96.7353   26.0080   77.4171 H         1 TWN4003     0.0000 
     36 H          98.8182   25.8766   84.2427 H         1 TWN4003     0.0000 
     37 H          98.0807   24.4782   83.4425 H         1 TWN4003     0.0000 
     38 H          96.5626   25.0721   85.1626 H         1 TWN4003     0.0000 
     39 H          95.8407   25.6856   83.6651 H         1 TWN4003     0.0000 
     40 H          97.6061   27.6732   84.8871 H         1 TWN4003     0.0000 
     41 H          96.3448   27.1401   86.0118 H         1 TWN4003     0.0000 
     42 H          95.3476   27.5856   83.2718 H         1 TWN4003     0.0000 
     43 H          96.0598   29.0409   83.9893 H         1 TWN4003     0.0000 
     44 H          94.5641   28.8356   85.9362 H         1 TWN4003     0.0000 
     45 H          93.8774   27.3443   85.2695 H         1 TWN4003     0.0000 
     46 H          93.3692   28.7620   83.1558 H         1 TWN4003     0.0000 
     47 H          93.6746   30.1697   84.1878 H         1 TWN4003     0.0000 
     48 H          91.8493   29.5891   85.6551 H         1 TWN4003     0.0000 
     49 H          91.6481   28.0083   84.8800 H         1 TWN4003     0.0000 
     50 H          90.4871   30.5454   84.1420 H         1 TWN4003     0.0000 
     51 H          90.1837   28.9424   83.4504 H         1 TWN4003     0.0000 
     52 H          92.2085   29.2069   82.0140 H         1 TWN4003     0.0000 
     53 H          92.4411   30.8354   82.6726 H         1 TWN4003     0.0000 
     54 H          89.7407   30.7491   81.8279 H         1 TWN4003     0.0000 
     55 H          90.6486   29.9228   80.5501 H         1 TWN4003     0.0000 
     56 H          97.6944   27.8103   80.3360 H         1 TWN4003     0.0000 
     57 H          96.8946   28.2082   78.9988 H         1 TWN4003     0.0000 
     58 H          97.0616   26.6613   79.4057 H         1 TWN4003     0.0000 
     59 H          95.5613   28.4731   75.3007 H         1 TWN4003     0.0000 
     60 H          95.5732   27.5366   73.9934 H         1 TWN4003     0.0000 
     61 H          94.8050   27.0540   75.3212 H         1 TWN4003     0.0000 
     62 H          96.3808   28.2117   78.5672 H         1 TWN4003     0.0000 
     63 H          96.4403   28.9681   77.1493 H         1 TWN4003     0.0000 
     64 H          95.2279   27.9628   77.4740 H         1 TWN4003     0.0000 
     65 H          92.0796   31.9333   80.3818 H         1 TWN4003     0.0000 
     66 H          90.5435   32.3415   80.1368 H         1 TWN4003     0.0000 
     67 H          91.2524   32.6834   81.5392 H         1 TWN4003     0.0000 
@<TRIPOS>BOND
     1    2    1 2    
     2    3    2 1    
     3   15    2 1    
     4    4    3 1    
     5    5    4 1    
     6   26    4 1    
     7   27    4 1    
     8    6    5 1    
     9   28    5 1    
    10   29    5 1    
    11    7    6 1    
    12    8    6 1    
    13   30    6 1    
    14   56    7 1    
    15   57    7 1    
    16   58    7 1    
    17    9    8 1    
    18   13    8 1    
    19   31    8 1    
    20   10    9 1    
    21   11   10 1    
    22   32   10 1    
    23   33   10 1    
    24   12   11 1    
    25   13   11 1    
    26   34   11 1    
    27   59   12 1    
    28   60   12 1    
    29   61   12 1    
    30   14   13 1    
    31   35   13 1    
    32   62   14 1    
    33   63   14 1    
    34   64   14 1    
    35   16   15 1    
    36   36   15 1    
    37   37   15 1    
    38   17   16 1    
    39   38   16 1    
    40   39   16 1    
    41   18   17 1    
    42   40   17 1    
    43   41   17 1    
    44   19   18 1    
    45   42   18 1    
    46   43   18 1    
    47   20   19 1    
    48   44   19 1    
    49   45   19 1    
    50   21   20 1    
    51   46   20 1    
    52   47   20 1    
    53   22   21 1    
    54   48   21 1    
    55   49   21 1    
    56   23   22 1    
    57   50   22 1    
    58   51   22 1    
    59   24   23 1    
    60   52   23 1    
    61   53   23 1    
    62   25   24 1    
    63   54   24 1    
    64   55   24 1    
    65   65   25 1    
    66   66   25 1    
    67   67   25 1    
@<TRIPOS>SUBSTRUCTURE
     1 TWN4003     1 GROUP   
@<TRIPOS>SET

