#    Name: 3l8v_L8V_1_INTS_M
#    Modification time : Mon Mar 24 21:08:55 2014

@<TRIPOS>MOLECULE
3l8v_L8V_1_INTS_M
   98     0     9     0     0
SMALL
NO_CHARGES


@<TRIPOS>ATOM
      1 N          -2.2520   12.7230   60.2565 N.am      2 SEC2        0.0000 
      2 N          -1.0800   12.6670   59.4050 N.am      8 SEL2        0.0000 
      3 N          -3.4240   12.7790   61.1080 N.am      5 SEP2        0.0000 
      4 CA         -0.9690   12.0690   60.7875 C.3       3 GLC5        0.0000 
      5 CA          0.1640   13.1890   59.4510 C.3       9 GLL5        0.0000 
      6 CA         -2.1020   10.9490   62.1240 C.3       6 GLP5        0.0000 
      7 CA          1.2675   13.0740   56.0140 C.3       3 GLC5        0.0000 
      8 CA          0.7660   11.7540   57.6200 C.3       9 GLL5        0.0000 
      9 CA          1.7690   14.3940   54.4080 C.3       6 GLP5        0.0000 
     10 CA          1.5290   10.0235   58.2985 C.3       3 GLC5        0.0000 
     11 CA          1.6480   10.1220   56.0550 C.3       9 GLL5        0.0000 
     12 CA          1.4100    9.9250   60.5420 C.3       6 GLP5        0.0000 
     13 CA          2.0100    8.6015   58.6735 C.3       3 GLC5        0.0000 
     14 CA          1.8910    8.8670   56.6850 C.3       9 GLL5        0.0000 
     15 CA          2.1290    8.3360   60.6620 C.3       6 GLP5        0.0000 
     16 CA          1.2250    5.9965   57.0195 C.3       3 GLC5        0.0000 
     17 CA          1.7390    7.6710   55.9570 C.3       9 GLL5        0.0000 
     18 CA          0.7110    4.3220   58.0820 C.3       6 GLP5        0.0000 
     19 CA          1.9845    9.2265   52.0770 C.3       3 GLC5        0.0000 
     20 CA          1.1130    8.9410   53.9780 C.3       9 GLL5        0.0000 
     21 CA          2.8560    9.5120   50.1760 C.3       6 GLP5        0.0000 
     22 CA         -0.4595   12.5615   54.8725 C.3       3 GLC5        0.0000 
     23 CA          1.0220   11.2600   54.0730 C.3       9 GLL5        0.0000 
     24 CA         -1.9410   13.8630   55.6720 C.3       6 GLP5        0.0000 
     25 CA          1.1565   11.3815   52.1565 C.3       3 GLC5        0.0000 
     26 CA          1.2910   11.5030   50.2400 C.3       6 GLP5        0.0000 
     27 CA          1.0010    4.1650   48.6975 C.3       3 GLC5        0.0000 
     28 CA          0.1570    5.4470   50.1170 C.3       9 GLL5        0.0000 
     29 CA          1.8450    2.8830   47.2780 C.3       6 GLP5        0.0000 
     30 CA          1.7155    8.1270   50.3075 C.3       3 GLC5        0.0000 
     31 CA          0.5750    6.7420   50.4390 C.3       9 GLL5        0.0000 
     32 N           1.6665    3.6380   55.4965 N.am      2 SEC2        0.0000 
     33 N           0.6860    4.1310   54.7620 N.am      8 SEL2        0.0000 
     34 N           2.6470    3.1450   56.2310 N.am      5 SEP2        0.0000 
     35 CA         -1.6825    2.0370   52.9135 C.3       3 GLC5        0.0000 
     36 CA         -0.0170    1.6110   54.1220 C.3       9 GLL5        0.0000 
     37 CA         -3.3480    2.4630   51.7050 C.3       6 GLP5        0.0000 
     38 CA         -2.3420    2.8775   54.4670 C.3       3 GLC5        0.0000 
     39 CA         -1.0350    1.5510   55.1340 C.3       9 GLL5        0.0000 
     40 CA         -3.6490    4.2040   53.8000 C.3       6 GLP5        0.0000 
     41 CA         -2.6315   -0.0785   56.9980 C.3       3 GLC5        0.0000 
     42 CA         -1.0530    0.4560   56.0480 C.3       9 GLL5        0.0000 
     43 CA         -4.2100   -0.6130   57.9480 C.3       6 GLP5        0.0000 
     44 CA         -1.3650   -1.5885   55.1325 C.3       3 GLC5        0.0000 
     45 CA          0.0090   -1.6100   56.7300 C.3       9 GLL5        0.0000 
     46 CA         -2.7390   -1.5670   53.5350 C.3       6 GLP5        0.0000 
     47 CA          0.3015   -2.8740   55.3220 C.3       3 GLC5        0.0000 
     48 CA          0.5940   -4.1380   53.9140 C.3       6 GLP5        0.0000 
     49 CA         -3.1765   12.7335   58.9775 C.3       3 GLC5        0.0000 
     50 CA         -1.4470   11.7160   58.5190 C.3       9 GLL5        0.0000 
     51 CA         -4.9060   13.7510   59.4360 C.3       6 GLP5        0.0000 
     52 O          -0.4215   13.9115   61.6800 O.2       1 ALC1        0.0000 
     53 O           0.3990   14.1410   60.3990 O.2       7 ALL1        0.0000 
     54 O          -1.2420   13.6820   62.9610 O.2       4 ALP1        0.0000 
     55 CA          1.5577   14.5665   58.7820 C.3       3 GLC5        0.0000 
     56 CA          2.4610   16.1630   58.5620 C.3       6 GLP5        0.0000 
     57 CA         -0.6433   13.4165   57.3370 C.3       3 GLC5        0.0000 
     58 CA          1.1450   12.7510   58.5530 C.3       9 GLL5        0.0000 
     59 CA          1.0322   11.4475   59.7720 C.3       3 GLC5        0.0000 
     60 CA         -0.1540    8.0817   54.5588 C.3       3 GLC5        0.0000 
     61 CA         -1.8530    8.4690   53.8350 C.3       6 GLP5        0.0000 
     62 CA          3.5450    7.0548   55.0157 C.3       3 GLC5        0.0000 
     63 CA          1.3510    7.7180   54.6080 C.3       9 GLL5        0.0000 
     64 CA          5.5450    6.4150   54.7490 C.3       6 GLP5        0.0000 
     65 CA         -0.1860    7.2978   56.2227 C.3       3 GLC5        0.0000 
     66 CA         -1.9550    6.6020   56.9810 C.3       6 GLP5        0.0000 
     67 CA          2.3976   11.8760   54.0009 C.3       3 GLC5        0.0000 
     68 CA          3.5570   13.0620   53.2750 C.3       6 GLP5        0.0000 
     69 CA         -0.3501    9.4321   54.1056 C.3       3 GLC5        0.0000 
     70 CA         -1.1960    4.8637   52.3650 C.3       3 GLC5        0.0000 
     71 CA          0.8820    6.1930   52.7140 C.3       9 GLL5        0.0000 
     72 CA         -3.0710    4.1960   52.1260 C.3       6 GLP5        0.0000 
     73 CA         -0.5870    7.0002   53.2195 C.3       3 GLC5        0.0000 
     74 CA          0.4760    4.8700   52.4940 C.3       9 GLL5        0.0000 
     75 CA         -1.1730    4.6088   49.0935 C.3       3 GLC5        0.0000 
     76 CA          0.1210    4.5360   51.1730 C.3       9 GLL5        0.0000 
     77 CA         -2.4850    4.2260   47.5420 C.3       6 GLP5        0.0000 
     78 CA         -1.4660    4.5938   51.3855 C.3       3 GLC5        0.0000 
     79 CA         -1.0690    7.2508   49.7875 C.3       3 GLC5        0.0000 
     80 CA         -2.5040    8.4070   49.2970 C.3       6 GLP5        0.0000 
     81 CA          0.2200    2.1975   56.3080 C.3       3 GLC5        0.0000 
     82 CA          0.9660    2.8140   57.9880 C.3       6 GLP5        0.0000 
     83 CA          0.2070    1.3828   56.9870 C.3       3 GLC5        0.0000 
     84 CA         -0.0510   -0.5530   55.9240 C.3       9 GLL5        0.0000 
     85 CA         -0.5855   -2.5417   57.3075 C.3       3 GLC5        0.0000 
     86 CA         -1.1500   -4.0020   58.2880 C.3       6 GLP5        0.0000 
     87 CA          0.4150   -1.0503   58.2755 C.3       3 GLC5        0.0000 
     88 CA          0.8510   -1.0190   60.2240 C.3       6 GLP5        0.0000 
     89 CA          1.6598   -1.6625   56.8906 C.3       3 GLC5        0.0000 
     90 CA          3.0920   -2.2520   57.6960 C.3       6 GLP5        0.0000 
     91 CA         -1.3057   12.7320   56.8674 C.3       3 GLC5        0.0000 
     92 CA         -1.8797   10.6700   59.6495 C.3       3 GLC5        0.0000 
     93 CA         -0.5540   11.2180   57.5930 C.3       9 GLL5        0.0000 
     94 CA         -2.7590    9.8730   61.2430 C.3       6 GLP5        0.0000 
     95 CA          0.3697   10.7630   59.3024 C.3       3 GLC5        0.0000 
     96 CA          2.6835    1.1389   54.2228 C.3       3 GLC5        0.0000 
     97 CA          1.9090    0.5700   53.1520 C.3       9 GLL5        0.0000 
     98 CA          4.0610    1.8510   54.6060 C.3       6 GLP5        0.0000 
@<TRIPOS>BOND
@<TRIPOS>SUBSTRUCTURE
     1 ALC1       52 GROUP        1 X    ALC  0     ROOT ALC X 1
     2 SEC2        1 GROUP        1 X    SEC  0     **** SEC X 2
     3 GLC5        4 GROUP        1 X    GLC  0     **** GLC X 6
     4 ALP1       54 GROUP        1 Y    ALP  0     ROOT ALP Y 8
     5 SEP2        3 GROUP        1 Y    SEP  0     **** SEP Y 9
     6 GLP5        6 GROUP        1 Y    GLP  0     **** GLP Y 13
     7 ALL1       53 GROUP        1 Z    ALL  0     ROOT ALL Z 15
     8 SEL2        2 GROUP        1 Z    SEL  0     **** SEL Z 16
     9 GLL5        5 GROUP        1 Z    GLL  0     **** GLL Z 20
@<TRIPOS>SET

