#    Name: 3l8v_L8V_1_ligand
#    Modification time : Mon Mar 24 21:08:55 2014

@<TRIPOS>MOLECULE
3l8v_L8V_1_ligand
   49    52     1     0     0
SMALL
NO_CHARGES


@<TRIPOS>ATOM
      1 N1         -1.0800   12.6670   59.4050 N.ar      1 L8V1        0.0000 
      2 C2          0.1640   13.1890   59.4510 C.ar      1 L8V1        0.0000 
      3 C3          1.1450   12.7510   58.5530 C.ar      1 L8V1        0.0000 
      4 C4          0.7660   11.7540   57.6200 C.ar      1 L8V1        0.0000 
      5 O5          1.7840   11.3410   56.7350 O.3       1 L8V1        0.0000 
      6 C6          1.6480   10.1220   56.0550 C.ar      1 L8V1        0.0000 
      7 C7          1.8910    8.8670   56.6850 C.ar      1 L8V1        0.0000 
      8 C8          1.7390    7.6710   55.9570 C.ar      1 L8V1        0.0000 
      9 C9          1.3510    7.7180   54.6080 C.ar      1 L8V1        0.0000 
     10 C10         1.1130    8.9410   53.9780 C.ar      1 L8V1        0.0000 
     11 C11         1.2610   10.1180   54.7060 C.ar      1 L8V1        0.0000 
     12 F12         1.0220   11.2600   54.0730 F         1 L8V1        0.0000 
     13 N13         1.2300    6.5300   53.9840 N.pl3     1 L8V1        0.0000 
     14 C14         0.8820    6.1930   52.7140 C.ar      1 L8V1        0.0000 
     15 C15         0.4760    4.8700   52.4940 C.ar      1 L8V1        0.0000 
     16 C16         0.1210    4.5360   51.1730 C.ar      1 L8V1        0.0000 
     17 C17         0.1570    5.4470   50.1170 C.ar      1 L8V1        0.0000 
     18 C18         0.5750    6.7420   50.4390 C.ar      1 L8V1        0.0000 
     19 N19         0.9260    7.1010   51.7000 N.ar      1 L8V1        0.0000 
     20 C20         0.4260    3.8780   53.5830 C.2       1 L8V1        0.0000 
     21 O21         0.6860    4.1310   54.7620 O.2       1 L8V1        0.0000 
     22 N22         0.0680    2.6320   53.2070 N.am      1 L8V1        0.0000 
     23 C23        -0.0170    1.6110   54.1220 C.ar      1 L8V1        0.0000 
     24 C24        -1.0350    1.5510   55.1340 C.ar      1 L8V1        0.0000 
     25 C25        -1.0530    0.4560   56.0480 C.ar      1 L8V1        0.0000 
     26 C26        -0.0510   -0.5530   55.9240 C.ar      1 L8V1        0.0000 
     27 C27         0.9430   -0.5190   54.9570 C.ar      1 L8V1        0.0000 
     28 C28         0.9430    0.5620   54.0720 C.ar      1 L8V1        0.0000 
     29 F29         0.0090   -1.6100   56.7300 F         1 L8V1        0.0000 
     30 C30        -1.4470   11.7160   58.5190 C.ar      1 L8V1        0.0000 
     31 C31        -0.5540   11.2180   57.5930 C.ar      1 L8V1        0.0000 
     32 F32         1.9090    0.5700   53.1520 F         1 L8V1        0.0000 
     33 N33         0.3990   14.1410   60.3990 N.pl3     1 L8V1        0.0000 
     34 H           2.0757   13.1210   58.5631 H         1 L8V1        0.0000 
     35 H           2.1750    8.8428   57.6644 H         1 L8V1        0.0000 
     36 H           1.9111    6.7717   56.4109 H         1 L8V1        0.0000 
     37 H           0.8342    8.9695   52.9963 H         1 L8V1        0.0000 
     38 H           1.4613    5.6412   54.6385 H         1 L8V1        0.0000 
     39 H          -0.1848    3.5526   50.9788 H         1 L8V1        0.0000 
     40 H          -0.0999    5.1913   49.1869 H         1 L8V1        0.0000 
     41 H           0.6128    7.4498   49.6649 H         1 L8V1        0.0000 
     42 H          -0.1504    2.4299   52.2045 H         1 L8V1        0.0000 
     43 H          -1.7313    2.2815   55.1941 H         1 L8V1        0.0000 
     44 H          -1.7564    0.3958   56.7645 H         1 L8V1        0.0000 
     45 H           1.6416   -1.2452   54.8914 H         1 L8V1        0.0000 
     46 H          -2.4233   11.3421   58.5248 H         1 L8V1        0.0000 
     47 H          -0.8005   10.5131   56.9244 H         1 L8V1        0.0000 
     48 H          -0.1343   14.0641   61.2414 H         1 L8V1        0.0000 
     49 H           1.0839   14.8320   60.1683 H         1 L8V1        0.0000 
@<TRIPOS>BOND
     1    2    1 ar   
     2   30    1 ar   
     3    3    2 ar   
     4   33    2 1    
     5    4    3 ar   
     6   34    3 1    
     7    5    4 1    
     8   31    4 ar   
     9    6    5 1    
    10    7    6 ar   
    11   11    6 ar   
    12    8    7 ar   
    13   35    7 1    
    14    9    8 ar   
    15   36    8 1    
    16   10    9 ar   
    17   13    9 1    
    18   11   10 ar   
    19   37   10 1    
    20   12   11 1    
    21   14   13 1    
    22   38   13 1    
    23   15   14 ar   
    24   19   14 ar   
    25   16   15 ar   
    26   20   15 1    
    27   17   16 ar   
    28   39   16 1    
    29   18   17 ar   
    30   40   17 1    
    31   19   18 ar   
    32   41   18 1    
    33   21   20 2    
    34   22   20 am   
    35   23   22 1    
    36   42   22 1    
    37   24   23 ar   
    38   28   23 ar   
    39   25   24 ar   
    40   43   24 1    
    41   26   25 ar   
    42   44   25 1    
    43   27   26 ar   
    44   29   26 1    
    45   28   27 ar   
    46   45   27 1    
    47   32   28 1    
    48   31   30 ar   
    49   46   30 1    
    50   47   31 1    
    51   48   33 1    
    52   49   33 1    
@<TRIPOS>SUBSTRUCTURE
     1 L8V1        1 GROUP   
@<TRIPOS>SET

