#    Name: 3a3g_DLZ_1_INTS_M
#    Modification time : Tue Mar 25 11:33:29 2014

@<TRIPOS>MOLECULE
3a3g_DLZ_1_INTS_M
   57     0     9     0     0
SMALL
NO_CHARGES


@<TRIPOS>ATOM
      1 CA         19.5630   -4.2900  -19.7425 C.3       3 GLC5        0.0000 
      2 CA         18.3910   -5.9390  -20.3590 C.3       9 GLL5        0.0000 
      3 CA         20.7350   -2.6410  -19.1260 C.3       6 GLP5        0.0000 
      4 CA         20.8615   -7.3345  -19.6075 C.3       3 GLC5        0.0000 
      5 CA         19.2510   -7.0530  -20.4060 C.3       9 GLL5        0.0000 
      6 CA         22.4720   -7.6160  -18.8090 C.3       6 GLP5        0.0000 
      7 N          19.8585   -4.9255  -22.0050 N.am      2 SEC2        0.0000 
      8 N          18.6720   -4.7660  -21.0920 N.am      8 SEL2        0.0000 
      9 N          21.0450   -5.0850  -22.9180 N.am      5 SEP2        0.0000 
     10 N          20.3750   -2.5435  -21.8600 N.am      2 SEC2        0.0000 
     11 N          19.0930   -2.1680  -22.3630 N.am      8 SEL2        0.0000 
     12 N          21.6570   -2.9190  -21.3570 N.am      5 SEP2        0.0000 
     13 O          17.5180   -0.1510  -22.1720 O.2       1 ALC1        0.0000 
     14 O          17.1950   -1.3460  -21.5780 O.2       7 ALL1        0.0000 
     15 O          17.8410    1.0440  -22.7660 O.2       4 ALP1        0.0000 
     16 N          14.7320    0.5555  -21.4755 N.am      2 SEC2        0.0000 
     17 N          15.2510   -0.5550  -20.7370 N.am      8 SEL2        0.0000 
     18 N          14.2130    1.6660  -22.2140 N.am      5 SEP2        0.0000 
     19 N          13.9730   -0.6495  -20.0535 N.am      2 SEC2        0.0000 
     20 N          12.6950   -0.7440  -19.3700 N.am      5 SEP2        0.0000 
     21 CA         13.3260   -4.5240  -19.8265 C.3       3 GLC5        0.0000 
     22 CA         15.0880   -4.8430  -18.7790 C.3       9 GLL5        0.0000 
     23 CA         11.5640   -4.2050  -20.8740 C.3       6 GLP5        0.0000 
     24 CA         16.0745   -2.7000  -16.2725 C.3       3 GLC5        0.0000 
     25 CA         15.2040   -4.0890  -17.4350 C.3       9 GLL5        0.0000 
     26 CA         16.9450   -1.3110  -15.1100 C.3       6 GLP5        0.0000 
     27 O          17.3975   -4.1690  -17.1145 O.2       1 ALC1        0.0000 
     28 O          16.2440   -4.6500  -16.6010 O.2       7 ALL1        0.0000 
     29 O          18.5510   -3.6880  -17.6280 O.2       4 ALP1        0.0000 
     30 O          11.8865   -4.5945  -17.5855 O.2       1 ALC1        0.0000 
     31 O          12.9050   -3.7370  -17.5770 O.2       7 ALL1        0.0000 
     32 O          10.8680   -5.4520  -17.5940 O.2       4 ALP1        0.0000 
     33 CA         15.3680   -2.3990  -15.2515 C.3       3 GLC5        0.0000 
     34 CA         13.7910   -3.4870  -15.3930 C.3       9 GLL5        0.0000 
     35 N          14.4920   -4.3215  -12.9895 N.am      2 SEC2        0.0000 
     36 N          14.6740   -4.0040  -14.3770 N.am      8 SEL2        0.0000 
     37 N          14.3100   -4.6390  -11.6020 N.am      5 SEP2        0.0000 
     38 CA         12.5545   -1.9535  -16.3950 C.3       3 GLC5        0.0000 
     39 CA         12.3590   -3.5490  -14.8460 C.3       9 GLL5        0.0000 
     40 CA         12.7500   -0.3580  -17.9440 C.3       6 GLP5        0.0000 
     41 CA         10.9120   -2.0565  -14.1625 C.3       3 GLC5        0.0000 
     42 CA          9.4650   -0.5640  -13.4790 C.3       6 GLP5        0.0000 
     43 CA         13.2905   -2.8755  -12.9400 C.3       3 GLC5        0.0000 
     44 CA         14.2220   -2.2020  -11.0340 C.3       6 GLP5        0.0000 
     45 CA         10.7160   -3.8055  -15.8140 C.3       3 GLC5        0.0000 
     46 CA          9.0730   -4.0620  -16.7820 C.3       6 GLP5        0.0000 
     47 N          11.3150   -1.7765  -14.1855 N.am      2 SEC2        0.0000 
     48 N          12.2890   -2.5380  -13.8390 N.am      8 SEL2        0.0000 
     49 N          10.3410   -1.0150  -14.5320 N.am      5 SEP2        0.0000 
     50 O          11.9455   -3.1245  -12.6895 O.2       1 ALC1        0.0000 
     51 O          12.2890   -2.5380  -13.8390 O.2       7 ALL1        0.0000 
     52 O          11.6020   -3.7110  -11.5400 O.2       4 ALP1        0.0000 
     53 CA         18.3145   -6.3033  -17.6020 C.3       3 GLC5        0.0000 
     54 CA         16.9280   -7.1680  -18.9030 C.3       9 GLL5        0.0000 
     55 CA         19.5480   -6.0300  -15.9640 C.3       6 GLP5        0.0000 
     56 CA         14.2328   -2.0891  -16.8293 C.3       3 GLC5        0.0000 
     57 CA         14.3000   -0.3470  -17.4290 C.3       6 GLP5        0.0000 
@<TRIPOS>BOND
@<TRIPOS>SUBSTRUCTURE
     1 ALC1       13 GROUP        1 X    ALC  0     ROOT ALC X 1
     2 SEC2        7 GROUP        1 X    SEC  0     **** SEC X 2
     3 GLC5        1 GROUP        1 X    GLC  0     **** GLC X 6
     4 ALP1       15 GROUP        1 Y    ALP  0     ROOT ALP Y 8
     5 SEP2        9 GROUP        1 Y    SEP  0     **** SEP Y 9
     6 GLP5        3 GROUP        1 Y    GLP  0     **** GLP Y 13
     7 ALL1       14 GROUP        1 Z    ALL  0     ROOT ALL Z 15
     8 SEL2        8 GROUP        1 Z    SEL  0     **** SEL Z 16
     9 GLL5        2 GROUP        1 Z    GLL  0     **** GLL Z 20
@<TRIPOS>SET

