#    Name: 3a3g_DLZ_1_ligand
#    Modification time : Tue Mar 25 11:33:29 2014

@<TRIPOS>MOLECULE
3a3g_DLZ_1_ligand
   41    42     1     0     0
SMALL
NO_CHARGES


@<TRIPOS>ATOM
      1 C7         16.9280   -7.1680  -18.9030 C.3       1 DLZ191      0.0000 
      2 C7A        17.2340   -5.9850  -19.5770 C.2       1 DLZ191      0.0000 
      3 C5A        18.3910   -5.9390  -20.3590 C.2       1 DLZ191      0.0000 
      4 C6         19.2510   -7.0530  -20.4060 C.3       1 DLZ191      0.0000 
      5 N5         18.6720   -4.7660  -21.0920 N.2       1 DLZ191      0.0000 
      6 C4A        17.8330   -3.6160  -21.0200 C.2       1 DLZ191      0.0000 
      7 C4         18.1000   -2.3900  -21.6680 C.2       1 DLZ191      0.0000 
      8 O4         19.0930   -2.1680  -22.3630 O.2       1 DLZ191      0.0000 
      9 N3         17.1950   -1.3460  -21.5780 N.am      1 DLZ191      0.0000 
     10 C2         16.0540   -1.4750  -20.8320 C.2       1 DLZ191      0.0000 
     11 O2         15.2510   -0.5550  -20.7370 O.2       1 DLZ191      0.0000 
     12 N1         15.8060   -2.6450  -20.1740 N.2       1 DLZ191      0.0000 
     13 C8         16.6830   -3.7030  -20.2440 C.2       1 DLZ191      0.0000 
     14 N8         16.3540   -4.8550  -19.5600 N.pl3     1 DLZ191      0.0000 
     15 C1'        15.0880   -4.8430  -18.7790 C.3       1 DLZ191      0.0000 
     16 C2'        15.2040   -4.0890  -17.4350 C.3       1 DLZ191      0.0000 
     17 O2'        16.2440   -4.6500  -16.6010 O.3       1 DLZ191      0.0000 
     18 C3'        13.8760   -4.2620  -16.6970 C.3       1 DLZ191      0.0000 
     19 O3'        12.9050   -3.7370  -17.5770 O.3       1 DLZ191      0.0000 
     20 C4'        13.7910   -3.4870  -15.3930 C.3       1 DLZ191      0.0000 
     21 O4'        14.6740   -4.0040  -14.3770 O.3       1 DLZ191      0.0000 
     22 C5'        12.3590   -3.5490  -14.8460 C.3       1 DLZ191      0.0000 
     23 O5'        12.2890   -2.5380  -13.8390 O.3       1 DLZ191      0.0000 
     24 H          17.3891   -0.4611  -22.0826 H         1 DLZ191      0.0000 
     25 H          14.7642   -5.8744  -18.5625 H         1 DLZ191      0.0000 
     26 H          14.2833   -4.3696  -19.3652 H         1 DLZ191      0.0000 
     27 H          15.3508   -3.0581  -17.6278 H         1 DLZ191      0.0000 
     28 H          13.7118   -5.2981  -16.5188 H         1 DLZ191      0.0000 
     29 H          14.0080   -2.4432  -15.5938 H         1 DLZ191      0.0000 
     30 H          12.1983   -4.5375  -14.4452 H         1 DLZ191      0.0000 
     31 H          11.6817   -3.3594  -15.6639 H         1 DLZ191      0.0000 
     32 H          17.6504   -7.4279  -18.2622 H         1 DLZ191      0.0000 
     33 H          16.0829   -7.0865  -18.3746 H         1 DLZ191      0.0000 
     34 H          16.8064   -7.9342  -19.5340 H         1 DLZ191      0.0000 
     35 H          20.0398   -6.8885  -20.9983 H         1 DLZ191      0.0000 
     36 H          19.6074   -7.2855  -19.5011 H         1 DLZ191      0.0000 
     37 H          18.7863   -7.8664  -20.7558 H         1 DLZ191      0.0000 
     38 H          17.0957   -4.2626  -16.9539 H         1 DLZ191      0.0000 
     39 H          12.1533   -4.3962  -17.5558 H         1 DLZ191      0.0000 
     40 H          15.1826   -4.7388  -14.8257 H         1 DLZ191      0.0000 
     41 H          12.0067   -3.0188  -13.0089 H         1 DLZ191      0.0000 
@<TRIPOS>BOND
     1    2    1 1    
     2   32    1 1    
     3   33    1 1    
     4   34    1 1    
     5    3    2 2    
     6   14    2 1    
     7    4    3 1    
     8    5    3 1    
     9   35    4 1    
    10   36    4 1    
    11   37    4 1    
    12    6    5 2    
    13    7    6 1    
    14   13    6 1    
    15    8    7 2    
    16    9    7 am   
    17   10    9 am   
    18   24    9 1    
    19   11   10 2    
    20   12   10 1    
    21   13   12 2    
    22   14   13 1    
    23   15   14 1    
    24   16   15 1    
    25   25   15 1    
    26   26   15 1    
    27   17   16 1    
    28   18   16 1    
    29   27   16 1    
    30   38   17 1    
    31   19   18 1    
    32   20   18 1    
    33   28   18 1    
    34   39   19 1    
    35   21   20 1    
    36   22   20 1    
    37   29   20 1    
    38   40   21 1    
    39   23   22 1    
    40   30   22 1    
    41   31   22 1    
    42   41   23 1    
@<TRIPOS>SUBSTRUCTURE
     1 DLZ191      1 GROUP   
@<TRIPOS>SET

