#    Name: 4B80_1_CAVITY_N1_6.mol2
#    Modification time : Tue Mar 11 19:08:06 2014

@<TRIPOS>MOLECULE
4B80_1_CAVITY_N1_6.mol2
  127     0     6     0     0
SMALL
NO_CHARGES


@<TRIPOS>ATOM
      1 OG         31.4872   22.5049   15.9936 O.2       1 SER1        0.0000 
      2 CA         30.4120   23.2002   16.7749 C.3       5 GLY6        0.0000 
      3 N          35.0625   21.0476    4.9327 N.2       2 ALA2        0.0000 
      4 N          33.9873   21.7430    5.7140 N.2       2 ALA2        0.0000 
      5 CA         32.9122   22.4383    6.4954 C.3       5 GLY6        0.0000 
      6 CA         31.9279   22.1447    5.4022 C.3       5 GLY6        0.0000 
      7 CZ         37.2940   23.9199    8.3269 C.ar      4 PHE5        0.0000 
      8 CZ         36.2189   24.6152    9.1082 C.ar      4 PHE5        0.0000 
      9 CZ         35.1437   25.3105    9.8896 C.ar      4 PHE5        0.0000 
     10 CZ         37.3849   22.9310    6.4523 C.ar      4 PHE5        0.0000 
     11 CZ         36.3097   23.6263    7.2337 C.ar      4 PHE5        0.0000 
     12 DU         35.2346   24.3217    8.0151 H         6 CUB7        0.0000 
     13 CZ         34.1594   25.0170    8.7964 C.ar      4 PHE5        0.0000 
     14 N          36.4006   22.6375    5.3592 N.2       2 ALA2        0.0000 
     15 N          35.3255   23.3328    6.1405 N.2       2 ALA2        0.0000 
     16 CA         34.2503   24.0281    6.9219 C.3       5 GLY6        0.0000 
     17 CZ         34.7899   24.0142   10.5563 C.ar      4 PHE5        0.0000 
     18 NZ         33.7147   24.7096   11.3376 N.2       3 LYS4        0.0000 
     19 CZ         34.8808   23.0254    8.6817 C.ar      4 PHE5        0.0000 
     20 CZ         33.8056   23.7207    9.4631 C.ar      4 PHE5        0.0000 
     21 CZ         32.7304   24.4160   10.2445 C.ar      4 PHE5        0.0000 
     22 CZ         36.0468   21.3412    6.0258 C.ar      4 PHE5        0.0000 
     23 CZ         34.9716   22.0365    6.8072 C.ar      4 PHE5        0.0000 
     24 CA         33.8965   22.7318    7.5886 C.3       5 GLY6        0.0000 
     25 CZ         32.8213   23.4272    8.3699 C.ar      4 PHE5        0.0000 
     26 CA         29.4414   18.3225   16.9004 C.3       5 GLY6        0.0000 
     27 N          28.3662   19.0178   17.6818 N.2       2 ALA2        0.0000 
     28 O          28.4571   18.0290   15.8072 O.2       2 ALA2        0.0000 
     29 CZ         27.3819   18.7243   16.5886 C.ar      4 PHE5        0.0000 
     30 O          28.5480   17.0401   13.9327 O.2       2 ALA2        0.0000 
     31 O          27.4728   17.7354   14.7141 O.2       2 ALA2        0.0000 
     32 NZ         26.3976   18.4307   15.4954 N.2       3 LYS4        0.0000 
     33 CZ         25.3225   19.1261   16.2768 C.ar      4 PHE5        0.0000 
     34 CA         26.4885   17.4419   13.6209 C.3       5 GLY6        0.0000 
     35 NZ         25.4134   18.1372   14.4023 N.2       3 LYS4        0.0000 
     36 CA         24.3382   18.8325   15.1836 C.3       5 GLY6        0.0000 
     37 OG         36.9265   27.2078    7.7749 O.2       1 SER1        0.0000 
     38 OG         35.8514   27.9031    8.5563 O.2       1 SER1        0.0000 
     39 DU         37.0174   26.2189    5.9004 H         6 CUB7        0.0000 
     40 DU         35.9422   26.9142    6.6817 H         6 CUB7        0.0000 
     41 CZ         34.8671   27.6095    7.4631 C.ar      4 PHE5        0.0000 
     42 OG         33.4518   22.4244   10.1298 O.2       1 SER1        0.0000 
     43 OG         32.3766   23.1197   10.9111 O.2       1 SER1        0.0000 
     44 NZ         31.3014   23.8151   11.6925 N.2       3 LYS4        0.0000 
     45 CZ         34.6178   20.7402    7.4739 C.ar      4 PHE5        0.0000 
     46 CZ         33.5426   21.4355    8.2552 C.ar      4 PHE5        0.0000 
     47 OG         32.4675   22.1309    9.0366 O.2       1 SER1        0.0000 
     48 OG         31.3923   22.8262    9.8180 O.2       1 SER1        0.0000 
     49 CZ         30.3171   23.5215   10.5993 C.ar      4 PHE5        0.0000 
     50 O          33.6335   20.4467    6.3807 O.2       2 ALA2        0.0000 
     51 O          32.5583   21.1420    7.1621 O.2       2 ALA2        0.0000 
     52 CA         31.4832   21.8373    7.9434 C.3       5 GLY6        0.0000 
     53 CZ         30.4080   22.5327    8.7248 C.ar      4 PHE5        0.0000 
     54 O          31.5741   20.8485    6.0689 O.2       2 ALA2        0.0000 
     55 CZ         30.4989   21.5438    6.8503 C.ar      4 PHE5        0.0000 
     56 OG         27.0281   17.4280   17.2553 O.2       1 SER1        0.0000 
     57 CZ         31.3151   19.2309   12.9112 C.ar      4 PHE5        0.0000 
     58 OG         30.2399   19.9262   13.6925 O.2       1 SER1        0.0000 
     59 DU         29.1648   20.6215   14.4739 H         6 CUB7        0.0000 
     60 CA         28.0896   21.3169   15.2553 C.3       5 GLY6        0.0000 
     61 CZ         31.4060   18.2420   11.0366 C.ar      4 PHE5        0.0000 
     62 OG         30.3308   18.9373   11.8180 O.2       1 SER1        0.0000 
     63 DU         29.2556   19.6327   12.5994 H         6 CUB7        0.0000 
     64 DU         28.1805   20.3280   13.3807 H         6 CUB7        0.0000 
     65 CA         27.1053   21.0233   14.1621 C.3       5 GLY6        0.0000 
     66 CZ         30.4217   17.9485    9.9435 C.ar      4 PHE5        0.0000 
     67 CZ         29.3465   18.6438   10.7248 C.ar      4 PHE5        0.0000 
     68 CZ         28.2714   19.3391   11.5062 C.ar      4 PHE5        0.0000 
     69 CZ         27.1962   20.0344   12.2876 C.ar      4 PHE5        0.0000 
     70 CZ         26.1210   20.7298   13.0689 C.ar      4 PHE5        0.0000 
     71 CA         26.2119   19.7409   11.1944 C.3       5 GLY6        0.0000 
     72 OG         30.7795   19.9123   17.3269 O.2       1 SER1        0.0000 
     73 N          29.7043   20.6077   18.1083 N.2       2 ALA2        0.0000 
     74 CA         29.7952   19.6188   16.2337 C.3       5 GLY6        0.0000 
     75 CA         28.7201   20.3141   17.0151 C.3       5 GLY6        0.0000 
     76 CA         28.8109   19.3252   15.1406 C.3       5 GLY6        0.0000 
     77 CZ         27.7358   20.0206   15.9219 C.ar      4 PHE5        0.0000 
     78 CA         28.9018   18.3364   13.2660 C.3       5 GLY6        0.0000 
     79 DU         27.8266   19.0317   14.0474 H         6 CUB7        0.0000 
     80 CZ         26.7515   19.7270   14.8288 C.ar      4 PHE5        0.0000 
     81 OG         28.9927   17.3475   11.3915 O.2       1 SER1        0.0000 
     82 CA         27.9175   18.0428   12.1729 C.3       5 GLY6        0.0000 
     83 CA         26.8424   18.7382   12.9542 C.3       5 GLY6        0.0000 
     84 N          25.7672   19.4335   13.7356 N.2       2 ALA2        0.0000 
     85 CZ         24.6920   20.1288   14.5170 C.ar      4 PHE5        0.0000 
     86 N          24.7829   19.1399   12.6424 N.2       2 ALA2        0.0000 
     87 CA         38.6322   25.5097    8.7534 C.3       5 GLY6        0.0000 
     88 CZ         37.6479   25.2162    7.6602 C.ar      4 PHE5        0.0000 
     89 OG         36.5727   25.9115    8.4416 O.2       1 SER1        0.0000 
     90 OG         35.4975   26.6068    9.2229 O.2       1 SER1        0.0000 
     91 CZ         37.7387   24.2273    5.7857 C.ar      4 PHE5        0.0000 
     92 DU         36.6636   24.9226    6.5670 H         6 CUB7        0.0000 
     93 DU         35.5884   25.6179    7.3484 H         6 CUB7        0.0000 
     94 CZ         34.5132   26.3133    8.1298 C.ar      4 PHE5        0.0000 
     95 N          36.7545   23.9337    4.6925 N.2       2 ALA2        0.0000 
     96 N          35.6793   24.6291    5.4739 N.2       2 ALA2        0.0000 
     97 N          34.6041   25.3244    6.2552 N.2       2 ALA2        0.0000 
     98 CA         31.8410   23.8012   15.3269 C.3       5 GLY6        0.0000 
     99 N          30.7658   24.4965   16.1083 N.2       2 ALA2        0.0000 
    100 OG         30.8567   23.5076   14.2337 O.2       1 SER1        0.0000 
    101 CA         29.7815   24.2030   15.0151 C.3       5 GLY6        0.0000 
    102 OG         29.8724   23.2141   13.1405 O.2       1 SER1        0.0000 
    103 OG         32.1136   20.8346    9.7033 O.2       1 SER1        0.0000 
    104 OG         31.0385   21.5299   10.4846 O.2       1 SER1        0.0000 
    105 CZ         29.9633   22.2252   11.2660 C.ar      4 PHE5        0.0000 
    106 CZ         32.2045   19.8457    7.8287 C.ar      4 PHE5        0.0000 
    107 CZ         31.1294   20.5410    8.6101 C.ar      4 PHE5        0.0000 
    108 CZ         30.0542   21.2364    9.3915 C.ar      4 PHE5        0.0000 
    109 N          34.3412   23.0392    5.0474 N.2       2 ALA2        0.0000 
    110 OG         30.5029   22.2114   14.9004 O.2       1 SER1        0.0000 
    111 CA         29.4277   22.9067   15.6818 C.3       5 GLY6        0.0000 
    112 OG         29.5186   21.9178   13.8072 O.2       1 SER1        0.0000 
    113 OG         28.4434   22.6131   14.5886 O.2       1 SER1        0.0000 
    114 CZ         31.7598   19.5383   10.3699 C.ar      4 PHE5        0.0000 
    115 OG         30.6846   20.2336   11.1513 O.2       1 SER1        0.0000 
    116 OG         29.6095   20.9289   11.9327 O.2       1 SER1        0.0000 
    117 CZ         28.5343   21.6243   12.7141 C.ar      4 PHE5        0.0000 
    118 CZ         30.7755   19.2448    9.2768 C.ar      4 PHE5        0.0000 
    119 CZ         29.7004   19.9401   10.0581 C.ar      4 PHE5        0.0000 
    120 CZ         28.6252   20.6354   10.8395 C.ar      4 PHE5        0.0000 
    121 OG         31.1333   21.2086   16.6602 O.2       1 SER1        0.0000 
    122 N          30.0582   21.9039   17.4416 N.2       2 ALA2        0.0000 
    123 OG         31.2242   20.2197   14.7857 O.2       1 SER1        0.0000 
    124 OG         30.1490   20.9151   15.5671 O.2       1 SER1        0.0000 
    125 N          36.0331   25.9254    4.8072 N.2       2 ALA2        0.0000 
    126 N          34.9580   26.6207    5.5886 N.2       2 ALA2        0.0000 
    127 CA         30.1354   25.4993   14.3484 C.3       5 GLY6        0.0000 
@<TRIPOS>BOND
@<TRIPOS>SUBSTRUCTURE
     1 SER1        1 GROUP   
     2 ALA2        3 GROUP   
     3 LYS4       18 GROUP   
     4 PHE5        7 GROUP   
     5 GLY6        2 GROUP   
     6 CUB7       12 GROUP   
@<TRIPOS>SET

