#    Name: 4b80_A36_1_INTS_M
#    Modification time : Tue Mar 25 07:03:56 2014

@<TRIPOS>MOLECULE
4b80_A36_1_INTS_M
   33     0     3     0     0
SMALL
NO_CHARGES


@<TRIPOS>ATOM
      1 CA         28.2780   22.2745   10.3055 C.3       1 GLC5        0.0000 
      2 CA         29.5960   20.9910    9.8790 C.3       3 GLL5        0.0000 
      3 CA         26.9600   23.5580   10.7320 C.3       2 GLP5        0.0000 
      4 CA         29.1615   19.7755    8.8130 C.3       1 GLC5        0.0000 
      5 CA         28.7270   18.5600    7.7470 C.3       2 GLP5        0.0000 
      6 CA         26.2640   19.6080   17.2585 C.3       1 GLC5        0.0000 
      7 CA         26.9850   18.1820   16.2020 C.3       3 GLL5        0.0000 
      8 CA         25.5430   21.0340   18.3150 C.3       2 GLP5        0.0000 
      9 CA         30.0715   18.7460   14.7055 C.3       1 GLC5        0.0000 
     10 CA         29.1540   20.5150   13.9980 C.3       3 GLL5        0.0000 
     11 CA         30.9890   16.9770   15.4130 C.3       2 GLP5        0.0000 
     12 CA         27.1190   21.9100   15.8315 C.3       1 GLC5        0.0000 
     13 CA         27.7230   20.6830   14.5570 C.3       3 GLL5        0.0000 
     14 CA         26.5150   23.1370   17.1060 C.3       2 GLP5        0.0000 
     15 CA         27.1000   16.1080   14.0580 C.3       1 GLC5        0.0000 
     16 CA         27.2590   18.1840   14.6810 C.3       3 GLL5        0.0000 
     17 CA         26.9410   14.0320   13.4350 C.3       2 GLP5        0.0000 
     18 CA         24.9045   22.4020   12.5995 C.3       1 GLC5        0.0000 
     19 CA         24.9990   20.9560   13.4660 C.3       3 GLL5        0.0000 
     20 CA         24.8100   23.8480   11.7330 C.3       2 GLP5        0.0000 
     21 CA         35.5935   24.7300   11.2975 C.3       1 GLC5        0.0000 
     22 CA         34.4270   23.9950    9.8130 C.3       3 GLL5        0.0000 
     23 CA         36.7600   25.4650   12.7820 C.3       2 GLP5        0.0000 
     24 CA         35.7595   22.7165   10.1955 C.3       1 GLC5        0.0000 
     25 CA         37.0920   21.4380   10.5780 C.3       2 GLP5        0.0000 
     26 CA         33.0070   25.1805    9.0540 C.3       1 GLC5        0.0000 
     27 CA         31.5870   26.3660    8.2950 C.3       2 GLP5        0.0000 
     28 CA         29.0555   17.5800   15.4273 C.3       1 GLC5        0.0000 
     29 CA         24.8137   21.3430   15.2365 C.3       1 GLC5        0.0000 
     30 CA         25.4100   19.7460   14.2540 C.3       3 GLL5        0.0000 
     31 CA         24.4230   22.3350   16.6130 C.3       2 GLP5        0.0000 
     32 CA         23.4393   19.2775   14.0870 C.3       1 GLC5        0.0000 
     33 CA         21.6740   18.2040   14.3140 C.3       2 GLP5        0.0000 
@<TRIPOS>BOND
@<TRIPOS>SUBSTRUCTURE
     1 GLC5        1 GROUP        1 X    GLC  0     ROOT GLC X 6
     2 GLP5        3 GROUP        1 Y    GLP  0     ROOT GLP Y 13
     3 GLL5        2 GROUP        1 Z    GLL  0     ROOT GLL Z 20
@<TRIPOS>SET

