#    Name: 4b80_A36_1_ligand
#    Modification time : Tue Mar 25 07:03:56 2014

@<TRIPOS>MOLECULE
4b80_A36_1_ligand
   41    41     1     0     0
SMALL
NO_CHARGES


@<TRIPOS>ATOM
      1 S          29.4310   20.0060   11.3530 S.o2      1 A361543     0.0000 
      2 N1         29.4260   21.0740   12.6600 N.pl3     1 A361543     0.0000 
      3 O1         30.5720   19.1820   11.4800 O.2       1 A361543     0.0000 
      4 C2         31.9770   21.4030    9.0150 C.ar      1 A361543     0.0000 
      5 N2         26.8710   19.5040   14.0560 N.4       1 A361543     0.0000 
      6 O2         28.1370   19.4240   11.3500 O.2       1 A361543     0.0000 
      7 C3         30.8930   21.7880    9.8430 C.ar      1 A361543     0.0000 
      8 C4         29.5960   20.9910    9.8790 C.3       1 A361543     0.0000 
      9 C6         26.9850   18.1820   16.2020 C.3       1 A361543     0.0000 
     10 C7         31.0540   22.9390   10.6550 C.ar      1 A361543     0.0000 
     11 C8         32.2300   23.6810   10.6490 C.ar      1 A361543     0.0000 
     12 C9         33.2660   23.2640    9.8190 C.ar      1 A361543     0.0000 
     13 C10        33.1700   22.1330    8.9910 C.ar      1 A361543     0.0000 
     14 C11        29.1540   20.5150   13.9980 C.3       1 A361543     0.0000 
     15 C12        27.7230   20.6830   14.5570 C.3       1 A361543     0.0000 
     16 C13        25.4100   19.7460   14.2540 C.3       1 A361543     0.0000 
     17 C15        27.2590   18.1840   14.6810 C.3       1 A361543     0.0000 
     18 C14        24.9990   20.9560   13.4660 C.3       1 A361543     0.0000 
     19 F01        34.4270   23.9950    9.8130 F         1 A361543     0.0000 
     20 H          29.6021   21.9820   12.4432 H         1 A361543     0.0000 
     21 H          31.8762   20.5654    8.4203 H         1 A361543     0.0000 
     22 H          27.0485   19.4157   12.9640 H         1 A361543     0.0000 
     23 H          28.7182   21.6132    9.9034 H         1 A361543     0.0000 
     24 H          29.5261   20.2616    9.0907 H         1 A361543     0.0000 
     25 H          30.2670   23.2257   11.2656 H         1 A361543     0.0000 
     26 H          32.3304   24.5048   11.2342 H         1 A361543     0.0000 
     27 H          33.9399   21.8580    8.3981 H         1 A361543     0.0000 
     28 H          29.8583   20.9592   14.7488 H         1 A361543     0.0000 
     29 H          29.3887   19.4187   14.0098 H         1 A361543     0.0000 
     30 H          27.7585   20.6697   15.6308 H         1 A361543     0.0000 
     31 H          27.3076   21.6055   14.1952 H         1 A361543     0.0000 
     32 H          25.2032   19.9119   15.3098 H         1 A361543     0.0000 
     33 H          24.8433   18.8809   13.9143 H         1 A361543     0.0000 
     34 H          28.3209   17.9949   14.5199 H         1 A361543     0.0000 
     35 H          26.6873   17.3750   14.2248 H         1 A361543     0.0000 
     36 H          27.2411   17.3125   16.6244 H         1 A361543     0.0000 
     37 H          27.4988   18.8991   16.6729 H         1 A361543     0.0000 
     38 H          26.0176   18.3330   16.4053 H         1 A361543     0.0000 
     39 H          25.4995   21.7731   13.7521 H         1 A361543     0.0000 
     40 H          25.1674   20.8368   12.4875 H         1 A361543     0.0000 
     41 H          24.0251   21.1561   13.5736 H         1 A361543     0.0000 
@<TRIPOS>BOND
     1    2    1 1    
     2    3    1 2    
     3    6    1 2    
     4    8    1 1    
     5   14    2 1    
     6   20    2 1    
     7    7    4 ar   
     8   13    4 ar   
     9   21    4 1    
    10   15    5 1    
    11   16    5 1    
    12   17    5 1    
    13   22    5 1    
    14    8    7 1    
    15   10    7 ar   
    16   23    8 1    
    17   24    8 1    
    18   17    9 1    
    19   36    9 1    
    20   37    9 1    
    21   38    9 1    
    22   11   10 ar   
    23   25   10 1    
    24   12   11 ar   
    25   26   11 1    
    26   13   12 ar   
    27   19   12 1    
    28   27   13 1    
    29   15   14 1    
    30   28   14 1    
    31   29   14 1    
    32   30   15 1    
    33   31   15 1    
    34   18   16 1    
    35   32   16 1    
    36   33   16 1    
    37   34   17 1    
    38   35   17 1    
    39   39   18 1    
    40   40   18 1    
    41   41   18 1    
@<TRIPOS>SUBSTRUCTURE
     1 A361543     1 GROUP   
@<TRIPOS>SET

