#    Name: 2bxh_IOS_4_INTS_M
#    Modification time : Mon Mar 24 21:53:57 2014

@<TRIPOS>MOLECULE
2bxh_IOS_4_INTS_M
   26     0     9     0     0
SMALL
NO_CHARGES


@<TRIPOS>ATOM
      1 CA         45.6955   37.2145   52.6015 C.3       3 GLC5        0.0000 
      2 CA         45.8080   36.8300   54.4550 C.3       9 GLL5        0.0000 
      3 CA         45.5830   37.5990   50.7480 C.3       6 GLP5        0.0000 
      4 NZ         45.9400   40.9540   56.0085 N.4       2 LYC4        0.0000 
      5 NZ         47.6820   40.5540   56.8040 N.4       8 LYL4        0.0000 
      6 NZ         44.1980   41.3540   55.2130 N.4       5 LYP4        0.0000 
      7 N          46.6695   41.4260   57.7595 N.am      1 SEC2        0.0000 
      8 N          47.6820   40.5540   56.8040 N.am      7 SEL2        0.0000 
      9 N          45.6570   42.2980   58.7150 N.am      4 SEP2        0.0000 
     10 NZ         46.7110   41.4445   58.9655 N.4       2 LYC4        0.0000 
     11 NZ         47.7650   40.5910   59.2160 N.4       8 LYL4        0.0000 
     12 NZ         44.4240   41.9750   59.1010 N.4       5 LYP4        0.0000 
     13 N          46.7110   41.4445   58.9655 N.am      1 SEC2        0.0000 
     14 N          47.7650   40.5910   59.2160 N.am      7 SEL2        0.0000 
     15 CA         47.9055   36.1625   57.8195 C.3       3 GLC5        0.0000 
     16 CA         47.1130   37.8790   57.9110 C.3       9 GLL5        0.0000 
     17 CA         49.0740   34.5930   57.1890 C.3       6 GLP5        0.0000 
     18 CA         47.2080   35.6088   56.4633 C.3       3 GLC5        0.0000 
     19 CA         46.4600   37.4110   56.7320 C.3       9 GLL5        0.0000 
     20 CA         47.8140   33.8010   56.8930 C.3       6 GLP5        0.0000 
     21 CA         46.5080   35.1662   55.8015 C.3       3 GLC5        0.0000 
     22 CA         43.4740   34.4930   55.8495 C.3       3 GLC5        0.0000 
     23 CA         44.5960   36.2330   54.9650 C.3       9 GLL5        0.0000 
     24 CA         42.5060   32.7670   56.0530 C.3       6 GLP5        0.0000 
     25 CA         46.2875   35.1525   56.8317 C.3       3 GLC5        0.0000 
     26 CA         44.2880   36.2050   56.3270 C.3       9 GLL5        0.0000 
@<TRIPOS>BOND
@<TRIPOS>SUBSTRUCTURE
     1 SEC2        7 GROUP        1 X    SEC  0     ROOT SEC X 2
     2 LYC4        4 GROUP        1 X    LYC  0     **** LYC X 4
     3 GLC5        1 GROUP        1 X    GLC  0     **** GLC X 6
     4 SEP2        9 GROUP        1 Y    SEP  0     ROOT SEP Y 9
     5 LYP4        6 GROUP        1 Y    LYP  0     **** LYP Y 11
     6 GLP5        3 GROUP        1 Y    GLP  0     **** GLP Y 13
     7 SEL2        8 GROUP        1 Z    SEL  0     ROOT SEL Z 16
     8 LYL4        5 GROUP        1 Z    LYL  0     **** LYL Z 18
     9 GLL5        2 GROUP        1 Z    GLL  0     **** GLL Z 20
@<TRIPOS>SET

