#    Name: 2bxh_IOS_4_ligand
#    Modification time : Mon Mar 24 21:53:57 2014

@<TRIPOS>MOLECULE
2bxh_IOS_4_ligand
   20    21     1     0     0
SMALL
NO_CHARGES


@<TRIPOS>ATOM
      1 O1         48.3550   38.5530   57.9900 O.3       1 IOS1002     0.0000 
      2 N1         45.1690   36.9050   58.5850 N.pl3     1 IOS1002     0.0000 
      3 C1         46.3610   37.5850   58.9890 C.2       1 IOS1002     0.0000 
      4 C2         47.1130   37.8790   57.9110 C.2       1 IOS1002     0.0000 
      5 C3         46.4600   37.4110   56.7320 C.ar      1 IOS1002     0.0000 
      6 C4         46.7440   37.4220   55.3350 C.ar      1 IOS1002     0.0000 
      7 C5         45.8080   36.8300   54.4550 C.ar      1 IOS1002     0.0000 
      8 C6         44.5960   36.2330   54.9650 C.ar      1 IOS1002     0.0000 
      9 C7         44.2880   36.2050   56.3270 C.ar      1 IOS1002     0.0000 
     10 C8         45.2340   36.8030   57.2140 C.ar      1 IOS1002     0.0000 
     11 S          48.3720   40.0320   58.0000 S.o2      1 IOS1002     0.0000 
     12 O2         49.6880   40.6010   58.0830 O.co2     1 IOS1002     0.0000 
     13 O3         47.6820   40.5540   56.8040 O.co2     1 IOS1002     0.0000 
     14 O4         47.7650   40.5910   59.2160 O.co2     1 IOS1002     0.0000 
     15 H          44.5025   36.6047   59.1594 H         1 IOS1002     0.0000 
     16 H          46.5550   37.7823   59.9103 H         1 IOS1002     0.0000 
     17 H          47.5907   37.8418   54.9886 H         1 IOS1002     0.0000 
     18 H          45.9787   36.8181   53.4499 H         1 IOS1002     0.0000 
     19 H          43.9422   35.8143   54.2779 H         1 IOS1002     0.0000 
     20 H          43.4503   35.7903   56.6787 H         1 IOS1002     0.0000 
@<TRIPOS>BOND
     1    4    1 1    
     2   11    1 1    
     3    3    2 1    
     4   10    2 1    
     5   15    2 1    
     6    4    3 2    
     7   16    3 1    
     8    5    4 1    
     9    6    5 ar   
    10   10    5 ar   
    11    7    6 ar   
    12   17    6 1    
    13    8    7 ar   
    14   18    7 1    
    15    9    8 ar   
    16   19    8 1    
    17   10    9 ar   
    18   20    9 1    
    19   12   11 ar   
    20   13   11 ar   
    21   14   11 ar   
@<TRIPOS>SUBSTRUCTURE
     1 IOS1002     1 GROUP   
@<TRIPOS>SET

