#    Name: 2g44_T3O_1_INTS_M
#    Modification time : Tue Mar 25 13:34:44 2014

@<TRIPOS>MOLECULE
2g44_T3O_1_INTS_M
   52     0     9     0     0
SMALL
NO_CHARGES


@<TRIPOS>ATOM
      1 CA        -22.9590    0.5350   -9.0000 C.3       3 GLC5        0.0000 
      2 CA        -22.7290   -1.0220   -7.7460 C.3       9 GLL5        0.0000 
      3 CA        -23.1890    2.0920  -10.2540 C.3       6 GLP5        0.0000 
      4 CA        -23.8340   -1.9275   -8.8605 C.3       3 GLC5        0.0000 
      5 CA        -24.9390   -2.8330   -9.9750 C.3       6 GLP5        0.0000 
      6 CA        -20.8550   -1.8005   -8.1610 C.3       3 GLC5        0.0000 
      7 CA        -18.9810   -2.5790   -8.5760 C.3       6 GLP5        0.0000 
      8 CA        -25.9460   -0.7650   -6.8630 C.3       3 GLC5        0.0000 
      9 CA        -24.2750   -0.6700   -5.8460 C.3       9 GLL5        0.0000 
     10 CA        -27.6170   -0.8600   -7.8800 C.3       6 GLP5        0.0000 
     11 CA        -26.5395    0.2540   -3.9210 C.3       3 GLC5        0.0000 
     12 CA        -24.6530   -0.3100   -4.4210 C.3       9 GLL5        0.0000 
     13 CA        -28.4260    0.8180   -3.4210 C.3       6 GLP5        0.0000 
     14 CA        -25.6685    3.5545   -5.6690 C.3       3 GLC5        0.0000 
     15 CA        -24.2990    2.2970   -5.0240 C.3       9 GLL5        0.0000 
     16 CA        -27.0380    4.8120   -6.3140 C.3       6 GLP5        0.0000 
     17 CA        -22.0355    2.3045   -1.2960 C.3       3 GLC5        0.0000 
     18 CA        -23.3180    2.5740   -2.7580 C.3       9 GLL5        0.0000 
     19 CA        -20.7530    2.0350    0.1660 C.3       6 GLP5        0.0000 
     20 CA        -23.6610    3.4840   -1.4625 C.3       3 GLC5        0.0000 
     21 CA        -24.0040    4.3940   -0.1670 C.3       6 GLP5        0.0000 
     22 CA        -22.0465    4.2120   -2.1485 C.3       3 GLC5        0.0000 
     23 CA        -20.7750    5.8500   -1.5390 C.3       6 GLP5        0.0000 
     24 CA        -20.9525    3.1700   -6.2750 C.3       3 GLC5        0.0000 
     25 CA        -21.5320    1.2070   -5.7050 C.3       9 GLL5        0.0000 
     26 CA        -20.3730    5.1330   -6.8450 C.3       6 GLP5        0.0000 
     27 CA        -17.8605    1.9510   -9.5100 C.3       3 GLC5        0.0000 
     28 CA        -18.2180    1.3710   -7.5150 C.3       9 GLL5        0.0000 
     29 CA        -17.5030    2.5310  -11.5050 C.3       6 GLP5        0.0000 
     30 CA        -16.4805    0.0480   -5.9295 C.3       3 GLC5        0.0000 
     31 CA        -17.3660    1.8210   -6.5120 C.3       9 GLL5        0.0000 
     32 CA        -15.5950   -1.7250   -5.3470 C.3       6 GLP5        0.0000 
     33 N         -15.1330    3.3415   -7.4015 N.am      2 SEC2        0.0000 
     34 N         -16.0490    2.0080   -6.8200 N.am      8 SEL2        0.0000 
     35 N         -14.2170    4.6750   -7.9830 N.am      5 SEP2        0.0000 
     36 O         -15.4455    1.3190   -7.8510 O.2       1 ALC1        0.0000 
     37 O         -16.0490    2.0080   -6.8200 O.2       7 ALL1        0.0000 
     38 O         -14.8420    0.6300   -8.8820 O.2       4 ALP1        0.0000 
     39 CA        -16.7430    0.5390   -4.6140 C.3       3 GLC5        0.0000 
     40 CA        -17.8640    2.0730   -5.2260 C.3       9 GLL5        0.0000 
     41 CA        -15.6220   -0.9950   -4.0020 C.3       6 GLP5        0.0000 
     42 CA        -19.4330    0.1020   -3.6480 C.3       3 GLC5        0.0000 
     43 CA        -19.2200    1.8750   -4.9460 C.3       9 GLL5        0.0000 
     44 CA        -19.6460   -1.6710   -2.3500 C.3       6 GLP5        0.0000 
     45 CA        -24.8755   -2.3345   -4.8803 C.3       3 GLC5        0.0000 
     46 CA        -25.2870   -4.1790   -4.6270 C.3       6 GLP5        0.0000 
     47 CA        -21.1936   -0.8568   -3.2771 C.3       3 GLC5        0.0000 
     48 CA        -23.4580    0.3030   -3.6840 C.3       9 GLL5        0.0000 
     49 CA        -18.9367   -0.6530   -7.9760 C.3       3 GLC5        0.0000 
     50 CA        -19.5670    1.1750   -7.2370 C.3       9 GLL5        0.0000 
     51 CA        -18.3155    3.8925   -4.5810 C.3       3 GLC5        0.0000 
     52 CA        -18.0890    5.8110   -4.0760 C.3       6 GLP5        0.0000 
@<TRIPOS>BOND
@<TRIPOS>SUBSTRUCTURE
     1 ALC1       36 GROUP        1 X    ALC  0     ROOT ALC X 1
     2 SEC2       33 GROUP        1 X    SEC  0     **** SEC X 2
     3 GLC5        1 GROUP        1 X    GLC  0     **** GLC X 6
     4 ALP1       38 GROUP        1 Y    ALP  0     ROOT ALP Y 8
     5 SEP2       35 GROUP        1 Y    SEP  0     **** SEP Y 9
     6 GLP5        3 GROUP        1 Y    GLP  0     **** GLP Y 13
     7 ALL1       37 GROUP        1 Z    ALL  0     ROOT ALL Z 15
     8 SEL2       34 GROUP        1 Z    SEL  0     **** SEL Z 16
     9 GLL5        2 GROUP        1 Z    GLL  0     **** GLL Z 20
@<TRIPOS>SET

