#    Name: 2g44_T3O_1_ligand
#    Modification time : Tue Mar 25 13:34:44 2014

@<TRIPOS>MOLECULE
2g44_T3O_1_ligand
   41    43     1     0     0
SMALL
NO_CHARGES


@<TRIPOS>ATOM
      1 CAN       -22.2100   -0.5120   -3.9940 C.3       1 T3O700      0.0000 
      2 CAD       -21.8390   -0.2640   -5.4550 C.3       1 T3O700      0.0000 
      3 CAI       -23.0050   -0.6470   -6.3160 C.2       1 T3O700      0.0000 
      4 CAL       -22.7290   -1.0220   -7.7460 C.3       1 T3O700      0.0000 
      5 CAO       -24.2750   -0.6700   -5.8460 C.2       1 T3O700      0.0000 
      6 CAM       -24.6530   -0.3100   -4.4210 C.3       1 T3O700      0.0000 
      7 CAP       -23.4580    0.3030   -3.6840 C.3       1 T3O700      0.0000 
      8 CAK       -23.2440    1.7720   -4.0440 C.3       1 T3O700      0.0000 
      9 CAF       -24.2990    2.2970   -5.0240 C.3       1 T3O700      0.0000 
     10 CAQ       -23.3180    2.5740   -2.7580 C.3       1 T3O700      0.0000 
     11 OAR       -21.9160    1.9820   -4.5580 O.3       1 T3O700      0.0000 
     12 CAB       -21.5320    1.2070   -5.7050 C.3       1 T3O700      0.0000 
     13 CAA       -20.0760    1.4170   -5.9600 C.ar      1 T3O700      0.0000 
     14 CAC       -19.5670    1.1750   -7.2370 C.ar      1 T3O700      0.0000 
     15 CAH       -18.2180    1.3710   -7.5150 C.ar      1 T3O700      0.0000 
     16 CAJ       -17.3660    1.8210   -6.5120 C.ar      1 T3O700      0.0000 
     17 OAS       -16.0490    2.0080   -6.8200 O.3       1 T3O700      0.0000 
     18 CAG       -17.8640    2.0730   -5.2260 C.ar      1 T3O700      0.0000 
     19 CAE       -19.2200    1.8750   -4.9460 C.ar      1 T3O700      0.0000 
     20 H         -21.4011   -0.1916   -3.3592 H         1 T3O700      0.0000 
     21 H         -22.4158   -1.5592   -3.8490 H         1 T3O700      0.0000 
     22 H         -20.9931   -0.8548   -5.7147 H         1 T3O700      0.0000 
     23 H         -25.0846   -0.9411   -6.4448 H         1 T3O700      0.0000 
     24 H         -24.9752   -1.2049   -3.8916 H         1 T3O700      0.0000 
     25 H         -25.4705    0.4088   -4.4306 H         1 T3O700      0.0000 
     26 H         -23.6474    0.2309   -2.6146 H         1 T3O700      0.0000 
     27 H         -22.0897    1.5247   -6.5763 H         1 T3O700      0.0000 
     28 H         -20.2012    0.8465   -7.9832 H         1 T3O700      0.0000 
     29 H         -17.8534    1.1844   -8.4557 H         1 T3O700      0.0000 
     30 H         -17.2309    2.4036   -4.4891 H         1 T3O700      0.0000 
     31 H         -19.5869    2.0616   -4.0113 H         1 T3O700      0.0000 
     32 H         -22.2970   -0.2737   -8.2494 H         1 T3O700      0.0000 
     33 H         -22.1178   -1.8108   -7.8118 H         1 T3O700      0.0000 
     34 H         -23.5677   -1.2594   -8.2362 H         1 T3O700      0.0000 
     35 H         -24.1471    3.2584   -5.2534 H         1 T3O700      0.0000 
     36 H         -24.2941    1.7862   -5.8837 H         1 T3O700      0.0000 
     37 H         -25.2228    2.2280   -4.6473 H         1 T3O700      0.0000 
     38 H         -22.6214    2.2868   -2.1006 H         1 T3O700      0.0000 
     39 H         -23.1818    3.5511   -2.9213 H         1 T3O700      0.0000 
     40 H         -24.2052    2.4730   -2.3078 H         1 T3O700      0.0000 
     41 H         -15.8646    1.3687   -7.5665 H         1 T3O700      0.0000 
@<TRIPOS>BOND
     1    2    1 1    
     2    7    1 1    
     3   20    1 1    
     4   21    1 1    
     5    3    2 1    
     6   12    2 1    
     7   22    2 1    
     8    4    3 1    
     9    5    3 2    
    10   32    4 1    
    11   33    4 1    
    12   34    4 1    
    13    6    5 1    
    14   23    5 1    
    15    7    6 1    
    16   24    6 1    
    17   25    6 1    
    18    8    7 1    
    19   26    7 1    
    20    9    8 1    
    21   10    8 1    
    22   11    8 1    
    23   35    9 1    
    24   36    9 1    
    25   37    9 1    
    26   38   10 1    
    27   39   10 1    
    28   40   10 1    
    29   12   11 1    
    30   13   12 1    
    31   27   12 1    
    32   14   13 ar   
    33   19   13 ar   
    34   15   14 ar   
    35   28   14 1    
    36   16   15 ar   
    37   29   15 1    
    38   17   16 1    
    39   18   16 ar   
    40   41   17 1    
    41   19   18 ar   
    42   30   18 1    
    43   31   19 1    
@<TRIPOS>SUBSTRUCTURE
     1 T3O700      1 GROUP   
@<TRIPOS>SET

