#    Name: 2vqs_BVD_2_INTS_M
#    Modification time : Tue Mar 25 02:47:53 2014

@<TRIPOS>MOLECULE
2vqs_BVD_2_INTS_M
   53     0     9     0     0
SMALL
NO_CHARGES


@<TRIPOS>ATOM
      1 O           8.7810  -19.9195   -4.0705 O.2       1 ALC1        0.0000 
      2 O           9.3200  -20.0420   -5.2590 O.2       7 ALL1        0.0000 
      3 O           8.2420  -19.7970   -2.8820 O.2       4 ALP1        0.0000 
      4 O           9.8715  -19.8215   -3.9770 O.2       1 ALC1        0.0000 
      5 O          10.4230  -19.6010   -2.6950 O.2       4 ALP1        0.0000 
      6 CA          6.7220  -18.8900   -4.5480 C.3       3 GLC5        0.0000 
      7 CA          8.0860  -19.6580   -5.8810 C.3       9 GLL5        0.0000 
      8 CA          5.3580  -18.1220   -3.2150 C.3       6 GLP5        0.0000 
      9 CA          8.8550  -16.5080   -8.6920 C.3       3 GLC5        0.0000 
     10 CA         10.3170  -17.8880   -7.8360 C.3       9 GLL5        0.0000 
     11 CA          7.3930  -15.1280   -9.5480 C.3       6 GLP5        0.0000 
     12 CA         13.0900  -18.8790   -6.3680 C.3       3 GLC5        0.0000 
     13 CA         11.7190  -17.3870   -5.9030 C.3       9 GLL5        0.0000 
     14 CA         14.4610  -20.3710   -6.8330 C.3       6 GLP5        0.0000 
     15 O          14.0415  -14.5715   -7.9770 O.2       1 ALC1        0.0000 
     16 O          13.3400  -15.8510   -7.6090 O.2       7 ALL1        0.0000 
     17 O          14.7430  -13.2920   -8.3450 O.2       4 ALP1        0.0000 
     18 N          15.2215  -14.0735   -6.1340 N.am      2 SEC2        0.0000 
     19 N          14.6420  -15.3380   -5.8440 N.am      8 SEL2        0.0000 
     20 N          15.8010  -12.8090   -6.4240 N.am      5 SEP2        0.0000 
     21 CA         12.8555  -19.1515   -2.5030 C.3       3 GLC5        0.0000 
     22 CA         12.7950  -17.3500   -3.0920 C.3       9 GLL5        0.0000 
     23 CA         12.9160  -20.9530   -1.9140 C.3       6 GLP5        0.0000 
     24 CA         13.9945  -18.6370   -4.4250 C.3       3 GLC5        0.0000 
     25 CA         15.1940  -19.9240   -5.7580 C.3       6 GLP5        0.0000 
     26 CA         13.2985  -16.1690   -0.0375 C.3       3 GLC5        0.0000 
     27 CA         13.9570  -16.9160   -1.6460 C.3       9 GLL5        0.0000 
     28 CA         12.6400  -15.4220    1.5710 C.3       6 GLP5        0.0000 
     29 CA         13.5835  -18.5685   -0.5905 C.3       3 GLC5        0.0000 
     30 CA         13.2100  -20.2210    0.4650 C.3       6 GLP5        0.0000 
     31 CA         15.3770  -15.7415   -1.9005 C.3       3 GLC5        0.0000 
     32 CA         16.7970  -14.5670   -2.1550 C.3       6 GLP5        0.0000 
     33 CA         12.5300  -19.5125   -8.1020 C.3       3 GLC5        0.0000 
     34 CA         10.5750  -19.3490   -8.1760 C.3       9 GLL5        0.0000 
     35 CA         14.4850  -19.6760   -8.0280 C.3       6 GLP5        0.0000 
     36 N           9.4115  -19.3055  -10.7620 N.am      2 SEC2        0.0000 
     37 N           8.6940  -19.6250   -9.5170 N.am      8 SEL2        0.0000 
     38 N          10.1290  -18.9860  -12.0070 N.am      5 SEP2        0.0000 
     39 CA          8.5180  -17.6695   -5.2757 C.3       3 GLC5        0.0000 
     40 CA          8.3960  -18.9880   -7.2120 C.3       9 GLL5        0.0000 
     41 CA          8.7950  -16.0160   -4.0050 C.3       6 GLP5        0.0000 
     42 CA         10.5315  -16.5322   -4.8398 C.3       3 GLC5        0.0000 
     43 CA         12.9413  -15.0215   -3.7582 C.3       3 GLC5        0.0000 
     44 CA         12.8170  -16.7100   -5.4460 C.3       9 GLL5        0.0000 
     45 CA         12.8220  -13.3340   -2.7450 C.3       6 GLP5        0.0000 
     46 CA         14.5043  -17.7475   -5.3293 C.3       3 GLC5        0.0000 
     47 CA         13.3040  -16.7080   -4.0970 C.3       9 GLL5        0.0000 
     48 CA         15.9480  -18.7860   -5.8870 C.3       6 GLP5        0.0000 
     49 CA         11.2652  -16.4600   -3.1858 C.3       3 GLC5        0.0000 
     50 CA          9.4810  -15.8910   -2.7770 C.3       6 GLP5        0.0000 
     51 CA         13.0990  -15.2335   -2.5570 C.3       3 GLC5        0.0000 
     52 CA         10.8325  -21.2850   -9.0840 C.3       3 GLC5        0.0000 
     53 CA         11.7930  -22.9550   -9.9840 C.3       6 GLP5        0.0000 
@<TRIPOS>BOND
@<TRIPOS>SUBSTRUCTURE
     1 ALC1        1 GROUP        1 X    ALC  0     ROOT ALC X 1
     2 SEC2       18 GROUP        1 X    SEC  0     **** SEC X 2
     3 GLC5        6 GROUP        1 X    GLC  0     **** GLC X 6
     4 ALP1        3 GROUP        1 Y    ALP  0     ROOT ALP Y 8
     5 SEP2       20 GROUP        1 Y    SEP  0     **** SEP Y 9
     6 GLP5        8 GROUP        1 Y    GLP  0     **** GLP Y 13
     7 ALL1        2 GROUP        1 Z    ALL  0     ROOT ALL Z 15
     8 SEL2       19 GROUP        1 Z    SEL  0     **** SEL Z 16
     9 GLL5        7 GROUP        1 Z    GLL  0     **** GLL Z 20
@<TRIPOS>SET

