#    Name: 2vqs_BVD_2_ligand
#    Modification time : Tue Mar 25 02:47:53 2014

@<TRIPOS>MOLECULE
2vqs_BVD_2_ligand
   32    33     1     0     0
SMALL
NO_CHARGES


@<TRIPOS>ATOM
      1 O5'         9.3200  -20.0420   -5.2590 O.3       1 BVD1210     0.0000 
      2 C5'         8.0860  -19.6580   -5.8810 C.3       1 BVD1210     0.0000 
      3 C4'         8.3960  -18.9880   -7.2120 C.3       1 BVD1210     0.0000 
      4 O4'         9.1910  -17.8250   -6.9630 O.3       1 BVD1210     0.0000 
      5 C1'        10.3170  -17.8880   -7.8360 C.3       1 BVD1210     0.0000 
      6 N1         11.4650  -17.2550   -7.2060 N.am      1 BVD1210     0.0000 
      7 C6         11.7190  -17.3870   -5.9030 C.2       1 BVD1210     0.0000 
      8 C2         12.2770  -16.4900   -8.0480 C.2       1 BVD1210     0.0000 
      9 O2         11.9760  -16.4140   -9.2520 O.2       1 BVD1210     0.0000 
     10 N3         13.3400  -15.8510   -7.6090 N.am      1 BVD1210     0.0000 
     11 C4         13.6460  -15.9210   -6.3320 C.2       1 BVD1210     0.0000 
     12 O4         14.6420  -15.3380   -5.8440 O.2       1 BVD1210     0.0000 
     13 C5         12.8170  -16.7100   -5.4460 C.2       1 BVD1210     0.0000 
     14 C5A        13.3040  -16.7080   -4.0970 C.2       1 BVD1210     0.0000 
     15 C5B        12.7950  -17.3500   -3.0920 C.2       1 BVD1210     0.0000 
     16 BR         13.9570  -16.9160   -1.6460 Br        1 BVD1210     0.0000 
     17 C2'        10.5750  -19.3490   -8.1760 C.3       1 BVD1210     0.0000 
     18 C3'         9.1690  -19.8810   -8.1920 C.3       1 BVD1210     0.0000 
     19 O3'         8.6940  -19.6250   -9.5170 O.3       1 BVD1210     0.0000 
     20 H           7.5286  -18.9485   -5.2659 H         1 BVD1210     0.0000 
     21 H           7.4477  -20.5220   -6.0768 H         1 BVD1210     0.0000 
     22 H           7.4624  -18.7022   -7.6828 H         1 BVD1210     0.0000 
     23 H          10.0814  -17.3759   -8.7716 H         1 BVD1210     0.0000 
     24 H          11.1497  -17.9450   -5.2812 H         1 BVD1210     0.0000 
     25 H          13.9341  -15.2943   -8.2678 H         1 BVD1210     0.0000 
     26 H          14.1861  -16.0938   -3.9578 H         1 BVD1210     0.0000 
     27 H          12.1680  -17.8844   -2.7837 H         1 BVD1210     0.0000 
     28 H          11.1311  -19.8002   -7.4058 H         1 BVD1210     0.0000 
     29 H          11.0071  -19.4204   -9.1322 H         1 BVD1210     0.0000 
     30 H           9.1398  -20.8571   -7.9033 H         1 BVD1210     0.0000 
     31 H           9.1397  -19.9960   -4.2765 H         1 BVD1210     0.0000 
     32 H           8.6726  -20.5205   -9.9616 H         1 BVD1210     0.0000 
@<TRIPOS>BOND
     1    2    1 1    
     2   31    1 1    
     3    3    2 1    
     4   20    2 1    
     5   21    2 1    
     6    4    3 1    
     7   18    3 1    
     8   22    3 1    
     9    5    4 1    
    10    6    5 1    
    11   17    5 1    
    12   23    5 1    
    13    7    6 1    
    14    8    6 1    
    15   13    7 2    
    16   24    7 1    
    17    9    8 2    
    18   10    8 1    
    19   11   10 1    
    20   25   10 1    
    21   12   11 2    
    22   13   11 1    
    23   14   13 1    
    24   15   14 2    
    25   26   14 1    
    26   16   15 1    
    27   27   15 1    
    28   18   17 1    
    29   28   17 1    
    30   29   17 1    
    31   19   18 1    
    32   30   18 1    
    33   32   19 1    
@<TRIPOS>SUBSTRUCTURE
     1 BVD1210     1 GROUP   
@<TRIPOS>SET

