#    Name: 3ics_FAD_4_INTS_M
#    Modification time : Tue Mar 25 16:18:00 2014

@<TRIPOS>MOLECULE
3ics_FAD_4_INTS_M
  125     0     9     0     0
SMALL
NO_CHARGES


@<TRIPOS>ATOM
      1 N           0.2110   59.7925   20.4355 N.am      2 SEC2        0.0000 
      2 N           1.2750   60.2070   19.2280 N.am      8 SEL2        0.0000 
      3 N          -0.8530   59.3780   21.6430 N.am      5 SEP2        0.0000 
      4 N           2.6530   59.2550   18.9360 N.am      2 SEC2        0.0000 
      5 N           4.0310   58.3030   18.6440 N.am      5 SEP2        0.0000 
      6 CA         -2.0040   62.4350   15.3620 C.3       3 GLC5        0.0000 
      7 CA         -0.9580   60.9220   16.2140 C.3       9 GLL5        0.0000 
      8 CA         -3.0500   63.9480   14.5100 C.3       6 GLP5        0.0000 
      9 CA         -0.2000   62.7145   15.9180 C.3       3 GLC5        0.0000 
     10 CA          0.5580   64.5070   15.6220 C.3       6 GLP5        0.0000 
     11 CA         -3.6215   59.9585   15.8890 C.3       3 GLC5        0.0000 
     12 CA         -1.7010   59.7830   15.5540 C.3       9 GLL5        0.0000 
     13 CA         -5.5420   60.1340   16.2240 C.3       6 GLP5        0.0000 
     14 O          -1.8105   56.8025   14.2815 O.2       1 ALC1        0.0000 
     15 O          -0.9210   57.6280   14.9970 O.2       7 ALL1        0.0000 
     16 O          -2.7000   55.9770   13.5660 O.2       4 ALP1        0.0000 
     17 O          -2.0260   56.9920   13.0225 O.2       1 ALC1        0.0000 
     18 O          -1.3520   58.0070   12.4790 O.2       7 ALL1        0.0000 
     19 CA         -4.1690   59.8710   14.8775 C.3       3 GLC5        0.0000 
     20 CA         -2.7960   59.6080   13.5310 C.3       9 GLL5        0.0000 
     21 CA         -2.9230   61.7780   14.0205 C.3       3 GLC5        0.0000 
     22 CA         -6.2135   60.1090    8.3510 C.3       3 GLC5        0.0000 
     23 CA         -5.9980   61.0190   10.1700 C.3       9 GLL5        0.0000 
     24 CA         -6.4290   59.1990    6.5320 C.3       6 GLP5        0.0000 
     25 CA         -8.0850   61.3865    9.9120 C.3       3 GLC5        0.0000 
     26 CA        -10.1720   61.7540    9.6540 C.3       6 GLP5        0.0000 
     27 CA         -6.9950   63.0180   10.2340 C.3       3 GLC5        0.0000 
     28 CA         -7.9920   65.0170   10.2980 C.3       6 GLP5        0.0000 
     29 O          -7.3135   62.0535    8.2390 O.2       1 ALC1        0.0000 
     30 O          -6.2600   61.9490    9.2160 O.2       7 ALL1        0.0000 
     31 O          -8.3670   62.1580    7.2620 O.2       4 ALP1        0.0000 
     32 N          -8.0300   59.9055    9.4775 N.am      2 SEC2        0.0000 
     33 N          -6.8800   60.0140   10.4230 N.am      8 SEL2        0.0000 
     34 N          -9.1800   59.7970    8.5320 N.am      5 SEP2        0.0000 
     35 CA         -7.3560   60.7380   12.2400 C.3       3 GLC5        0.0000 
     36 CA         -6.6180   59.0890   11.3630 C.3       9 GLL5        0.0000 
     37 CA         -8.0940   62.3870   13.1170 C.3       6 GLP5        0.0000 
     38 CA         -6.6170   57.5520   12.5820 C.3       3 GLC5        0.0000 
     39 CA         -6.6160   56.0150   13.8010 C.3       6 GLP5        0.0000 
     40 CA         -5.5850   57.9135   10.4175 C.3       3 GLC5        0.0000 
     41 CA         -4.5520   56.7380    9.4720 C.3       6 GLP5        0.0000 
     42 CA         -7.3290   58.4325    9.6190 C.3       3 GLC5        0.0000 
     43 CA         -8.0400   57.7760    7.8750 C.3       6 GLP5        0.0000 
     44 CA         -8.6100   59.9860   11.0975 C.3       3 GLC5        0.0000 
     45 CA        -10.6020   60.8830   10.8320 C.3       6 GLP5        0.0000 
     46 N          -5.4525   57.5900   11.8870 N.am      2 SEC2        0.0000 
     47 N          -5.4830   59.1390   12.0940 N.am      8 SEL2        0.0000 
     48 N          -5.4220   56.0410   11.6800 N.am      5 SEP2        0.0000 
     49 CA         -5.0585   60.1315   14.0515 C.3       3 GLC5        0.0000 
     50 CA         -4.5750   60.1290   11.8790 C.3       9 GLL5        0.0000 
     51 N           7.2540   63.5755   23.7745 N.am      2 SEC2        0.0000 
     52 N           8.6140   62.7060   23.1180 N.am      8 SEL2        0.0000 
     53 N           5.8940   64.4450   24.4310 N.am      5 SEP2        0.0000 
     54 N           7.2265   64.0150   24.8060 N.am      2 SEC2        0.0000 
     55 N           8.5590   63.5850   25.1810 N.am      8 SEL2        0.0000 
     56 O          10.5795   62.1775   26.1715 O.2       1 ALC1        0.0000 
     57 O          10.1380   61.9930   24.7780 O.2       7 ALL1        0.0000 
     58 O          11.0210   62.3620   27.5650 O.2       4 ALP1        0.0000 
     59 CA         12.1300   60.4265   18.8180 C.3       3 GLC5        0.0000 
     60 CA         10.9090   59.1400   19.5790 C.3       9 GLL5        0.0000 
     61 CA         13.3510   61.7130   18.0570 C.3       6 GLP5        0.0000 
     62 CA         10.7795   55.7955   17.4565 C.3       3 GLC5        0.0000 
     63 CA         11.1440   58.0090   17.3580 C.3       9 GLL5        0.0000 
     64 CA         10.4150   53.5820   17.5550 C.3       6 GLP5        0.0000 
     65 CA         12.0655   56.5585   18.2865 C.3       3 GLC5        0.0000 
     66 CA         12.9870   55.1080   19.2150 C.3       6 GLP5        0.0000 
     67 CA         12.0690   56.8960   16.2035 C.3       3 GLC5        0.0000 
     68 CA         12.9940   55.7830   15.0490 C.3       6 GLP5        0.0000 
     69 CA         12.2475   59.8610   17.7075 C.3       3 GLC5        0.0000 
     70 CA          8.2130   58.6910   14.7945 C.3       3 GLC5        0.0000 
     71 CA          8.8700   59.7120   16.4040 C.3       9 GLL5        0.0000 
     72 CA          7.5560   57.6700   13.1850 C.3       6 GLP5        0.0000 
     73 CA          8.5860   59.8870   21.6885 C.3       3 GLC5        0.0000 
     74 CA          9.2390   60.8410   20.0060 C.3       9 GLL5        0.0000 
     75 CA          7.9330   58.9330   23.3710 C.3       6 GLP5        0.0000 
     76 CA          7.0555   60.4915   22.1455 C.3       3 GLC5        0.0000 
     77 CA          6.1780   62.0500   20.9200 C.3       9 GLL5        0.0000 
     78 CA          5.7975   62.0765   22.9900 C.3       3 GLC5        0.0000 
     79 CA          5.4170   62.1030   25.0600 C.3       6 GLP5        0.0000 
     80 CA          5.7485   60.3225   21.9040 C.3       3 GLC5        0.0000 
     81 CA          5.3190   58.5950   22.8880 C.3       6 GLP5        0.0000 
     82 O           4.6040   65.2720   20.4370 O.2       1 ALC1        0.0000 
     83 O           5.2620   64.2990   21.1650 O.2       7 ALL1        0.0000 
     84 O           3.9460   66.2450   19.7090 O.2       4 ALP1        0.0000 
     85 O           4.8395   64.6685   19.5425 O.2       1 ALC1        0.0000 
     86 O           4.4170   65.0380   17.9200 O.2       4 ALP1        0.0000 
     87 CA          3.8230   60.8860   22.0680 C.3       3 GLC5        0.0000 
     88 CA          3.6660   62.5330   20.9260 C.3       9 GLL5        0.0000 
     89 CA          3.9800   59.2390   23.2100 C.3       6 GLP5        0.0000 
     90 CA          2.8590   65.2190   18.9720 C.3       3 GLC5        0.0000 
     91 CA          2.6190   63.5040   20.3700 C.3       9 GLL5        0.0000 
     92 CA          3.0990   66.9340   17.5740 C.3       6 GLP5        0.0000 
     93 N          -1.5400   62.2950   21.2505 N.am      2 SEC2        0.0000 
     94 N          -1.0670   62.5450   19.9220 N.am      8 SEL2        0.0000 
     95 N          -2.0130   62.0450   22.5790 N.am      5 SEP2        0.0000 
     96 N          -2.2480   63.3610   19.8815 N.am      2 SEC2        0.0000 
     97 N          -3.4290   64.1770   19.8410 N.am      5 SEP2        0.0000 
     98 N           0.7070   66.0635   19.1140 N.am      2 SEC2        0.0000 
     99 N           0.1250   64.7170   19.0400 N.am      8 SEL2        0.0000 
    100 N           1.2890   67.4100   19.1880 N.am      5 SEP2        0.0000 
    101 CA         -1.0097   58.0643   16.6400 C.3       3 GLC5        0.0000 
    102 CA         -0.7710   56.7370   18.1920 C.3       6 GLP5        0.0000 
    103 CA         -2.2212   58.6608   11.4380 C.3       3 GLC5        0.0000 
    104 CA         -1.3670   59.2150   13.2350 C.3       9 GLL5        0.0000 
    105 CA         -2.3610   57.9100    9.4930 C.3       6 GLP5        0.0000 
    106 CA         -3.5275   59.2605   10.4447 C.3       3 GLC5        0.0000 
    107 CA         -4.8130   61.0930   10.9140 C.3       9 GLL5        0.0000 
    108 CA         -6.5421   61.4898   12.1638 C.3       3 GLC5        0.0000 
    109 CA          9.9738   58.2267   21.0577 C.3       3 GLC5        0.0000 
    110 CA         10.3120   60.0510   20.4440 C.3       9 GLL5        0.0000 
    111 CA          9.3370   56.8580   22.1040 C.3       6 GLP5        0.0000 
    112 CA          7.6075   58.8128   18.8180 C.3       3 GLC5        0.0000 
    113 CA          9.4000   59.8100   17.8130 C.3       9 GLL5        0.0000 
    114 CA          6.1190   57.3630   19.3870 C.3       6 GLP5        0.0000 
    115 CA         10.7021   60.9548   17.4557 C.3       3 GLC5        0.0000 
    116 CA         12.0040   62.3480   17.6910 C.3       6 GLP5        0.0000 
    117 CA         10.6439   61.4642   18.5730 C.3       3 GLC5        0.0000 
    118 CA          8.7920   60.7150   18.6850 C.3       9 GLL5        0.0000 
    119 CA          4.6055   63.1480   22.8242 C.3       3 GLC5        0.0000 
    120 CA          5.0540   63.0210   20.5350 C.3       9 GLL5        0.0000 
    121 CA          4.8510   63.5190   24.9180 C.3       6 GLP5        0.0000 
    122 CA          1.9313   61.9218   21.7545 C.3       3 GLC5        0.0000 
    123 CA          0.7200   60.8250   22.8610 C.3       6 GLP5        0.0000 
    124 CA          2.0438   63.9518   22.0450 C.3       3 GLC5        0.0000 
    125 CA          0.9450   64.8850   23.4420 C.3       6 GLP5        0.0000 
@<TRIPOS>BOND
@<TRIPOS>SUBSTRUCTURE
     1 ALC1       14 GROUP        1 X    ALC  0     ROOT ALC X 1
     2 SEC2        1 GROUP        1 X    SEC  0     **** SEC X 2
     3 GLC5        6 GROUP        1 X    GLC  0     **** GLC X 6
     4 ALP1       16 GROUP        1 Y    ALP  0     ROOT ALP Y 8
     5 SEP2        3 GROUP        1 Y    SEP  0     **** SEP Y 9
     6 GLP5        8 GROUP        1 Y    GLP  0     **** GLP Y 13
     7 ALL1       15 GROUP        1 Z    ALL  0     ROOT ALL Z 15
     8 SEL2        2 GROUP        1 Z    SEL  0     **** SEL Z 16
     9 GLL5        7 GROUP        1 Z    GLL  0     **** GLL Z 20
@<TRIPOS>SET

