#    Name: 3ics_FAD_4_ligand
#    Modification time : Tue Mar 25 16:18:00 2014

@<TRIPOS>MOLECULE
3ics_FAD_4_ligand
   84    89     1     0     0
SMALL
NO_CHARGES


@<TRIPOS>ATOM
      1 PA          0.9930   60.9140   17.9210 P.3       1 FAD555      0.0000 
      2 O1A         1.9700   60.8850   16.7930 O.co2     1 FAD555      0.0000 
      3 O2A         1.2750   60.2070   19.2280 O.co2     1 FAD555      0.0000 
      4 O5B        -0.4260   60.3710   17.4110 O.3       1 FAD555      0.0000 
      5 C5B        -0.9580   60.9220   16.2140 C.3       1 FAD555      0.0000 
      6 C4B        -1.7010   59.7830   15.5540 C.3       1 FAD555      0.0000 
      7 O4B        -2.7400   60.3290   14.7580 O.3       1 FAD555      0.0000 
      8 C3B        -0.7960   59.0000   14.6220 C.3       1 FAD555      0.0000 
      9 O3B        -0.9210   57.6280   14.9970 O.3       1 FAD555      0.0000 
     10 C2B        -1.3670   59.2150   13.2350 C.3       1 FAD555      0.0000 
     11 O2B        -1.3520   58.0070   12.4790 O.3       1 FAD555      0.0000 
     12 C1B        -2.7960   59.6080   13.5310 C.3       1 FAD555      0.0000 
     13 N9A        -3.3990   60.4220   12.4490 N.pl3     1 FAD555      0.0000 
     14 C8A        -2.8890   61.5230   11.8700 C.2       1 FAD555      0.0000 
     15 N7A        -3.7580   61.9450   10.9260 N.2       1 FAD555      0.0000 
     16 C5A        -4.8130   61.0930   10.9140 C.ar      1 FAD555      0.0000 
     17 C6A        -5.9980   61.0190   10.1700 C.ar      1 FAD555      0.0000 
     18 N6A        -6.2600   61.9490    9.2160 N.pl3     1 FAD555      0.0000 
     19 N1A        -6.8800   60.0140   10.4230 N.ar      1 FAD555      0.0000 
     20 C2A        -6.6180   59.0890   11.3630 C.ar      1 FAD555      0.0000 
     21 N3A        -5.4830   59.1390   12.0940 N.ar      1 FAD555      0.0000 
     22 C4A        -4.5750   60.1290   11.8790 C.ar      1 FAD555      0.0000 
     23 N1          8.6140   62.7060   23.1180 N.2       1 FAD555      0.0000 
     24 C2          9.0920   62.7770   24.3840 C.2       1 FAD555      0.0000 
     25 O2          8.5590   63.5850   25.1810 O.2       1 FAD555      0.0000 
     26 N3         10.1380   61.9930   24.7780 N.am      1 FAD555      0.0000 
     27 C4         10.6970   61.1030   23.9160 C.2       1 FAD555      0.0000 
     28 O4         11.6420   60.3580   24.2770 O.2       1 FAD555      0.0000 
     29 C4X        10.2120   61.0180   22.6070 C.2       1 FAD555      0.0000 
     30 N5         10.7600   60.1430   21.7250 N.2       1 FAD555      0.0000 
     31 C5X        10.3120   60.0510   20.4440 C.ar      1 FAD555      0.0000 
     32 C6         10.9090   59.1400   19.5790 C.ar      1 FAD555      0.0000 
     33 C7         10.4610   59.0120   18.2610 C.ar      1 FAD555      0.0000 
     34 C7M        11.1440   58.0090   17.3580 C.3       1 FAD555      0.0000 
     35 C8          9.4000   59.8100   17.8130 C.ar      1 FAD555      0.0000 
     36 C8M         8.8700   59.7120   16.4040 C.3       1 FAD555      0.0000 
     37 C9          8.7920   60.7150   18.6850 C.ar      1 FAD555      0.0000 
     38 C9A         9.2390   60.8410   20.0060 C.ar      1 FAD555      0.0000 
     39 N10         8.6420   61.7620   20.9040 N.pl3     1 FAD555      0.0000 
     40 C10         9.1520   61.8450   22.2240 C.2       1 FAD555      0.0000 
     41 C1'         7.5210   62.6410   20.5050 C.3       1 FAD555      0.0000 
     42 C2'         6.1780   62.0500   20.9200 C.3       1 FAD555      0.0000 
     43 O2'         5.9840   60.7880   20.2500 O.3       1 FAD555      0.0000 
     44 C3'         5.0540   63.0210   20.5350 C.3       1 FAD555      0.0000 
     45 O3'         5.2620   64.2990   21.1650 O.3       1 FAD555      0.0000 
     46 C4'         3.6660   62.5330   20.9260 C.3       1 FAD555      0.0000 
     47 O4'         3.4790   61.2260   20.3750 O.3       1 FAD555      0.0000 
     48 C5'         2.6190   63.5040   20.3700 C.3       1 FAD555      0.0000 
     49 O5'         1.2880   63.0130   20.5570 O.3       1 FAD555      0.0000 
     50 P           0.1540   63.2590   19.4260 P.3       1 FAD555      0.0000 
     51 O1P        -1.0670   62.5450   19.9220 O.co2     1 FAD555      0.0000 
     52 O2P         0.1250   64.7170   19.0400 O.co2     1 FAD555      0.0000 
     53 O3P         0.7410   62.4950   18.1490 O.3       1 FAD555      0.0000 
     54 H          -0.1837   61.2603   15.5416 H         1 FAD555      0.0000 
     55 H          -1.6589   61.7201   16.4089 H         1 FAD555      0.0000 
     56 H          -2.0847   59.1260   16.2999 H         1 FAD555      0.0000 
     57 H           0.1712   59.3710   14.6820 H         1 FAD555      0.0000 
     58 H          -0.8785   60.0216   12.7805 H         1 FAD555      0.0000 
     59 H          -3.3632   58.6929   13.6671 H         1 FAD555      0.0000 
     60 H          -2.0476   61.9423   12.0885 H         1 FAD555      0.0000 
     61 H          -7.1335   61.8553    8.7383 H         1 FAD555      0.0000 
     62 H          -5.5563   62.6455    9.0754 H         1 FAD555      0.0000 
     63 H          -7.3052   58.3137   11.5339 H         1 FAD555      0.0000 
     64 H          10.5087   62.0795   25.7473 H         1 FAD555      0.0000 
     65 H          11.6891   58.5525   19.9098 H         1 FAD555      0.0000 
     66 H           8.0080   61.2957   18.3557 H         1 FAD555      0.0000 
     67 H           7.5173   62.7836   19.4176 H         1 FAD555      0.0000 
     68 H           7.6261   63.6278   20.9718 H         1 FAD555      0.0000 
     69 H           6.1721   61.9317   21.9859 H         1 FAD555      0.0000 
     70 H           5.0703   63.1449   19.4503 H         1 FAD555      0.0000 
     71 H           3.5972   62.5286   21.9933 H         1 FAD555      0.0000 
     72 H           2.8466   63.6609   19.3014 H         1 FAD555      0.0000 
     73 H           2.7670   64.4751   20.8733 H         1 FAD555      0.0000 
     74 H          12.1182   58.2082   17.2515 H         1 FAD555      0.0000 
     75 H          11.0726   57.0780   17.7160 H         1 FAD555      0.0000 
     76 H          10.7444   58.0020   16.4414 H         1 FAD555      0.0000 
     77 H           9.5748   59.9228   15.7266 H         1 FAD555      0.0000 
     78 H           8.5305   58.7942   16.1979 H         1 FAD555      0.0000 
     79 H           8.1133   60.3466   16.2469 H         1 FAD555      0.0000 
     80 H          -1.4350   57.2021   14.2525 H         1 FAD555      0.0000 
     81 H          -1.8611   57.3486   13.0334 H         1 FAD555      0.0000 
     82 H           4.9921   60.6708   20.2013 H         1 FAD555      0.0000 
     83 H           4.7929   64.9571   20.5761 H         1 FAD555      0.0000 
     84 H           2.5269   61.2077   20.0699 H         1 FAD555      0.0000 
@<TRIPOS>BOND
     1    2    1 ar   
     2    3    1 ar   
     3    4    1 1    
     4   53    1 1    
     5    5    4 1    
     6    6    5 1    
     7   54    5 1    
     8   55    5 1    
     9    7    6 1    
    10    8    6 1    
    11   56    6 1    
    12   12    7 1    
    13    9    8 1    
    14   10    8 1    
    15   57    8 1    
    16   80    9 1    
    17   11   10 1    
    18   12   10 1    
    19   58   10 1    
    20   81   11 1    
    21   13   12 1    
    22   59   12 1    
    23   14   13 1    
    24   22   13 1    
    25   15   14 2    
    26   60   14 1    
    27   16   15 1    
    28   17   16 ar   
    29   22   16 ar   
    30   18   17 1    
    31   19   17 ar   
    32   61   18 1    
    33   62   18 1    
    34   20   19 ar   
    35   21   20 ar   
    36   63   20 1    
    37   22   21 ar   
    38   24   23 1    
    39   40   23 2    
    40   25   24 2    
    41   26   24 am   
    42   27   26 am   
    43   64   26 1    
    44   28   27 2    
    45   29   27 1    
    46   30   29 2    
    47   40   29 1    
    48   31   30 1    
    49   32   31 ar   
    50   38   31 ar   
    51   33   32 ar   
    52   65   32 1    
    53   34   33 1    
    54   35   33 ar   
    55   74   34 1    
    56   75   34 1    
    57   76   34 1    
    58   36   35 1    
    59   37   35 ar   
    60   77   36 1    
    61   78   36 1    
    62   79   36 1    
    63   38   37 ar   
    64   66   37 1    
    65   39   38 1    
    66   40   39 1    
    67   41   39 1    
    68   42   41 1    
    69   67   41 1    
    70   68   41 1    
    71   43   42 1    
    72   44   42 1    
    73   69   42 1    
    74   82   43 1    
    75   45   44 1    
    76   46   44 1    
    77   70   44 1    
    78   83   45 1    
    79   47   46 1    
    80   48   46 1    
    81   71   46 1    
    82   84   47 1    
    83   49   48 1    
    84   72   48 1    
    85   73   48 1    
    86   50   49 1    
    87   51   50 ar   
    88   52   50 ar   
    89   53   50 1    
@<TRIPOS>SUBSTRUCTURE
     1 FAD555      1 GROUP   
@<TRIPOS>SET

