#    Name: 4D96_1_CAVITY_N1_6.mol2
#    Modification time : Mon Mar 10 13:28:08 2014

@<TRIPOS>MOLECULE
4D96_1_CAVITY_N1_6.mol2
   47     0     5     0     0
SMALL
NO_CHARGES


@<TRIPOS>ATOM
      1 CA         -2.3732   31.6197   13.3760 C.3       5 GLY6        0.0000 
      2 O          -3.5175   31.2691   14.2802 O.2       2 ALA2        0.0000 
      3 CA          0.0772   35.3705   12.9547 C.3       5 GLY6        0.0000 
      4 OG         -1.0672   35.0199   13.8589 O.2       1 SER1        0.0000 
      5 CZ         -2.2116   34.6693   14.7630 C.ar      4 PHE5        0.0000 
      6 O          -1.5643   34.0312   12.8463 O.2       2 ALA2        0.0000 
      7 CZ         -2.7087   33.6806   13.7505 C.ar      4 PHE5        0.0000 
      8 OG         -1.0910   38.5035   12.6910 O.2       1 SER1        0.0000 
      9 CA         -0.7555   36.4426   12.3166 C.3       5 GLY6        0.0000 
     10 OG         -1.8999   36.0920   13.2207 O.2       1 SER1        0.0000 
     11 CA         -1.2526   35.4539   11.3040 C.3       5 GLY6        0.0000 
     12 OG         -2.3970   35.1033   12.2082 O.2       1 SER1        0.0000 
     13 N          -1.1935   33.1631   17.9560 N.2       2 ALA2        0.0000 
     14 O          -0.5463   32.5250   16.0392 O.2       2 ALA2        0.0000 
     15 O          -1.6906   32.1744   16.9434 O.2       2 ALA2        0.0000 
     16 OG         -2.8350   31.8238   17.8476 O.2       1 SER1        0.0000 
     17 O          -1.0434   31.5363   15.0267 O.2       2 ALA2        0.0000 
     18 O          -2.1877   31.1857   15.9309 O.2       2 ALA2        0.0000 
     19 CA         -3.3321   30.8351   16.8350 C.3       5 GLY6        0.0000 
     20 OG         -0.3962   30.8981   13.1099 O.2       1 SER1        0.0000 
     21 O          -1.5405   30.5475   14.0141 O.2       2 ALA2        0.0000 
     22 N          -2.6849   30.1969   14.9183 N.2       2 ALA2        0.0000 
     23 OG         -0.9056   38.0695   15.2459 O.2       1 SER1        0.0000 
     24 CA         -0.2584   37.4314   13.3291 C.3       5 GLY6        0.0000 
     25 OG         -1.4027   37.0808   14.2333 O.2       1 SER1        0.0000 
     26 O           0.7597   35.9252   16.5221 O.2       2 ALA2        0.0000 
     27 CA         -0.3847   35.5746   17.4263 C.3       5 GLY6        0.0000 
     28 O          -1.5290   35.2240   18.3304 O.2       2 ALA2        0.0000 
     29 O          -2.6734   34.8734   19.2346 O.2       2 ALA2        0.0000 
     30 CA          0.2626   34.9365   15.5095 C.3       5 GLY6        0.0000 
     31 CA         -0.8818   34.5859   16.4137 C.3       5 GLY6        0.0000 
     32 CZ         -2.0261   34.2353   17.3179 C.ar      4 PHE5        0.0000 
     33 CA         -0.2346   33.9477   14.4970 C.3       5 GLY6        0.0000 
     34 CZ         -1.3789   33.5971   15.4011 C.ar      4 PHE5        0.0000 
     35 CZ         -2.5233   33.2465   16.3053 C.ar      4 PHE5        0.0000 
     36 OD1        -0.7317   32.9590   13.4844 O.3       3 ASP3        0.0000 
     37 CZ         -1.8760   32.6084   14.3886 C.ar      4 PHE5        0.0000 
     38 CZ         -3.0204   32.2578   15.2927 C.ar      4 PHE5        0.0000 
     39 CA         -1.5882   37.5148   11.6785 C.3       5 GLY6        0.0000 
     40 CA         -1.2765   38.9375   10.1362 C.3       5 GLY6        0.0000 
     41 O          -0.0730   36.9973   15.8840 O.2       2 ALA2        0.0000 
     42 O          -1.2173   36.6467   16.7882 O.2       2 ALA2        0.0000 
     43 CA          0.5743   36.3592   13.9672 C.3       5 GLY6        0.0000 
     44 OG         -0.5701   36.0086   14.8714 O.2       1 SER1        0.0000 
     45 CZ         -1.7144   35.6580   15.7756 C.ar      4 PHE5        0.0000 
     46 O          -1.3551   30.1135   16.5690 O.2       2 ALA2        0.0000 
     47 OG         -0.7079   29.4754   14.6522 O.2       1 SER1        0.0000 
@<TRIPOS>BOND
@<TRIPOS>SUBSTRUCTURE
     1 SER1        4 GROUP   
     2 ALA2        2 GROUP   
     3 ASP3       36 GROUP   
     4 PHE5        5 GROUP   
     5 GLY6        1 GROUP   
@<TRIPOS>SET

