#    Name: 4d96_5PA_1_INTS_M
#    Modification time : Tue Mar 25 09:25:37 2014

@<TRIPOS>MOLECULE
4d96_5PA_1_INTS_M
   88     0    12     0     0
SMALL
NO_CHARGES


@<TRIPOS>ATOM
      1 CA         -3.1975   34.1125   15.1125 C.3       4 GLC5        0.0000 
      2 CA         -1.4060   33.8550   15.0690 C.3      12 GLL5        0.0000 
      3 CA         -4.9890   34.3700   15.1560 C.3       8 GLP5        0.0000 
      4 NZ          0.9190   32.2740   13.3320 N.4       3 LYC4        0.0000 
      5 NZ         -0.4800   32.0460   12.7970 N.4      11 LYL4        0.0000 
      6 NZ          2.3180   32.5020   13.8670 N.4       7 LYP4        0.0000 
      7 N           0.9190   32.2740   13.3320 N.am      2 SEC2        0.0000 
      8 N          -0.4800   32.0460   12.7970 N.am     10 SEL2        0.0000 
      9 N           2.3180   32.5020   13.8670 N.am      6 SEP2        0.0000 
     10 N          -1.3055   31.9575   11.6085 N.am      2 SEC2        0.0000 
     11 N          -2.1310   31.8690   10.4200 N.am      6 SEP2        0.0000 
     12 N           0.1725   32.3545   11.7760 N.am      2 SEC2        0.0000 
     13 N           0.8250   32.6630   10.7550 N.am      6 SEP2        0.0000 
     14 N          -2.7250   29.7610   12.2150 N.am      2 SEC2        0.0000 
     15 N          -1.3510   29.7320   12.5130 N.am     10 SEL2        0.0000 
     16 N          -4.0990   29.7900   11.9170 N.am      6 SEP2        0.0000 
     17 N          -1.0310   29.7090   11.1775 N.am      2 SEC2        0.0000 
     18 N          -0.7110   29.6860    9.8420 N.am      6 SEP2        0.0000 
     19 NZ          1.6500   31.2900   13.6890 N.4       3 LYC4        0.0000 
     20 NZ          0.9820   30.0780   13.5110 N.4      11 LYL4        0.0000 
     21 NZ          2.6475   29.9915   14.2500 N.4       3 LYC4        0.0000 
     22 NZ          4.3130   29.9050   14.9890 N.4       7 LYP4        0.0000 
     23 N           1.6500   31.2900   13.6890 N.am      2 SEC2        0.0000 
     24 N           0.9820   30.0780   13.5110 N.am     10 SEL2        0.0000 
     25 N           1.6535   28.7425   13.2310 N.am      2 SEC2        0.0000 
     26 N           2.3250   27.4070   12.9510 N.am      6 SEP2        0.0000 
     27 N           1.4470   29.3680   14.5005 N.am      2 SEC2        0.0000 
     28 N           1.9120   28.6580   15.4900 N.am      6 SEP2        0.0000 
     29 N           0.0050   30.7635   16.0290 N.am      2 SEC2        0.0000 
     30 N          -0.9760   30.6830   14.7940 N.am     10 SEL2        0.0000 
     31 N           0.9860   30.8440   17.2640 N.am      6 SEP2        0.0000 
     32 CA         -3.2935   31.0740   13.1855 C.3       4 GLC5        0.0000 
     33 CA         -2.3300   31.0480   15.0710 C.3      12 GLL5        0.0000 
     34 CA         -4.2570   31.1000   11.3000 C.3       8 GLP5        0.0000 
     35 CA         -3.8570   32.2845   15.6245 C.3       4 GLC5        0.0000 
     36 CA         -5.3840   33.5210   16.1780 C.3       8 GLP5        0.0000 
     37 N          -2.5010   30.8950   19.4855 N.am      2 SEC2        0.0000 
     38 N          -2.6960   31.8980   18.7090 N.am     10 SEL2        0.0000 
     39 N          -2.3060   29.8920   20.2620 N.am      6 SEP2        0.0000 
     40 CA         -4.2230   30.0475   17.3035 C.3       4 GLC5        0.0000 
     41 CA         -2.7060   31.2350   17.5490 C.3      12 GLL5        0.0000 
     42 CA         -5.7400   28.8600   17.0580 C.3       8 GLP5        0.0000 
     43 CA         -1.7985   30.4835   18.9020 C.3       4 GLC5        0.0000 
     44 CA         -0.8910   29.7320   20.2550 C.3       8 GLP5        0.0000 
     45 CA         -3.6060   34.5255   18.9985 C.3       4 GLC5        0.0000 
     46 CA         -2.3080   33.8290   20.1900 C.3      12 GLL5        0.0000 
     47 CA         -4.9040   35.2220   17.8070 C.3       8 GLP5        0.0000 
     48 CA         -1.6305   33.4440   21.9860 C.3       4 GLC5        0.0000 
     49 CA         -0.9530   33.0590   23.7820 C.3       8 GLP5        0.0000 
     50 CA         -2.6620   34.9640   21.5090 C.3       4 GLC5        0.0000 
     51 CA         -3.0160   36.0990   22.8280 C.3       8 GLP5        0.0000 
     52 N          -1.8515   36.3150   18.6525 N.am      2 SEC2        0.0000 
     53 N          -1.4180   35.2620   17.8150 N.am     10 SEL2        0.0000 
     54 N          -2.2850   37.3680   19.4900 N.am      6 SEP2        0.0000 
     55 O          -0.1620   35.1520   18.8765 O.2       1 ALC1        0.0000 
     56 O          -1.4180   35.2620   17.8150 O.2       9 ALL1        0.0000 
     57 O           1.0940   35.0420   19.9380 O.2       5 ALP1        0.0000 
     58 N          -0.1765   39.2220   15.1535 N.am      2 SEC2        0.0000 
     59 N          -0.6730   37.7910   15.6220 N.am     10 SEL2        0.0000 
     60 N           0.3200   40.6530   14.6850 N.am      6 SEP2        0.0000 
     61 N          -0.5545   38.7755   16.6605 N.am      2 SEC2        0.0000 
     62 N          -0.4360   39.7600   17.6990 N.am      6 SEP2        0.0000 
     63 N           0.6390   38.2230   16.2630 N.am      2 SEC2        0.0000 
     64 N           1.9510   38.6550   16.9040 N.am      6 SEP2        0.0000 
     65 N          -0.1770   39.5580   14.1070 N.am      2 SEC2        0.0000 
     66 N          -0.6740   38.4630   13.5290 N.am     10 SEL2        0.0000 
     67 CA          1.0530   34.4875   13.9955 C.3       4 GLC5        0.0000 
     68 CA         -0.3000   35.4820   13.0020 C.3      12 GLL5        0.0000 
     69 CA          2.4060   33.4930   14.9890 C.3       8 GLP5        0.0000 
     70 CA          1.2725   36.7230   13.8715 C.3       4 GLC5        0.0000 
     71 CA          2.8450   37.9640   14.7410 C.3       8 GLP5        0.0000 
     72 CA          1.2265   35.3975   12.2490 C.3       4 GLC5        0.0000 
     73 CA          2.7530   35.3130   11.4960 C.3       8 GLP5        0.0000 
     74 CA         -0.8580   36.4785   10.6220 C.3       4 GLC5        0.0000 
     75 CA         -1.7170   35.8770   12.5990 C.3      12 GLL5        0.0000 
     76 CA          0.0010   37.0800    8.6450 C.3       8 GLP5        0.0000 
     77 CA          0.3913   33.5195   15.3543 C.3       4 GLC5        0.0000 
     78 CA         -4.1555   32.2677   17.7860 C.3       4 GLC5        0.0000 
     79 CA         -2.3120   31.8300   16.3630 C.3      12 GLL5        0.0000 
     80 CA         -5.8020   33.0030   18.6160 C.3       8 GLP5        0.0000 
     81 CA         -3.9262   33.2867   18.4375 C.3       4 GLC5        0.0000 
     82 CA         -2.2820   33.1820   18.8430 C.3      12 GLL5        0.0000 
     83 CA         -1.5930   31.6187   19.8858 C.3       4 GLC5        0.0000 
     84 CA         -3.0107   35.8368   14.3853 C.3       4 GLC5        0.0000 
     85 CA         -1.2260   36.1720   14.0080 C.3      12 GLL5        0.0000 
     86 CA         -4.5500   35.6490   15.4670 C.3       8 GLP5        0.0000 
     87 CA         -0.5312   34.3903   11.2647 C.3       4 GLC5        0.0000 
     88 CA         -0.0540   33.1010    9.7290 C.3       8 GLP5        0.0000 
@<TRIPOS>BOND
@<TRIPOS>SUBSTRUCTURE
     1 ALC1       55 GROUP        1 X    ALC  0     ROOT ALC X 1
     2 SEC2        7 GROUP        1 X    SEC  0     **** SEC X 2
     3 LYC4        4 GROUP        1 X    LYC  0     **** LYC X 4
     4 GLC5        1 GROUP        1 X    GLC  0     **** GLC X 6
     5 ALP1       57 GROUP        1 Y    ALP  0     ROOT ALP Y 8
     6 SEP2        9 GROUP        1 Y    SEP  0     **** SEP Y 9
     7 LYP4        6 GROUP        1 Y    LYP  0     **** LYP Y 11
     8 GLP5        3 GROUP        1 Y    GLP  0     **** GLP Y 13
     9 ALL1       56 GROUP        1 Z    ALL  0     ROOT ALL Z 15
    10 SEL2        8 GROUP        1 Z    SEL  0     **** SEL Z 16
    11 LYL4        5 GROUP        1 Z    LYL  0     **** LYL Z 18
    12 GLL5        2 GROUP        1 Z    GLL  0     **** GLL Z 20
@<TRIPOS>SET

