#    Name: 4d96_5PA_1_ligand
#    Modification time : Tue Mar 25 09:25:37 2014

@<TRIPOS>MOLECULE
4d96_5PA_1_ligand
   35    36     1     0     0
SMALL
NO_CHARGES


@<TRIPOS>ATOM
      1 C4         -1.8410   33.2370   16.3700 C.ar      1 5PA501      0.0000 
      2 C4A        -1.4060   33.8550   15.0690 C.3       1 5PA501      0.0000 
      3 P          -0.4000   30.6190   13.2870 P.3       1 5PA501      0.0000 
      4 O1P        -0.4800   32.0460   12.7970 O.co2     1 5PA501      0.0000 
      5 O2P        -1.3510   29.7320   12.5130 O.co2     1 5PA501      0.0000 
      6 O3P         0.9820   30.0780   13.5110 O.co2     1 5PA501      0.0000 
      7 O4P        -0.9760   30.6830   14.7940 O.3       1 5PA501      0.0000 
      8 C5A        -2.3300   31.0480   15.0710 C.3       1 5PA501      0.0000 
      9 C5         -2.3120   31.8300   16.3630 C.ar      1 5PA501      0.0000 
     10 N1         -2.6960   31.8980   18.7090 N.ar      1 5PA501      0.0000 
     11 C6         -2.7060   31.2350   17.5490 C.ar      1 5PA501      0.0000 
     12 C2         -2.2820   33.1820   18.8430 C.ar      1 5PA501      0.0000 
     13 C2A        -2.3080   33.8290   20.1900 C.3       1 5PA501      0.0000 
     14 C3         -1.8190   33.9590   17.6750 C.ar      1 5PA501      0.0000 
     15 O3         -1.4180   35.2620   17.8150 O.3       1 5PA501      0.0000 
     16 N          -1.5790   35.2850   15.1090 N.4       1 5PA501      0.0000 
     17 C8         -1.2260   36.1720   14.0080 C.3       1 5PA501      0.0000 
     18 C7         -0.8240   37.5740   14.4000 C.2       1 5PA501      0.0000 
     19 O7         -0.6730   37.7910   15.6220 O.co2     1 5PA501      0.0000 
     20 O8         -0.6740   38.4630   13.5290 O.co2     1 5PA501      0.0000 
     21 C9         -0.3000   35.4820   13.0020 C.3       1 5PA501      0.0000 
     22 C10        -1.7170   35.8770   12.5990 C.3       1 5PA501      0.0000 
     23 H          -1.9976   33.4088   14.2566 H         1 5PA501      0.0000 
     24 H          -0.3536   33.5899   14.8923 H         1 5PA501      0.0000 
     25 H          -2.9630   30.1767   15.2048 H         1 5PA501      0.0000 
     26 H          -2.7445   31.6797   14.2920 H         1 5PA501      0.0000 
     27 H          -3.0187   30.2314   17.5144 H         1 5PA501      0.0000 
     28 H          -0.3064   34.5586   13.2004 H         1 5PA501      0.0000 
     29 H           0.2872   36.1393   12.6626 H         1 5PA501      0.0000 
     30 H          -1.6599   36.6787   12.0990 H         1 5PA501      0.0000 
     31 H          -2.2535   35.0981   12.6368 H         1 5PA501      0.0000 
     32 H          -1.7307   33.3434   20.8465 H         1 5PA501      0.0000 
     33 H          -1.9812   34.7734   20.1547 H         1 5PA501      0.0000 
     34 H          -3.2315   33.8525   20.5730 H         1 5PA501      0.0000 
     35 H          -0.4467   35.2103   18.0472 H         1 5PA501      0.0000 
@<TRIPOS>BOND
     1    2    1 1    
     2    9    1 ar   
     3   14    1 ar   
     4   16    2 1    
     5   23    2 1    
     6   24    2 1    
     7    4    3 ar   
     8    5    3 ar   
     9    6    3 ar   
    10    7    3 1    
    11    8    7 1    
    12    9    8 1    
    13   25    8 1    
    14   26    8 1    
    15   11    9 ar   
    16   11   10 ar   
    17   12   10 ar   
    18   27   11 1    
    19   13   12 1    
    20   14   12 ar   
    21   32   13 1    
    22   33   13 1    
    23   34   13 1    
    24   15   14 1    
    25   35   15 1    
    26   17   16 1    
    27   18   17 1    
    28   21   17 1    
    29   22   17 1    
    30   19   18 ar   
    31   20   18 ar   
    32   22   21 1    
    33   28   21 1    
    34   29   21 1    
    35   30   22 1    
    36   31   22 1    
@<TRIPOS>SUBSTRUCTURE
     1 5PA501      1 GROUP   
@<TRIPOS>SET

