#    Name: 4c3f_7KW_1_INTS_M
#    Modification time : Tue Mar 25 08:47:01 2014

@<TRIPOS>MOLECULE
4c3f_7KW_1_INTS_M
   62     0     9     0     0
SMALL
NO_CHARGES


@<TRIPOS>ATOM
      1 CA         19.8190    4.8345   55.1050 C.3       3 GLC5        0.0000 
      2 CA         20.6390    6.2420   53.9620 C.3       9 GLL5        0.0000 
      3 CA         18.9990    3.4270   56.2480 C.3       6 GLP5        0.0000 
      4 CA         23.1595    9.7400   54.8305 C.3       3 GLC5        0.0000 
      5 CA         21.9960    8.2500   53.9810 C.3       9 GLL5        0.0000 
      6 CA         24.3230   11.2300   55.6800 C.3       6 GLP5        0.0000 
      7 CA         24.0645    8.0320   53.8750 C.3       3 GLC5        0.0000 
      8 CA         26.1330    7.8140   53.7690 C.3       6 GLP5        0.0000 
      9 CA         22.2840   11.7035   49.9235 C.3       3 GLC5        0.0000 
     10 CA         22.3700   12.1090   51.9560 C.3       9 GLL5        0.0000 
     11 CA         22.1980   11.2980   47.8910 C.3       6 GLP5        0.0000 
     12 CA         27.0165    7.3150   50.5220 C.3       3 GLC5        0.0000 
     13 CA         25.1430    8.2950   50.5590 C.3       9 GLL5        0.0000 
     14 CA         28.8900    6.3350   50.4850 C.3       6 GLP5        0.0000 
     15 CA         25.5515    7.8285   48.6785 C.3       3 GLC5        0.0000 
     16 CA         25.9600    7.3620   46.7980 C.3       6 GLP5        0.0000 
     17 N          27.2320    8.4865   49.5075 N.am      2 SEC2        0.0000 
     18 N          26.2020    9.1280   50.3530 N.am      8 SEL2        0.0000 
     19 N          28.2620    7.8450   48.6620 N.am      5 SEP2        0.0000 
     20 CA         27.0750   11.1455   52.4610 C.3       3 GLC5        0.0000 
     21 CA         26.1540   10.4260   50.6750 C.3       9 GLL5        0.0000 
     22 CA         27.9960   11.8650   54.2470 C.3       6 GLP5        0.0000 
     23 CA         26.1435    9.1200   52.2220 C.3       3 GLC5        0.0000 
     24 CA         26.4560    9.5345   48.7895 C.3       3 GLC5        0.0000 
     25 CA         26.7580    8.6430   46.9040 C.3       6 GLP5        0.0000 
     26 CA         26.2000   12.0300   49.1030 C.3       3 GLC5        0.0000 
     27 CA         26.2460   13.6340   47.5310 C.3       6 GLP5        0.0000 
     28 O          27.9660   10.9290   49.2065 O.2       1 ALC1        0.0000 
     29 O          27.2590   11.1810   50.4240 O.2       7 ALL1        0.0000 
     30 O          28.6730   10.6770   47.9890 O.2       4 ALP1        0.0000 
     31 CA         27.0720   14.4430   53.2995 C.3       3 GLC5        0.0000 
     32 CA         26.7750   14.7340   51.3560 C.3       9 GLL5        0.0000 
     33 CA         27.3690   14.1520   55.2430 C.3       6 GLP5        0.0000 
     34 CA         20.9430    7.8886   55.8476 C.3       3 GLC5        0.0000 
     35 CA         21.7610    6.9510   54.4330 C.3       9 GLL5        0.0000 
     36 CA         20.2880    8.3540   57.6060 C.3       6 GLP5        0.0000 
     37 CA         22.4840    6.8268   52.7728 C.3       3 GLC5        0.0000 
     38 CA         23.4000    5.1250   52.0450 C.3       6 GLP5        0.0000 
     39 CA         19.2514    8.7154   54.2094 C.3       3 GLC5        0.0000 
     40 CA         21.1400    8.8070   53.0200 C.3       9 GLL5        0.0000 
     41 CA         18.3320    9.7850   55.5190 C.3       6 GLP5        0.0000 
     42 CA         21.9428    5.9174   52.8269 C.3       3 GLC5        0.0000 
     43 CA         19.7710    6.8230   53.0200 C.3       9 GLL5        0.0000 
     44 CA         22.7482    9.6700   50.0495 C.3       3 GLC5        0.0000 
     45 CA         22.6470   10.8030   52.0260 C.3       9 GLL5        0.0000 
     46 CA         22.2100    8.8570   48.3450 C.3       6 GLP5        0.0000 
     47 CA         23.7701   11.0198   53.7082 C.3       3 GLC5        0.0000 
     48 CA         23.9260   10.1630   51.4820 C.3       9 GLL5        0.0000 
     49 CA         23.9742    6.8413   51.4483 C.3       3 GLC5        0.0000 
     50 CA         23.9540    8.8200   51.1440 C.3       9 GLL5        0.0000 
     51 CA         23.3792    8.7073   49.5983 C.3       3 GLC5        0.0000 
     52 CA         25.3372    8.3536   52.3525 C.3       3 GLC5        0.0000 
     53 CA         26.6065   13.2937   49.2148 C.3       3 GLC5        0.0000 
     54 CA         26.5080   13.3720   51.2130 C.3       9 GLL5        0.0000 
     55 CA         26.8085   14.3245   49.3260 C.3       3 GLC5        0.0000 
     56 CA         29.0360   14.3330   52.4420 C.3       3 GLC5        0.0000 
     57 CA         27.9670   15.2960   50.8860 C.3       9 GLL5        0.0000 
     58 CA         29.6340   13.7750   54.3130 C.3       6 GLP5        0.0000 
     59 CA         27.5098   13.7135   48.8578 C.3       3 GLC5        0.0000 
     60 CA         28.9090   14.4860   50.2560 C.3       9 GLL5        0.0000 
     61 CA         27.8992   12.4459   52.3764 C.3       3 GLC5        0.0000 
     62 CA         28.6380   13.1000   50.1130 C.3       9 GLL5        0.0000 
@<TRIPOS>BOND
@<TRIPOS>SUBSTRUCTURE
     1 ALC1       28 GROUP        1 X    ALC  0     ROOT ALC X 1
     2 SEC2       17 GROUP        1 X    SEC  0     **** SEC X 2
     3 GLC5        1 GROUP        1 X    GLC  0     **** GLC X 6
     4 ALP1       30 GROUP        1 Y    ALP  0     ROOT ALP Y 8
     5 SEP2       19 GROUP        1 Y    SEP  0     **** SEP Y 9
     6 GLP5        3 GROUP        1 Y    GLP  0     **** GLP Y 13
     7 ALL1       29 GROUP        1 Z    ALL  0     ROOT ALL Z 15
     8 SEL2       18 GROUP        1 Z    SEL  0     **** SEL Z 16
     9 GLL5        2 GROUP        1 Z    GLL  0     **** GLL Z 20
@<TRIPOS>SET

