#    Name: 4c3f_7KW_1_ligand
#    Modification time : Tue Mar 25 08:47:01 2014

@<TRIPOS>MOLECULE
4c3f_7KW_1_ligand
   39    42     1     0     0
SMALL
NO_CHARGES


@<TRIPOS>ATOM
      1 C1         20.6390    6.2420   53.9620 C.ar      1 7KW1499     0.0000 
      2 C2         21.7610    6.9510   54.4330 C.ar      1 7KW1499     0.0000 
      3 C3         21.9960    8.2500   53.9810 C.ar      1 7KW1499     0.0000 
      4 C4         21.1400    8.8070   53.0200 C.ar      1 7KW1499     0.0000 
      5 C5         20.0010    8.1300   52.5390 C.ar      1 7KW1499     0.0000 
      6 C6         19.7710    6.8230   53.0200 C.ar      1 7KW1499     0.0000 
      7 C7         21.4350   10.2110   52.6010 C.2       1 7KW1499     0.0000 
      8 C9         22.6470   10.8030   52.0260 C.2       1 7KW1499     0.0000 
      9 C8         22.3700   12.1090   51.9560 C.2       1 7KW1499     0.0000 
     10 N2         21.1580   12.3210   52.4210 N.pl3     1 7KW1499     0.0000 
     11 N1         20.6360   11.1480   52.8230 N.2       1 7KW1499     0.0000 
     12 C10        23.9260   10.1630   51.4820 C.ar      1 7KW1499     0.0000 
     13 C14        23.9540    8.8200   51.1440 C.ar      1 7KW1499     0.0000 
     14 C13        25.1430    8.2950   50.5590 C.ar      1 7KW1499     0.0000 
     15 N3         26.2020    9.1280   50.3530 N.ar      1 7KW1499     0.0000 
     16 C12        26.1540   10.4260   50.6750 C.ar      1 7KW1499     0.0000 
     17 N4         27.2590   11.1810   50.4240 N.pl3     1 7KW1499     0.0000 
     18 C15        27.4260   12.5350   50.5840 C.ar      1 7KW1499     0.0000 
     19 C20        26.5080   13.3720   51.2130 C.ar      1 7KW1499     0.0000 
     20 C19        26.7750   14.7340   51.3560 C.ar      1 7KW1499     0.0000 
     21 C18        27.9670   15.2960   50.8860 C.ar      1 7KW1499     0.0000 
     22 C17        28.9090   14.4860   50.2560 C.ar      1 7KW1499     0.0000 
     23 N9         25.0130   10.9360   51.2460 N.ar      1 7KW1499     0.0000 
     24 C16        28.6380   13.1000   50.1130 C.ar      1 7KW1499     0.0000 
     25 H          20.4540    5.2942   54.3092 H         1 7KW1499     0.0000 
     26 H          22.3961    6.5113   55.1021 H         1 7KW1499     0.0000 
     27 H          22.7812    8.7913   54.3438 H         1 7KW1499     0.0000 
     28 H          19.3777    8.5594   51.8806 H         1 7KW1499     0.0000 
     29 H          18.9611    6.2928   52.6773 H         1 7KW1499     0.0000 
     30 H          22.9825   12.7916   51.6103 H         1 7KW1499     0.0000 
     31 H          20.6981   13.1800   52.4732 H         1 7KW1499     0.0000 
     32 H          23.1608    8.2121   51.3008 H         1 7KW1499     0.0000 
     33 H          25.1727    7.3062   50.3080 H         1 7KW1499     0.0000 
     34 H          28.1338   10.6405   50.0436 H         1 7KW1499     0.0000 
     35 H          25.6250   12.9841   51.5758 H         1 7KW1499     0.0000 
     36 H          26.0772   15.3432   51.8196 H         1 7KW1499     0.0000 
     37 H          28.1433   16.2975   51.0058 H         1 7KW1499     0.0000 
     38 H          29.7798   14.8695   49.9004 H         1 7KW1499     0.0000 
     39 H          29.3343   12.4951   49.6592 H         1 7KW1499     0.0000 
@<TRIPOS>BOND
     1    2    1 ar   
     2    6    1 ar   
     3   25    1 1    
     4    3    2 ar   
     5   26    2 1    
     6    4    3 ar   
     7   27    3 1    
     8    5    4 ar   
     9    7    4 1    
    10    6    5 ar   
    11   28    5 1    
    12   29    6 1    
    13    8    7 1    
    14   11    7 2    
    15    9    8 2    
    16   12    8 1    
    17   10    9 1    
    18   30    9 1    
    19   11   10 1    
    20   31   10 1    
    21   13   12 ar   
    22   23   12 ar   
    23   14   13 ar   
    24   32   13 1    
    25   15   14 ar   
    26   33   14 1    
    27   16   15 ar   
    28   17   16 1    
    29   23   16 ar   
    30   18   17 1    
    31   34   17 1    
    32   19   18 ar   
    33   24   18 ar   
    34   20   19 ar   
    35   35   19 1    
    36   21   20 ar   
    37   36   20 1    
    38   22   21 ar   
    39   37   21 1    
    40   24   22 ar   
    41   38   22 1    
    42   39   24 1    
@<TRIPOS>SUBSTRUCTURE
     1 7KW1499     1 GROUP   
@<TRIPOS>SET

