#    Name: 3tjp_13K_1_INTS_M
#    Modification time : Mon Mar 24 20:12:39 2014

@<TRIPOS>MOLECULE
3tjp_13K_1_INTS_M
   79     0     9     0     0
SMALL
NO_CHARGES


@<TRIPOS>ATOM
      1 O          28.0480   10.7400   21.6795 O.2       1 ALC1        0.0000 
      2 O          27.5550   11.5490   20.2980 O.2       7 ALL1        0.0000 
      3 O          28.5410    9.9310   23.0610 O.2       4 ALP1        0.0000 
      4 CA         26.3115   12.1330   18.2425 C.3       3 GLC5        0.0000 
      5 CA         26.2650   12.0250   20.4680 C.3       9 GLL5        0.0000 
      6 CA         26.3580   12.2410   16.0170 C.3       6 GLP5        0.0000 
      7 CA         25.2310   10.5830   19.9025 C.3       3 GLC5        0.0000 
      8 CA         24.1970    9.1410   19.3370 C.3       6 GLP5        0.0000 
      9 CA         27.0700   12.6540   21.8940 C.3       3 GLC5        0.0000 
     10 CA         27.8750   13.2830   23.3200 C.3       6 GLP5        0.0000 
     11 CA         25.4890   12.8965   17.9800 C.3       3 GLC5        0.0000 
     12 CA         24.6200   13.5520   19.9430 C.3       9 GLL5        0.0000 
     13 CA         26.1050   14.0680   21.2540 C.3       3 GLC5        0.0000 
     14 CA         27.5900   14.5840   22.5650 C.3       6 GLP5        0.0000 
     15 CA         24.0935   12.7685   23.3245 C.3       3 GLC5        0.0000 
     16 CA         24.1980   11.8750   21.4770 C.3       9 GLL5        0.0000 
     17 CA         23.9890   13.6620   25.1720 C.3       6 GLP5        0.0000 
     18 CA         26.0365   12.5790   22.3985 C.3       3 GLC5        0.0000 
     19 CA         20.7060   12.5355   19.8665 C.3       3 GLC5        0.0000 
     20 CA         22.3240   13.4740   20.9910 C.3       9 GLL5        0.0000 
     21 CA         19.0880   11.5970   18.7420 C.3       6 GLP5        0.0000 
     22 CA         19.6480   12.3150   20.3115 C.3       3 GLC5        0.0000 
     23 CA         20.2080   13.0330   21.8810 C.3       9 GLL5        0.0000 
     24 CA         19.8210   14.1680   23.5075 C.3       3 GLC5        0.0000 
     25 CA         19.4340   15.3030   25.1340 C.3       6 GLP5        0.0000 
     26 CA         21.4820   14.2945   22.9280 C.3       3 GLC5        0.0000 
     27 CA         22.7560   15.5560   23.9750 C.3       6 GLP5        0.0000 
     28 CA         18.5035   12.0455   20.7120 C.3       3 GLC5        0.0000 
     29 CA         17.9190   12.4940   22.6820 C.3       9 GLL5        0.0000 
     30 CA         16.6570   11.0315   25.4865 C.3       3 GLC5        0.0000 
     31 CA         17.4090   12.1990   24.0880 C.3       9 GLL5        0.0000 
     32 CA         15.9050    9.8640   26.8850 C.3       6 GLP5        0.0000 
     33 CA         16.1540   13.1010   25.5920 C.3       3 GLC5        0.0000 
     34 CA         14.8990   14.0030   27.0960 C.3       6 GLP5        0.0000 
     35 CA         17.8040   12.3520   26.0715 C.3       3 GLC5        0.0000 
     36 CA         18.1990   12.5050   28.0550 C.3       6 GLP5        0.0000 
     37 N          16.7605   10.0535   24.4865 N.am      2 SEC2        0.0000 
     38 N          17.7780   10.8770   24.4830 N.am      8 SEL2        0.0000 
     39 N          15.7430    9.2300   24.4900 N.am      5 SEP2        0.0000 
     40 CA         20.5740    9.8025   25.7595 C.3       3 GLC5        0.0000 
     41 CA         19.2000   10.7740   24.5620 C.3       9 GLL5        0.0000 
     42 CA         21.9480    8.8310   26.9570 C.3       6 GLP5        0.0000 
     43 CA         18.1480    9.8585   25.8345 C.3       3 GLC5        0.0000 
     44 CA         17.0960    8.9430   27.1070 C.3       6 GLP5        0.0000 
     45 CA         19.3600   11.4810   26.1825 C.3       3 GLC5        0.0000 
     46 CA         19.5200   12.1880   27.8030 C.3       6 GLP5        0.0000 
     47 CA         20.9590   11.9660   25.1955 C.3       3 GLC5        0.0000 
     48 CA         22.7180   13.1580   25.8290 C.3       6 GLP5        0.0000 
     49 CA         20.9365    9.5545   22.2505 C.3       3 GLC5        0.0000 
     50 CA         19.8150   10.9430   23.1780 C.3       9 GLL5        0.0000 
     51 CA         22.0580    8.1660   21.3230 C.3       6 GLP5        0.0000 
     52 CA         19.8300   13.3280   19.7455 C.3       3 GLC5        0.0000 
     53 CA         20.5720   15.0590   20.7490 C.3       9 GLL5        0.0000 
     54 CA         16.0250   17.8835   23.7855 C.3       3 GLC5        0.0000 
     55 CA         16.7650   17.3860   21.7590 C.3       9 GLL5        0.0000 
     56 CA         15.2850   18.3810   25.8120 C.3       6 GLP5        0.0000 
     57 CA         14.3765   19.2710   23.9290 C.3       3 GLC5        0.0000 
     58 CA         14.4610   18.9870   22.1150 C.3       9 GLL5        0.0000 
     59 CA         14.2920   19.5550   25.7430 C.3       6 GLP5        0.0000 
     60 CA         24.1875   10.8556   20.1310 C.3       3 GLC5        0.0000 
     61 CA         22.8830   14.3912   22.4360 C.3       3 GLC5        0.0000 
     62 CA         23.6960   12.9790   20.8030 C.3       9 GLL5        0.0000 
     63 CA         20.5435   15.0675   18.9075 C.3       3 GLC5        0.0000 
     64 CA         21.8880   14.7010   20.5130 C.3       9 GLL5        0.0000 
     65 CA         19.8570   15.2550   17.1840 C.3       6 GLP5        0.0000 
     66 CA         21.9930   15.2180   22.3030 C.3       3 GLC5        0.0000 
     67 CA         16.8860   10.4187   22.7960 C.3       3 GLC5        0.0000 
     68 CA         16.1080    8.4910   22.2070 C.3       6 GLP5        0.0000 
     69 CA         17.7010   14.0787   24.1265 C.3       3 GLC5        0.0000 
     70 CA         17.7380   15.8110   24.8680 C.3       6 GLP5        0.0000 
     71 CA         19.3262   16.4505   18.7398 C.3       3 GLC5        0.0000 
     72 CA         18.8800   17.0230   20.6110 C.3       9 GLL5        0.0000 
     73 CA         19.0517   18.1720   22.4947 C.3       3 GLC5        0.0000 
     74 CA         19.7180   19.5330   23.9330 C.3       6 GLP5        0.0000 
     75 CA         17.5330   16.4017   23.2492 C.3       3 GLC5        0.0000 
     76 CA         17.8910   16.5990   21.5020 C.3       9 GLL5        0.0000 
     77 CA         18.2015   18.7685   22.6885 C.3       3 GLC5        0.0000 
     78 CA         18.9337   19.1010   22.0190 C.3       3 GLC5        0.0000 
     79 CA         17.5880   19.0690   20.2300 C.3       9 GLL5        0.0000 
@<TRIPOS>BOND
@<TRIPOS>SUBSTRUCTURE
     1 ALC1        1 GROUP        1 X    ALC  0     ROOT ALC X 1
     2 SEC2       37 GROUP        1 X    SEC  0     **** SEC X 2
     3 GLC5        4 GROUP        1 X    GLC  0     **** GLC X 6
     4 ALP1        3 GROUP        1 Y    ALP  0     ROOT ALP Y 8
     5 SEP2       39 GROUP        1 Y    SEP  0     **** SEP Y 9
     6 GLP5        6 GROUP        1 Y    GLP  0     **** GLP Y 13
     7 ALL1        2 GROUP        1 Z    ALL  0     ROOT ALL Z 15
     8 SEL2       38 GROUP        1 Z    SEL  0     **** SEL Z 16
     9 GLL5        5 GROUP        1 Z    GLL  0     **** GLL Z 20
@<TRIPOS>SET

