#    Name: 3tjp_13K_1_ligand
#    Modification time : Mon Mar 24 20:12:39 2014

@<TRIPOS>MOLECULE
3tjp_13K_1_ligand
   53    56     1     0     0
SMALL
NO_CHARGES


@<TRIPOS>ATOM
      1 N01        27.5550   11.5490   20.2980 N.pl3     1 13K1        0.0000 
      2 C02        26.2650   12.0250   20.4680 C.ar      1 13K1        0.0000 
      3 N03        25.8840   13.1070   19.7570 N.ar      1 13K1        0.0000 
      4 C04        24.6200   13.5520   19.9430 C.ar      1 13K1        0.0000 
      5 N05        25.4520   11.3850   21.3360 N.ar      1 13K1        0.0000 
      6 C06        24.1980   11.8750   21.4770 C.ar      1 13K1        0.0000 
      7 C07        23.6960   12.9790   20.8030 C.ar      1 13K1        0.0000 
      8 C08        22.3240   13.4740   20.9910 C.ar      1 13K1        0.0000 
      9 C09        21.8880   14.7010   20.5130 C.ar      1 13K1        0.0000 
     10 N10        21.4880   12.6510   21.6680 N.ar      1 13K1        0.0000 
     11 C11        20.2080   13.0330   21.8810 C.ar      1 13K1        0.0000 
     12 N12        19.3440   12.1860   22.5680 N.3       1 13K1        0.0000 
     13 C13        17.9190   12.4940   22.6820 C.3       1 13K1        0.0000 
     14 C14        17.4090   12.1990   24.0880 C.3       1 13K1        0.0000 
     15 O15        17.7780   10.8770   24.4830 O.3       1 13K1        0.0000 
     16 C16        19.2000   10.7740   24.5620 C.3       1 13K1        0.0000 
     17 C17        19.8150   10.9430   23.1780 C.3       1 13K1        0.0000 
     18 N18        19.7470   14.2240   21.4280 N.ar      1 13K1        0.0000 
     19 C19        20.5720   15.0590   20.7490 C.ar      1 13K1        0.0000 
     20 N20        20.0370   16.2820   20.3090 N.pl3     1 13K1        0.0000 
     21 C21        18.8800   17.0230   20.6110 C.ar      1 13K1        0.0000 
     22 C22        17.8910   16.5990   21.5020 C.ar      1 13K1        0.0000 
     23 C23        16.7650   17.3860   21.7590 C.ar      1 13K1        0.0000 
     24 C24        18.7110   18.2690   19.9800 C.ar      1 13K1        0.0000 
     25 C25        17.5880   19.0690   20.2300 C.ar      1 13K1        0.0000 
     26 O26        17.3550   20.2940   19.6510 O.3       1 13K1        0.0000 
     27 C27        18.2770   20.7420   18.6650 C.3       1 13K1        0.0000 
     28 C28        16.6050   18.6220   21.1290 C.ar      1 13K1        0.0000 
     29 O29        15.5370   19.4640   21.3160 O.3       1 13K1        0.0000 
     30 C30        14.4610   18.9870   22.1150 C.3       1 13K1        0.0000 
     31 H          28.1217   12.0404   19.6367 H         1 13K1        0.0000 
     32 H          27.8076   10.7553   20.8513 H         1 13K1        0.0000 
     33 H          24.2966   14.4093   19.3913 H         1 13K1        0.0000 
     34 H          23.5338   11.3835   22.1560 H         1 13K1        0.0000 
     35 H          22.5164   15.3169   20.0055 H         1 13K1        0.0000 
     36 H          17.3340   11.8969   21.9715 H         1 13K1        0.0000 
     37 H          17.7311   13.5524   22.4629 H         1 13K1        0.0000 
     38 H          16.3181   12.3312   24.0838 H         1 13K1        0.0000 
     39 H          17.8303   12.9564   24.7636 H         1 13K1        0.0000 
     40 H          19.5148    9.7973   24.9524 H         1 13K1        0.0000 
     41 H          19.6269   11.5460   25.2158 H         1 13K1        0.0000 
     42 H          20.9035   10.9489   23.2828 H         1 13K1        0.0000 
     43 H          19.5346   10.0796   22.5683 H         1 13K1        0.0000 
     44 H          20.6865   16.7874   19.5328 H         1 13K1        0.0000 
     45 H          17.9936   15.6877   21.9794 H         1 13K1        0.0000 
     46 H          16.0480   17.0514   22.4181 H         1 13K1        0.0000 
     47 H          19.4328   18.5997   19.3174 H         1 13K1        0.0000 
     48 H          19.2043   20.8188   19.0313 H         1 13K1        0.0000 
     49 H          18.3205   20.1167   17.8858 H         1 13K1        0.0000 
     50 H          18.0285   21.6414   18.3055 H         1 13K1        0.0000 
     51 H          14.7586   18.7621   23.0428 H         1 13K1        0.0000 
     52 H          13.7308   19.6652   22.1977 H         1 13K1        0.0000 
     53 H          14.0509   18.1601   21.7303 H         1 13K1        0.0000 
@<TRIPOS>BOND
     1    2    1 1    
     2   31    1 1    
     3   32    1 1    
     4    3    2 ar   
     5    5    2 ar   
     6    4    3 ar   
     7    7    4 ar   
     8   33    4 1    
     9    6    5 ar   
    10    7    6 ar   
    11   34    6 1    
    12    8    7 1    
    13    9    8 ar   
    14   10    8 ar   
    15   19    9 ar   
    16   35    9 1    
    17   11   10 ar   
    18   12   11 1    
    19   18   11 ar   
    20   13   12 1    
    21   17   12 1    
    22   14   13 1    
    23   36   13 1    
    24   37   13 1    
    25   15   14 1    
    26   38   14 1    
    27   39   14 1    
    28   16   15 1    
    29   17   16 1    
    30   40   16 1    
    31   41   16 1    
    32   42   17 1    
    33   43   17 1    
    34   19   18 ar   
    35   20   19 1    
    36   21   20 1    
    37   44   20 1    
    38   22   21 ar   
    39   24   21 ar   
    40   23   22 ar   
    41   45   22 1    
    42   28   23 ar   
    43   46   23 1    
    44   25   24 ar   
    45   47   24 1    
    46   26   25 1    
    47   28   25 ar   
    48   27   26 1    
    49   48   27 1    
    50   49   27 1    
    51   50   27 1    
    52   29   28 1    
    53   30   29 1    
    54   51   30 1    
    55   52   30 1    
    56   53   30 1    
@<TRIPOS>SUBSTRUCTURE
     1 13K1        1 GROUP   
@<TRIPOS>SET

