#    Name: 1K3Y_1_CAVITY_N1_ALL.mol2
#    Modification time : Tue Mar 11 12:39:20 2014

@<TRIPOS>MOLECULE
1K3Y_1_CAVITY_N1_ALL.mol2
  126     0     6     0     0
SMALL
NO_CHARGES


@<TRIPOS>ATOM
      1 CA         86.9458   28.1095   16.3156 C.3       5 GLY6        0.0000 
      2 CA         88.7091   23.8670   18.2239 C.3       5 GLY6        0.0000 
      3 CZ         86.6281   24.9132   20.1146 C.ar      4 PHE5        0.0000 
      4 CZ         85.5876   25.4364   21.0600 C.ar      4 PHE5        0.0000 
      5 CA         89.1988   24.2162   16.1896 C.3       5 GLY6        0.0000 
      6 CA         88.1583   24.7393   17.1350 C.3       5 GLY6        0.0000 
      7 CZ         87.1178   25.2625   18.0804 C.ar      4 PHE5        0.0000 
      8 CZ         85.0369   26.3087   19.9711 C.ar      4 PHE5        0.0000 
      9 CZ         83.9964   26.8318   20.9165 C.ar      4 PHE5        0.0000 
     10 CA         88.6480   25.0885   15.1007 C.3       5 GLY6        0.0000 
     11 CA         87.6075   25.6117   16.0461 C.3       5 GLY6        0.0000 
     12 CZ         86.5670   26.1348   16.9915 C.ar      4 PHE5        0.0000 
     13 CZ         85.5266   26.6579   17.9369 C.ar      4 PHE5        0.0000 
     14 CZ         84.4861   27.1810   18.8822 C.ar      4 PHE5        0.0000 
     15 CZ         83.4456   27.7041   19.8276 C.ar      4 PHE5        0.0000 
     16 CZ         88.0972   25.9609   14.0118 C.ar      4 PHE5        0.0000 
     17 CZ         87.0567   26.4840   14.9572 C.ar      4 PHE5        0.0000 
     18 CZ         86.0163   27.0071   15.9026 C.ar      4 PHE5        0.0000 
     19 CZ         84.9758   27.5302   16.8480 C.ar      4 PHE5        0.0000 
     20 CZ         83.9353   28.0533   17.7933 C.ar      4 PHE5        0.0000 
     21 CZ         82.8948   28.5764   18.7387 C.ar      4 PHE5        0.0000 
     22 CZ         86.5060   27.3563   13.8683 C.ar      4 PHE5        0.0000 
     23 CZ         85.4655   27.8794   14.8137 C.ar      4 PHE5        0.0000 
     24 CZ         84.4250   28.4025   15.7591 C.ar      4 PHE5        0.0000 
     25 CZ         83.3845   28.9256   16.7045 C.ar      4 PHE5        0.0000 
     26 CA         82.3440   29.4487   17.6498 C.3       5 GLY6        0.0000 
     27 CZ         83.8742   29.2748   14.6702 C.ar      4 PHE5        0.0000 
     28 CZ         82.8337   29.7980   15.6156 C.ar      4 PHE5        0.0000 
     29 CZ         81.7932   30.3211   16.5609 C.ar      4 PHE5        0.0000 
     30 CZ         81.2424   31.1934   15.4720 C.ar      4 PHE5        0.0000 
     31 N          87.7796   22.7646   17.8109 N.2       2 ALA2        0.0000 
     32 CA         86.7391   23.2877   18.7563 C.3       5 GLY6        0.0000 
     33 CA         85.6986   23.8108   19.7016 C.3       5 GLY6        0.0000 
     34 CA         84.6581   24.3339   20.6470 C.3       5 GLY6        0.0000 
     35 CA         88.2693   23.1138   15.7766 C.3       5 GLY6        0.0000 
     36 DU         87.2288   23.6369   16.7220 H         6 CUB7        0.0000 
     37 CA         86.1883   24.1600   17.6674 C.3       5 GLY6        0.0000 
     38 CA         85.1478   24.6831   18.6127 C.3       5 GLY6        0.0000 
     39 DU         84.1073   25.2062   19.5581 H         6 CUB7        0.0000 
     40 CA         87.7185   23.9861   14.6877 C.3       5 GLY6        0.0000 
     41 DU         86.6780   24.5092   15.6331 H         6 CUB7        0.0000 
     42 DU         85.6375   25.0323   16.5785 H         6 CUB7        0.0000 
     43 DU         84.5970   25.5554   17.5239 H         6 CUB7        0.0000 
     44 DU         83.5565   26.0785   18.4692 H         6 CUB7        0.0000 
     45 DU         82.5161   26.6016   19.4146 H         6 CUB7        0.0000 
     46 CA         87.1677   24.8584   13.5988 C.3       5 GLY6        0.0000 
     47 OG         86.1272   25.3815   14.5442 O.2       1 SER1        0.0000 
     48 OG         85.0867   25.9046   15.4896 O.2       1 SER1        0.0000 
     49 DU         84.0462   26.4277   16.4350 H         6 CUB7        0.0000 
     50 DU         83.0058   26.9509   17.3803 H         6 CUB7        0.0000 
     51 DU         81.9653   27.4740   18.3257 H         6 CUB7        0.0000 
     52 OG         84.5359   26.7770   14.4007 O.2       1 SER1        0.0000 
     53 DU         83.4955   27.3001   15.3461 H         6 CUB7        0.0000 
     54 DU         82.4550   27.8232   16.2914 H         6 CUB7        0.0000 
     55 DU         81.4145   28.3463   17.2368 H         6 CUB7        0.0000 
     56 OG         82.9447   28.1724   14.2572 O.2       1 SER1        0.0000 
     57 DU         81.9042   28.6955   15.2025 H         6 CUB7        0.0000 
     58 O          80.8637   29.2186   16.1479 O.2       2 ALA2        0.0000 
     59 O          79.8232   29.7417   17.0933 O.2       2 ALA2        0.0000 
     60 N          81.3534   29.5678   14.1137 N.2       2 ALA2        0.0000 
     61 CA         80.3129   30.0909   15.0590 C.3       5 GLY6        0.0000 
     62 CA         86.2993   22.5344   16.3090 C.3       5 GLY6        0.0000 
     63 CA         85.2588   23.0575   17.2544 C.3       5 GLY6        0.0000 
     64 CA         84.2183   23.5806   18.1997 C.3       5 GLY6        0.0000 
     65 CA         83.1778   24.1038   19.1451 C.3       5 GLY6        0.0000 
     66 CA         85.7485   23.4067   15.2201 C.3       5 GLY6        0.0000 
     67 CA         84.7080   23.9299   16.1655 C.3       5 GLY6        0.0000 
     68 CA         83.6675   24.4530   17.1108 C.3       5 GLY6        0.0000 
     69 DU         82.6270   24.9761   18.0562 H         6 CUB7        0.0000 
     70 DU         81.5865   25.4992   19.0016 H         6 CUB7        0.0000 
     71 OG         85.1977   24.2791   14.1312 O.2       1 SER1        0.0000 
     72 O          84.1572   24.8022   15.0766 O.2       2 ALA2        0.0000 
     73 O          83.1167   25.3253   16.0219 O.2       2 ALA2        0.0000 
     74 O          82.0762   25.8484   16.9673 O.2       2 ALA2        0.0000 
     75 DU         81.0357   26.3715   17.9127 H         6 CUB7        0.0000 
     76 OG         83.6064   25.6745   13.9877 O.2       1 SER1        0.0000 
     77 O          82.5659   26.1976   14.9331 O.2       2 ALA2        0.0000 
     78 O          81.5254   26.7207   15.8784 O.2       2 ALA2        0.0000 
     79 DU         80.4850   27.2438   16.8238 H         6 CUB7        0.0000 
     80 OG         83.0556   26.5468   12.8988 O.2       1 SER1        0.0000 
     81 CA         82.0151   27.0699   13.8442 C.3       5 GLY6        0.0000 
     82 N          80.9747   27.5930   14.7895 N.2       2 ALA2        0.0000 
     83 O          79.9342   28.1162   15.7349 O.2       2 ALA2        0.0000 
     84 N          80.4239   28.4654   13.7006 N.2       2 ALA2        0.0000 
     85 O          79.3834   28.9885   14.6460 O.2       2 ALA2        0.0000 
     86 CA         83.7785   22.8274   15.7525 C.3       5 GLY6        0.0000 
     87 O          82.7380   23.3505   16.6978 O.2       2 ALA2        0.0000 
     88 O          81.6975   23.8736   17.6432 O.2       2 ALA2        0.0000 
     89 O          81.1467   24.7459   16.5543 O.2       2 ALA2        0.0000 
     90 O          79.5554   26.1414   16.4108 O.2       2 ALA2        0.0000 
     91 O          80.0451   26.4906   14.3765 O.2       2 ALA2        0.0000 
     92 O          79.0046   27.0137   15.3219 O.2       2 ALA2        0.0000 
     93 N          80.5348   26.8398   12.3423 N.2       2 ALA2        0.0000 
     94 N          79.4943   27.3629   13.2876 N.2       2 ALA2        0.0000 
     95 O          78.4539   27.8860   14.2330 O.2       2 ALA2        0.0000 
     96 O          78.6259   25.0389   15.9978 O.2       2 ALA2        0.0000 
     97 O          77.5854   25.5620   16.9432 O.2       2 ALA2        0.0000 
     98 O          79.1156   25.3881   13.9635 O.2       2 ALA2        0.0000 
     99 O          78.0751   25.9112   14.9089 O.2       2 ALA2        0.0000 
    100 O          77.0346   26.4343   15.8543 O.2       2 ALA2        0.0000 
    101 CA         78.5648   26.2604   12.8746 C.3       5 GLY6        0.0000 
    102 N          77.5243   26.7836   13.8200 N.2       2 ALA2        0.0000 
    103 N          78.0140   27.1328   11.7857 N.2       2 ALA2        0.0000 
    104 N          76.9735   27.6559   12.7311 N.2       2 ALA2        0.0000 
    105 N          77.4632   28.0051   10.6968 N.2       2 ALA2        0.0000 
    106 N          76.4227   28.5282   11.6422 N.2       2 ALA2        0.0000 
    107 O          77.6964   23.9365   15.5848 O.2       2 ALA2        0.0000 
    108 NZ         76.6559   24.4596   16.5302 N.2       3 LYS4        0.0000 
    109 O          78.1861   24.2857   13.5505 O.2       2 ALA2        0.0000 
    110 NZ         77.1456   24.8088   14.4959 N.2       3 LYS4        0.0000 
    111 NZ         76.1051   25.3319   15.4413 N.2       3 LYS4        0.0000 
    112 CA         78.6758   24.6349   11.5162 C.3       5 GLY6        0.0000 
    113 CA         77.6353   25.1580   12.4616 C.3       5 GLY6        0.0000 
    114 NZ         76.5948   25.6811   13.4070 N.2       3 LYS4        0.0000 
    115 OG         78.1250   25.5072   10.4273 O.2       1 SER1        0.0000 
    116 N          77.0845   26.0303   11.3727 N.2       2 ALA2        0.0000 
    117 N          76.0440   26.5534   12.3181 N.2       2 ALA2        0.0000 
    118 O          77.8074   22.3109   14.2264 O.2       2 ALA2        0.0000 
    119 NZ         76.7669   22.8340   15.1718 N.2       3 LYS4        0.0000 
    120 NZ         75.7264   23.3571   16.1171 N.2       3 LYS4        0.0000 
    121 O          77.2566   23.1832   13.1375 O.2       2 ALA2        0.0000 
    122 NZ         76.2161   23.7063   14.0829 N.2       3 LYS4        0.0000 
    123 OG         77.7463   23.5324   11.1032 O.2       1 SER1        0.0000 
    124 N          76.7058   24.0555   12.0486 N.2       2 ALA2        0.0000 
    125 N          75.6653   24.5786   12.9940 N.2       2 ALA2        0.0000 
    126 NZ         75.2866   22.6039   13.6699 N.2       3 LYS4        0.0000 
@<TRIPOS>BOND
@<TRIPOS>SUBSTRUCTURE
     1 SER1       47 GROUP   
     2 ALA2       31 GROUP   
     3 LYS4      108 GROUP   
     4 PHE5        3 GROUP   
     5 GLY6        1 GROUP   
     6 CUB7       36 GROUP   
@<TRIPOS>SET

