#    Name: 1k3y_GTX_1_INTS_M
#    Modification time : Tue Mar 25 09:38:10 2014

@<TRIPOS>MOLECULE
1k3y_GTX_1_INTS_M
   79     0    15     0     0
SMALL
NO_CHARGES


@<TRIPOS>ATOM
      1 OD1        74.4480   24.1035   14.0975 O.co2     3 ASC3        0.0000 
      2 OD1        75.6580   24.5330   13.1260 O.co2    13 ASL3        0.0000 
      3 OD1        73.2380   23.6740   15.0690 O.co2     8 ASP3        0.0000 
      4 OD1        74.6975   25.1415   13.9345 O.co2     3 ASC3        0.0000 
      5 OD1        73.7370   25.7500   14.7430 O.co2     8 ASP3        0.0000 
      6 O          74.7520   24.8770   12.0705 O.2       1 ALC1        0.0000 
      7 O          75.6580   24.5330   13.1260 O.2      11 ALL1        0.0000 
      8 O          73.8460   25.2210   11.0150 O.2       6 ALP1        0.0000 
      9 O          74.4480   24.1035   14.0975 O.2       1 ALC1        0.0000 
     10 O          73.2380   23.6740   15.0690 O.2       6 ALP1        0.0000 
     11 O          74.6975   25.1415   13.9345 O.2       1 ALC1        0.0000 
     12 O          73.7370   25.7500   14.7430 O.2       6 ALP1        0.0000 
     13 O          74.5345   23.4425   12.9425 O.2       1 ALC1        0.0000 
     14 O          73.4110   22.3520   12.7590 O.2       6 ALP1        0.0000 
     15 N          78.1695   23.8085    9.9830 N.am      2 SEC2        0.0000 
     16 N          77.4110   24.0020   11.1450 N.am     12 SEL2        0.0000 
     17 N          78.9280   23.6150    8.8210 N.am      7 SEP2        0.0000 
     18 N          76.9385   25.4170    9.1050 N.am      2 SEC2        0.0000 
     19 N          77.4070   26.0740   10.4080 N.am     12 SEL2        0.0000 
     20 N          76.4700   24.7600    7.8020 N.am      7 SEP2        0.0000 
     21 N          78.1675   24.8445    9.6145 N.am      2 SEC2        0.0000 
     22 CA         78.0440   29.2025   13.1800 C.3       5 GLC5        0.0000 
     23 CA         78.4250   27.1760   13.2170 C.3      15 GLL5        0.0000 
     24 CA         77.6630   31.2290   13.1430 C.3      10 GLP5        0.0000 
     25 CA         79.5580   27.2850   11.3170 C.3       5 GLC5        0.0000 
     26 CA         80.6910   27.3940    9.4170 C.3      10 GLP5        0.0000 
     27 O          80.4285   28.9065   12.6345 O.2       1 ALC1        0.0000 
     28 O          80.2930   28.5270   13.9400 O.2      11 ALL1        0.0000 
     29 O          80.5640   29.2860   11.3290 O.2       6 ALP1        0.0000 
     30 CA         82.7845   30.5525   14.9475 C.3       5 GLC5        0.0000 
     31 CA         81.3360   29.0020   14.8070 C.3      15 GLL5        0.0000 
     32 CA         84.2330   32.1030   15.0880 C.3      10 GLP5        0.0000 
     33 N          80.3215   31.5675   12.6345 N.am      2 SEC2        0.0000 
     34 N          80.8110   31.2990   14.1170 N.am     12 SEL2        0.0000 
     35 N          79.8320   31.8360   11.1520 N.am      7 SEP2        0.0000 
     36 CA         83.5455   30.4265   13.8950 C.3       5 GLC5        0.0000 
     37 CA         82.6890   28.8670   14.0840 C.3      15 GLL5        0.0000 
     38 CA         84.4020   31.9860   13.7060 C.3      10 GLP5        0.0000 
     39 CA         82.0515   25.6410   13.2105 C.3       5 GLC5        0.0000 
     40 CA         83.1030   27.1300   13.8020 C.3      15 GLL5        0.0000 
     41 CA         81.0000   24.1520   12.6190 C.3      10 GLP5        0.0000 
     42 CA         83.6490   24.5915   13.4075 C.3       5 GLC5        0.0000 
     43 CA         84.9670   25.4150   14.8470 C.3      15 GLL5        0.0000 
     44 CA         82.3310   23.7680   11.9680 C.3      10 GLP5        0.0000 
     45 CA         86.5465   22.4760   14.9390 C.3       5 GLC5        0.0000 
     46 CA         86.6040   24.1300   16.2480 C.3      15 GLL5        0.0000 
     47 CA         86.4890   20.8220   13.6300 C.3      10 GLP5        0.0000 
     48 CA         87.4010   25.9735   18.5775 C.3       5 GLC5        0.0000 
     49 CA         87.4150   24.3130   17.5550 C.3      15 GLL5        0.0000 
     50 CA         87.3870   27.6340   19.6000 C.3      10 GLP5        0.0000 
     51 CA         89.6090   21.5020   18.1875 C.3       5 GLC5        0.0000 
     52 CA         88.3030   23.0790   17.7650 C.3      15 GLL5        0.0000 
     53 CA         90.9150   19.9250   18.6100 C.3      10 GLP5        0.0000 
     54 CA         78.9405   31.7285   15.6600 C.3       5 GLC5        0.0000 
     55 CA         80.7860   32.2140   16.7580 C.3      15 GLL5        0.0000 
     56 CA         77.0950   31.2430   14.5620 C.3      10 GLP5        0.0000 
     57 CA         82.5095   32.1585   15.9230 C.3       5 GLC5        0.0000 
     58 NZ         77.8905   33.8570   18.0830 N.4       4 LYC4        0.0000 
     59 NZ         79.2060   33.3420   18.1140 N.4      14 LYL4        0.0000 
     60 NZ         75.6240   33.4760   17.9180 N.4       9 LYP4        0.0000 
     61 N          77.8905   33.8570   18.0830 N.am      2 SEC2        0.0000 
     62 N          79.2060   33.3420   18.1140 N.am     12 SEL2        0.0000 
     63 N          76.5750   34.3720   18.0520 N.am      7 SEP2        0.0000 
     64 NZ         77.2840   31.7355   17.7500 N.4       4 LYC4        0.0000 
     65 NZ         78.7000   31.2730   17.6310 N.4      14 LYL4        0.0000 
     66 N          77.7895   30.3290   16.8310 N.am      2 SEC2        0.0000 
     67 N          78.7000   31.2730   17.6310 N.am     12 SEL2        0.0000 
     68 N          76.8790   29.3850   16.0310 N.am      7 SEP2        0.0000 
     69 N          77.2840   31.7355   17.7500 N.am      2 SEC2        0.0000 
     70 N          75.8680   32.1980   17.8690 N.am      7 SEP2        0.0000 
     71 CA         79.4958   25.3615   13.0328 C.3       5 GLC5        0.0000 
     72 CA         83.6575   28.1028   12.0340 C.3       5 GLC5        0.0000 
     73 CA         84.4190   28.2070   10.1250 C.3      10 GLP5        0.0000 
     74 CA         88.1305   23.4675   19.3685 C.3       5 GLC5        0.0000 
     75 CA         88.4020   23.2390   21.0770 C.3      10 GLP5        0.0000 
     76 CA         89.5915   23.2480   16.7960 C.3       5 GLC5        0.0000 
     77 CA         91.3240   22.8000   15.9320 C.3      10 GLP5        0.0000 
     78 CA         89.4255   24.5250   18.4235 C.3       5 GLC5        0.0000 
     79 CA         90.9920   25.3540   19.1870 C.3      10 GLP5        0.0000 
@<TRIPOS>BOND
@<TRIPOS>SUBSTRUCTURE
     1 ALC1        6 GROUP        1 X    ALC  0     ROOT ALC X 1
     2 SEC2       15 GROUP        1 X    SEC  0     **** SEC X 2
     3 ASC3        1 GROUP        1 X    ASC  0     **** ASC X 3
     4 LYC4       58 GROUP        1 X    LYC  0     **** LYC X 4
     5 GLC5       22 GROUP        1 X    GLC  0     **** GLC X 6
     6 ALP1        8 GROUP        1 Y    ALP  0     ROOT ALP Y 8
     7 SEP2       17 GROUP        1 Y    SEP  0     **** SEP Y 9
     8 ASP3        3 GROUP        1 Y    ASP  0     **** ASP Y 10
     9 LYP4       60 GROUP        1 Y    LYP  0     **** LYP Y 11
    10 GLP5       24 GROUP        1 Y    GLP  0     **** GLP Y 13
    11 ALL1        7 GROUP        1 Z    ALL  0     ROOT ALL Z 15
    12 SEL2       16 GROUP        1 Z    SEL  0     **** SEL Z 16
    13 ASL3        2 GROUP        1 Z    ASL  0     **** ASL Z 17
    14 LYL4       59 GROUP        1 Z    LYL  0     **** LYL Z 18
    15 GLL5       23 GROUP        1 Z    GLL  0     **** GLL Z 20
@<TRIPOS>SET

