#    Name: 1k3y_GTX_1_ligand
#    Modification time : Tue Mar 25 09:38:10 2014

@<TRIPOS>MOLECULE
1k3y_GTX_1_ligand
   54    53     1     0     0
SMALL
NO_CHARGES


@<TRIPOS>ATOM
      1 N1         75.6580   24.5330   13.1260 N.4       1 GTX5100     0.0000 
      2 CA1        76.5020   25.6550   12.6090 C.3       1 GTX5100     0.0000 
      3 C1         77.1480   25.2170   11.2740 C.2       1 GTX5100     0.0000 
      4 O11        77.4110   24.0020   11.1450 O.co2     1 GTX5100     0.0000 
      5 O12        77.4070   26.0740   10.4080 O.co2     1 GTX5100     0.0000 
      6 CB1        77.5580   25.9660   13.6760 C.3       1 GTX5100     0.0000 
      7 CG1        78.4250   27.1760   13.2170 C.3       1 GTX5100     0.0000 
      8 CD1        79.4290   27.5030   14.3290 C.2       1 GTX5100     0.0000 
      9 OE1        79.4710   26.9910   15.4190 O.2       1 GTX5100     0.0000 
     10 N2         80.2930   28.5270   13.9400 N.am      1 GTX5100     0.0000 
     11 CA2        81.3360   29.0020   14.8070 C.3       1 GTX5100     0.0000 
     12 C2         81.0380   30.4830   14.9990 C.2       1 GTX5100     0.0000 
     13 O2         80.8110   31.2990   14.1170 O.2       1 GTX5100     0.0000 
     14 CB2        82.6890   28.8670   14.0840 C.3       1 GTX5100     0.0000 
     15 SG2        83.1030   27.1300   13.8020 S.3       1 GTX5100     0.0000 
     16 C1S        84.1410   26.6840   15.1900 C.3       1 GTX5100     0.0000 
     17 C2S        84.9670   25.4150   14.8470 C.3       1 GTX5100     0.0000 
     18 C3S        86.3420   25.4690   15.5490 C.3       1 GTX5100     0.0000 
     19 C4S        86.6040   24.1300   16.2480 C.3       1 GTX5100     0.0000 
     20 C5S        87.4150   24.3130   17.5550 C.3       1 GTX5100     0.0000 
     21 C6S        88.3030   23.0790   17.7650 C.3       1 GTX5100     0.0000 
     22 N3         81.1110   30.8340   16.3620 N.am      1 GTX5100     0.0000 
     23 CA3        80.7860   32.2140   16.7580 C.3       1 GTX5100     0.0000 
     24 C3         79.4870   32.2410   17.5570 C.2       1 GTX5100     0.0000 
     25 O31        79.2060   33.3420   18.1140 O.co2     1 GTX5100     0.0000 
     26 O32        78.7000   31.2730   17.6310 O.co2     1 GTX5100     0.0000 
     27 H          75.8989   26.5143   12.4452 H         1 GTX5100     0.0000 
     28 H          78.2018   25.1098   13.8121 H         1 GTX5100     0.0000 
     29 H          77.0723   26.2204   14.6063 H         1 GTX5100     0.0000 
     30 H          77.7812   28.0199   13.0476 H         1 GTX5100     0.0000 
     31 H          78.9508   26.9056   12.3193 H         1 GTX5100     0.0000 
     32 H          80.1955   28.9652   13.0115 H         1 GTX5100     0.0000 
     33 H          81.3594   28.5203   15.7234 H         1 GTX5100     0.0000 
     34 H          83.5117   29.2132   14.6633 H         1 GTX5100     0.0000 
     35 H          82.6813   29.2692   13.0989 H         1 GTX5100     0.0000 
     36 H          83.4473   26.5222   15.9733 H         1 GTX5100     0.0000 
     37 H          84.7460   27.5416   15.3296 H         1 GTX5100     0.0000 
     38 H          85.1135   25.3689   13.7766 H         1 GTX5100     0.0000 
     39 H          84.4270   24.5413   15.1851 H         1 GTX5100     0.0000 
     40 H          86.3341   26.2629   16.2803 H         1 GTX5100     0.0000 
     41 H          87.1087   25.6472   14.8104 H         1 GTX5100     0.0000 
     42 H          87.1619   23.4755   15.5784 H         1 GTX5100     0.0000 
     43 H          85.6528   23.6558   16.4895 H         1 GTX5100     0.0000 
     44 H          86.7314   24.4116   18.3819 H         1 GTX5100     0.0000 
     45 H          88.0321   25.1917   17.4656 H         1 GTX5100     0.0000 
     46 H          81.3768   30.1758   17.0713 H         1 GTX5100     0.0000 
     47 H          80.6640   32.8488   15.8768 H         1 GTX5100     0.0000 
     48 H          81.5824   32.6346   17.3771 H         1 GTX5100     0.0000 
     49 H          74.9290   24.2910   12.4856 H         1 GTX5100     0.0000 
     50 H          76.1965   23.7052   13.2835 H         1 GTX5100     0.0000 
     51 H          75.2199   24.7672   13.9938 H         1 GTX5100     0.0000 
     52 H          88.9455   22.9509   17.0095 H         1 GTX5100     0.0000 
     53 H          88.8454   23.1499   18.6022 H         1 GTX5100     0.0000 
     54 H          87.7628   22.2404   17.8358 H         1 GTX5100     0.0000 
@<TRIPOS>BOND
     1    2    1 1    
     2   49    1 1    
     3   50    1 1    
     4   51    1 1    
     5    3    2 1    
     6    6    2 1    
     7   27    2 1    
     8    4    3 ar   
     9    5    3 ar   
    10    7    6 1    
    11   28    6 1    
    12   29    6 1    
    13    8    7 1    
    14   30    7 1    
    15   31    7 1    
    16    9    8 2    
    17   10    8 am   
    18   11   10 1    
    19   32   10 1    
    20   12   11 1    
    21   14   11 1    
    22   33   11 1    
    23   13   12 2    
    24   22   12 am   
    25   15   14 1    
    26   34   14 1    
    27   35   14 1    
    28   16   15 1    
    29   17   16 1    
    30   36   16 1    
    31   37   16 1    
    32   18   17 1    
    33   38   17 1    
    34   39   17 1    
    35   19   18 1    
    36   40   18 1    
    37   41   18 1    
    38   20   19 1    
    39   42   19 1    
    40   43   19 1    
    41   21   20 1    
    42   44   20 1    
    43   45   20 1    
    44   52   21 1    
    45   53   21 1    
    46   54   21 1    
    47   23   22 1    
    48   46   22 1    
    49   24   23 1    
    50   47   23 1    
    51   48   23 1    
    52   25   24 ar   
    53   26   24 ar   
@<TRIPOS>SUBSTRUCTURE
     1 GTX5100     1 GROUP   
@<TRIPOS>SET

