#    Name: 4e4n_0NL_2_INTS_M
#    Modification time : Tue Mar 25 10:37:41 2014

@<TRIPOS>MOLECULE
4e4n_0NL_2_INTS_M
   65     0     9     0     0
SMALL
NO_CHARGES


@<TRIPOS>ATOM
      1 CA         16.2170   12.5005   -2.0325 C.3       3 GLC5        0.0000 
      2 CA         17.3690   11.9460   -0.7850 C.3       9 GLL5        0.0000 
      3 CA         15.0650   13.0550   -3.2800 C.3       6 GLP5        0.0000 
      4 CA         19.0170   13.1145   -1.6290 C.3       3 GLC5        0.0000 
      5 CA         20.6650   14.2830   -2.4730 C.3       6 GLP5        0.0000 
      6 CA         18.1145   11.6845   -2.4655 C.3       3 GLC5        0.0000 
      7 CA         18.8600   11.4230   -4.1460 C.3       6 GLP5        0.0000 
      8 CA         17.7300    9.8920   -0.8555 C.3       3 GLC5        0.0000 
      9 CA         18.0910    7.8380   -0.9260 C.3       6 GLP5        0.0000 
     10 CA         15.4970   12.9515   -1.0925 C.3       3 GLC5        0.0000 
     11 CA         15.9290   12.8480    1.0950 C.3       9 GLL5        0.0000 
     12 CA         15.8610   14.5315   -0.1280 C.3       3 GLC5        0.0000 
     13 CA         15.7930   16.2150   -1.3510 C.3       6 GLP5        0.0000 
     14 O          16.8545    8.6625    2.7750 O.2       1 ALC1        0.0000 
     15 O          15.7870    8.7880    1.7660 O.2       7 ALL1        0.0000 
     16 O          17.9220    8.5370    3.7840 O.2       4 ALP1        0.0000 
     17 CA         13.5385    6.9385    4.8165 C.3       3 GLC5        0.0000 
     18 CA         14.7170    6.9870    2.9350 C.3       9 GLL5        0.0000 
     19 CA         12.3600    6.8900    6.6980 C.3       6 GLP5        0.0000 
     20 CA         15.8755    7.2870    4.3810 C.3       3 GLC5        0.0000 
     21 CA         17.0340    7.5870    5.8270 C.3       6 GLP5        0.0000 
     22 CA         16.2080    5.6955   -0.6600 C.3       3 GLC5        0.0000 
     23 CA         14.7090    5.7230    0.8450 C.3       9 GLL5        0.0000 
     24 CA         17.7070    5.6680   -2.1650 C.3       6 GLP5        0.0000 
     25 CA         13.9785    8.4000   -1.2615 C.3       3 GLC5        0.0000 
     26 CA         14.3980    7.1700    0.4340 C.3       9 GLL5        0.0000 
     27 CA         13.5590    9.6300   -2.9570 C.3       6 GLP5        0.0000 
     28 CA         17.8730    0.6360    2.7005 C.3       3 GLC5        0.0000 
     29 CA         17.5810    2.0170    1.2830 C.3       9 GLL5        0.0000 
     30 CA         18.1650   -0.7450    4.1180 C.3       6 GLP5        0.0000 
     31 O          17.5935   -0.2520    0.4675 O.2       1 ALC1        0.0000 
     32 O          16.9290    0.9590    0.6850 O.2       7 ALL1        0.0000 
     33 O          18.2580   -1.4630    0.2500 O.2       4 ALP1        0.0000 
     34 CA         16.1930   -0.5720   -0.8505 C.3       3 GLC5        0.0000 
     35 CA         15.7370    1.3430    0.1610 C.3       9 GLL5        0.0000 
     36 CA         16.6490   -2.4870   -1.8620 C.3       6 GLP5        0.0000 
     37 N          14.6545   -0.8885   -0.6065 N.am      2 SEC2        0.0000 
     38 N          14.7680    0.6670   -0.5140 N.am      8 SEL2        0.0000 
     39 N          14.5410   -2.4440   -0.6990 N.am      5 SEP2        0.0000 
     40 CA         13.4835   -0.8295   -0.5430 C.3       3 GLC5        0.0000 
     41 CA         13.6770    1.2800   -0.9280 C.3       9 GLL5        0.0000 
     42 CA         13.2900   -2.9390   -0.1580 C.3       6 GLP5        0.0000 
     43 CA         19.2888   11.0225    1.4703 C.3       3 GLC5        0.0000 
     44 CA         17.1500   11.9790    0.7270 C.3       9 GLL5        0.0000 
     45 CA         20.7960    9.7970    1.8730 C.3       6 GLP5        0.0000 
     46 CA         16.2923    7.7005    0.0837 C.3       3 GLC5        0.0000 
     47 CA         14.5890    7.9560    1.7530 C.3       9 GLL5        0.0000 
     48 CA         13.5667    3.9737    2.1855 C.3       3 GLC5        0.0000 
     49 CA         12.6580    2.2680    2.7780 C.3       6 GLP5        0.0000 
     50 CA         11.4533    1.5940   -0.4018 C.3       3 GLC5        0.0000 
     51 CA         13.4540    2.6540   -0.6870 C.3       9 GLL5        0.0000 
     52 CA          9.3410    1.2210    0.0040 C.3       6 GLP5        0.0000 
     53 CA         16.9623    4.2955   -0.6723 C.3       3 GLC5        0.0000 
     54 CA         15.6080    2.7190    0.4520 C.3       9 GLL5        0.0000 
     55 CA         18.9995    3.2010    1.0815 C.3       3 GLC5        0.0000 
     56 CA         16.8270    3.1270    1.1890 C.3       9 GLL5        0.0000 
     57 CA         20.7950    3.8300    0.9270 C.3       6 GLP5        0.0000 
     58 CA         17.3651    1.7292   -0.8148 C.3       3 GLC5        0.0000 
     59 CA         18.4120    1.5520   -2.2360 C.3       6 GLP5        0.0000 
     60 CA         15.5321    1.5513    2.1337 C.3       3 GLC5        0.0000 
     61 CA         14.7460    1.1960    3.6610 C.3       6 GLP5        0.0000 
     62 CA         14.5084    2.5785   -2.3327 C.3       3 GLC5        0.0000 
     63 CA         14.4350    3.3780    0.0170 C.3       9 GLL5        0.0000 
     64 CA         15.2060    3.0090   -4.0340 C.3       6 GLP5        0.0000 
     65 CA         13.2344    2.2080    1.0733 C.3       3 GLC5        0.0000 
@<TRIPOS>BOND
@<TRIPOS>SUBSTRUCTURE
     1 ALC1       14 GROUP        1 X    ALC  0     ROOT ALC X 1
     2 SEC2       37 GROUP        1 X    SEC  0     **** SEC X 2
     3 GLC5        1 GROUP        1 X    GLC  0     **** GLC X 6
     4 ALP1       16 GROUP        1 Y    ALP  0     ROOT ALP Y 8
     5 SEP2       39 GROUP        1 Y    SEP  0     **** SEP Y 9
     6 GLP5        3 GROUP        1 Y    GLP  0     **** GLP Y 13
     7 ALL1       15 GROUP        1 Z    ALL  0     ROOT ALL Z 15
     8 SEL2       38 GROUP        1 Z    SEL  0     **** SEL Z 16
     9 GLL5        2 GROUP        1 Z    GLL  0     **** GLL Z 20
@<TRIPOS>SET

