#    Name: 4e4n_0NL_2_ligand
#    Modification time : Tue Mar 25 10:37:41 2014

@<TRIPOS>MOLECULE
4e4n_0NL_2_ligand
   48    51     1     0     0
SMALL
NO_CHARGES


@<TRIPOS>ATOM
      1 C1         17.3690   11.9460   -0.7850 C.3       1 0NL1201     0.0000 
      2 C2         17.1500   11.9790    0.7270 C.3       1 0NL1201     0.0000 
      3 C3         18.4130   12.5170    1.4080 C.3       1 0NL1201     0.0000 
      4 C4         15.9290   12.8480    1.0950 C.3       1 0NL1201     0.0000 
      5 O5         17.0060   10.6160    1.1820 O.3       1 0NL1201     0.0000 
      6 C6         15.8690    9.9130    1.0380 C.2       1 0NL1201     0.0000 
      7 O7         14.9850   10.2250    0.2470 O.2       1 0NL1201     0.0000 
      8 N8         15.7870    8.7880    1.7660 N.am      1 0NL1201     0.0000 
      9 C9         14.5890    7.9560    1.7530 C.3       1 0NL1201     0.0000 
     10 C11        14.7170    6.9870    2.9350 C.3       1 0NL1201     0.0000 
     11 C12        14.2420    5.6360    2.3410 C.3       1 0NL1201     0.0000 
     12 C13        14.7090    5.7230    0.8450 C.3       1 0NL1201     0.0000 
     13 C15        14.3980    7.1700    0.4340 C.3       1 0NL1201     0.0000 
     14 N16        13.9650    4.6710    0.1230 N.pl3     1 0NL1201     0.0000 
     15 C17        12.7390    4.7220   -0.4800 C.2       1 0NL1201     0.0000 
     16 N18        12.4390    3.5350   -0.9740 N.2       1 0NL1201     0.0000 
     17 C19        13.4540    2.6540   -0.6870 C.ar      1 0NL1201     0.0000 
     18 C20        14.4350    3.3780    0.0170 C.ar      1 0NL1201     0.0000 
     19 C21        15.6080    2.7190    0.4520 C.ar      1 0NL1201     0.0000 
     20 C22        16.8270    3.1270    1.1890 C.2       1 0NL1201     0.0000 
     21 C23        17.5810    2.0170    1.2830 C.2       1 0NL1201     0.0000 
     22 N24        16.9290    0.9590    0.6850 N.pl3     1 0NL1201     0.0000 
     23 C26        15.7370    1.3430    0.1610 C.ar      1 0NL1201     0.0000 
     24 N27        14.7680    0.6670   -0.5140 N.ar      1 0NL1201     0.0000 
     25 C28        13.6770    1.2800   -0.9280 C.ar      1 0NL1201     0.0000 
     26 H          16.5661    8.4603    2.3673 H         1 0NL1201     0.0000 
     27 H          13.7086    8.5587    1.9270 H         1 0NL1201     0.0000 
     28 H          14.0642    7.2762    3.7118 H         1 0NL1201     0.0000 
     29 H          15.7275    6.9046    3.2270 H         1 0NL1201     0.0000 
     30 H          13.1937    5.5808    2.3715 H         1 0NL1201     0.0000 
     31 H          14.7430    4.8423    2.8122 H         1 0NL1201     0.0000 
     32 H          15.7521    5.5600    0.8466 H         1 0NL1201     0.0000 
     33 H          15.1021    7.5008   -0.2775 H         1 0NL1201     0.0000 
     34 H          13.3942    7.2470    0.1210 H         1 0NL1201     0.0000 
     35 H          12.1896    5.5270   -0.5243 H         1 0NL1201     0.0000 
     36 H          16.9643    3.9904    1.4892 H         1 0NL1201     0.0000 
     37 H          18.4521    1.9509    1.7031 H         1 0NL1201     0.0000 
     38 H          17.2899    0.0507    0.6491 H         1 0NL1201     0.0000 
     39 H          12.9269    0.7671   -1.4563 H         1 0NL1201     0.0000 
     40 H          17.5595   12.8562   -1.1526 H         1 0NL1201     0.0000 
     41 H          18.1404   11.3612   -1.0359 H         1 0NL1201     0.0000 
     42 H          16.5667   11.5965   -1.2689 H         1 0NL1201     0.0000 
     43 H          19.2111   11.9464    1.2144 H         1 0NL1201     0.0000 
     44 H          18.6339   13.4432    1.1024 H         1 0NL1201     0.0000 
     45 H          18.3123   12.5526    2.4023 H         1 0NL1201     0.0000 
     46 H          15.7756   12.8737    2.0828 H         1 0NL1201     0.0000 
     47 H          16.0413   13.7941    0.7911 H         1 0NL1201     0.0000 
     48 H          15.0885   12.5037    0.6767 H         1 0NL1201     0.0000 
@<TRIPOS>BOND
     1    2    1 1    
     2   40    1 1    
     3   41    1 1    
     4   42    1 1    
     5    3    2 1    
     6    4    2 1    
     7    5    2 1    
     8   43    3 1    
     9   44    3 1    
    10   45    3 1    
    11   46    4 1    
    12   47    4 1    
    13   48    4 1    
    14    6    5 1    
    15    7    6 2    
    16    8    6 am   
    17    9    8 1    
    18   26    8 1    
    19   10    9 1    
    20   13    9 1    
    21   27    9 1    
    22   11   10 1    
    23   28   10 1    
    24   29   10 1    
    25   12   11 1    
    26   30   11 1    
    27   31   11 1    
    28   13   12 1    
    29   14   12 1    
    30   32   12 1    
    31   33   13 1    
    32   34   13 1    
    33   15   14 1    
    34   18   14 1    
    35   16   15 2    
    36   35   15 1    
    37   17   16 1    
    38   18   17 ar   
    39   25   17 ar   
    40   19   18 ar   
    41   20   19 1    
    42   23   19 ar   
    43   21   20 2    
    44   36   20 1    
    45   22   21 1    
    46   37   21 1    
    47   23   22 1    
    48   38   22 1    
    49   24   23 ar   
    50   25   24 ar   
    51   39   25 1    
@<TRIPOS>SUBSTRUCTURE
     1 0NL1201     1 GROUP   
@<TRIPOS>SET

