#    Name: 4CBT_3_CAVITY_N1_6.mol2
#    Modification time : Mon Mar 10 13:00:28 2014

@<TRIPOS>MOLECULE
4CBT_3_CAVITY_N1_6.mol2
   73     0     5     0     0
SMALL
NO_CHARGES


@<TRIPOS>ATOM
      1 CA        -47.4140   35.3840  163.2762 C.3       4 GLY6        0.0000 
      2 CA        -47.0664   34.1781  164.0978 C.3       4 GLY6        0.0000 
      3 CA        -40.7937   35.9799  155.8724 C.3       4 GLY6        0.0000 
      4 CA        -40.4461   34.7740  156.6940 C.3       4 GLY6        0.0000 
      5 CA        -40.0984   33.5681  157.5156 C.3       4 GLY6        0.0000 
      6 OD1       -39.7508   32.3623  158.3372 O.3       2 ASP3        0.0000 
      7 CA        -40.9241   33.8819  155.5870 C.3       4 GLY6        0.0000 
      8 N         -40.5765   32.6761  156.4085 N.2       1 ALA2        0.0000 
      9 O         -40.2288   31.4702  157.2301 O.2       1 ALA2        0.0000 
     10 CA        -43.4086   33.2702  161.2175 C.3       4 GLY6        0.0000 
     11 N         -43.0610   32.0643  162.0391 N.2       1 ALA2        0.0000 
     12 CZ        -44.2343   33.5840  159.2888 C.ar      3 PHE5        0.0000 
     13 DU        -43.8867   32.3781  160.1104 H         5 CUB7        0.0000 
     14 CZ        -43.5390   31.1722  160.9320 C.ar      3 PHE5        0.0000 
     15 CZ        -44.7124   32.6919  158.1818 C.ar      3 PHE5        0.0000 
     16 CA        -44.3647   31.4860  159.0033 C.3       4 GLY6        0.0000 
     17 CA        -42.6504   35.0931  155.3564 C.3       4 GLY6        0.0000 
     18 N         -42.3027   33.8872  156.1780 N.2       1 ALA2        0.0000 
     19 N         -41.9551   32.6813  156.9996 N.2       1 ALA2        0.0000 
     20 N         -41.6075   31.4754  157.8212 N.2       1 ALA2        0.0000 
     21 O         -40.3156   36.8720  156.9795 O.2       1 ALA2        0.0000 
     22 CA        -45.6878   34.1728  163.5067 C.3       4 GLY6        0.0000 
     23 CA        -46.5135   34.4866  161.5781 C.3       4 GLY6        0.0000 
     24 CA        -46.1658   33.2807  162.3997 C.3       4 GLY6        0.0000 
     25 CA        -45.8182   32.0748  163.2212 C.3       4 GLY6        0.0000 
     26 CA        -45.4706   30.8690  164.0428 C.3       4 GLY6        0.0000 
     27 CA        -45.1229   29.6631  164.8644 C.3       4 GLY6        0.0000 
     28 CZ        -46.9915   33.5945  160.4710 C.ar      3 PHE5        0.0000 
     29 DU        -46.6439   32.3886  161.2926 H         5 CUB7        0.0000 
     30 DU        -46.2963   31.1827  162.1142 H         5 CUB7        0.0000 
     31 CZ        -45.9486   29.9769  162.9357 C.ar      3 PHE5        0.0000 
     32 CZ        -47.1220   31.4965  160.1855 C.ar      3 PHE5        0.0000 
     33 CZ        -46.7743   30.2906  161.0071 C.ar      3 PHE5        0.0000 
     34 CZ        -47.6000   30.6044  159.0784 C.ar      3 PHE5        0.0000 
     35 CZ        -48.0781   29.7123  157.9713 C.ar      3 PHE5        0.0000 
     36 CA        -42.5948   37.7746  159.2688 C.3       4 GLY6        0.0000 
     37 CA        -41.8995   35.3629  160.9119 C.3       4 GLY6        0.0000 
     38 N         -43.4205   38.0884  157.3401 N.2       1 ALA2        0.0000 
     39 CA        -43.0729   36.8825  158.1617 C.3       4 GLY6        0.0000 
     40 CA        -42.7252   35.6767  158.9833 C.3       4 GLY6        0.0000 
     41 CA        -42.3776   34.4708  159.8048 C.3       4 GLY6        0.0000 
     42 CA        -42.0300   33.2649  160.6264 C.3       4 GLY6        0.0000 
     43 CZ        -43.5509   35.9904  157.0546 C.ar      3 PHE5        0.0000 
     44 CZ        -43.2033   34.7846  157.8762 C.ar      3 PHE5        0.0000 
     45 CZ        -42.8557   33.5787  158.6978 C.ar      3 PHE5        0.0000 
     46 DU        -42.5080   32.3728  159.5193 H         5 CUB7        0.0000 
     47 CZ        -42.1604   31.1669  160.3409 C.ar      3 PHE5        0.0000 
     48 N         -43.3337   32.6866  157.5907 N.2       1 ALA2        0.0000 
     49 N         -42.9861   31.4807  158.4123 N.2       1 ALA2        0.0000 
     50 O         -41.2162   37.7694  158.6777 O.2       1 ALA2        0.0000 
     51 O         -40.8686   36.5635  159.4993 O.2       1 ALA2        0.0000 
     52 O         -42.0419   38.0831  156.7490 O.2       1 ALA2        0.0000 
     53 O         -41.6943   36.8773  157.5706 O.2       1 ALA2        0.0000 
     54 O         -41.3466   35.6714  158.3922 O.2       1 ALA2        0.0000 
     55 OD1       -40.9990   34.4655  159.2138 O.3       2 ASP3        0.0000 
     56 CA        -40.6513   33.2596  160.0354 C.3       4 GLY6        0.0000 
     57 CA        -42.5200   37.1911  155.6419 C.3       4 GLY6        0.0000 
     58 CA        -42.1723   35.9852  156.4635 C.3       4 GLY6        0.0000 
     59 DU        -41.8247   34.7793  157.2851 H         5 CUB7        0.0000 
     60 DU        -41.4770   33.5734  158.1067 H         5 CUB7        0.0000 
     61 OD1       -41.1294   32.3675  158.9283 O.3       2 ASP3        0.0000 
     62 CA        -40.7818   31.1617  159.7499 C.3       4 GLY6        0.0000 
     63 CA        -44.3092   34.1675  162.9157 C.3       4 GLY6        0.0000 
     64 CA        -44.7872   33.2754  161.8086 C.3       4 GLY6        0.0000 
     65 N         -44.4396   32.0696  162.6302 N.2       1 ALA2        0.0000 
     66 CA        -44.0919   30.8637  163.4517 C.3       4 GLY6        0.0000 
     67 CZ        -45.6129   33.5892  159.8799 C.ar      3 PHE5        0.0000 
     68 DU        -45.2653   32.3833  160.7015 H         5 CUB7        0.0000 
     69 CZ        -44.9176   31.1775  161.5231 C.ar      3 PHE5        0.0000 
     70 CZ        -45.7433   31.4913  159.5944 C.ar      3 PHE5        0.0000 
     71 CZ        -45.3957   30.2854  160.4160 C.ar      3 PHE5        0.0000 
     72 CA        -46.2214   30.5992  158.4873 C.3       4 GLY6        0.0000 
     73 CZ        -45.8738   29.3933  159.3089 C.ar      3 PHE5        0.0000 
@<TRIPOS>BOND
@<TRIPOS>SUBSTRUCTURE
     1 ALA2        8 GROUP   
     2 ASP3        6 GROUP   
     3 PHE5       12 GROUP   
     4 GLY6        1 GROUP   
     5 CUB7       13 GROUP   
@<TRIPOS>SET

