#    Name: 4cbt_9F4_3_INTS_M
#    Modification time : Tue Mar 25 09:10:05 2014

@<TRIPOS>MOLECULE
4cbt_9F4_3_INTS_M
   46     0     9     0     0
SMALL
NO_CHARGES


@<TRIPOS>ATOM
      1 CA        -46.7605   31.2415  165.3290 C.3       3 GLC5        0.0000 
      2 CA        -47.6940   29.5310  164.4480 C.3       9 GLL5        0.0000 
      3 CA        -45.8270   32.9520  166.2100 C.3       6 GLP5        0.0000 
      4 CA        -45.3080   32.3730  164.3025 C.3       3 GLC5        0.0000 
      5 CA        -44.7890   31.7940  162.3950 C.3       9 GLL5        0.0000 
      6 CA        -41.8480   31.7650  162.3540 C.3       3 GLC5        0.0000 
      7 CA        -43.8260   32.5070  161.6770 C.3       9 GLL5        0.0000 
      8 CA        -39.8700   31.0230  163.0310 C.3       6 GLP5        0.0000 
      9 O         -39.8490   30.4585  157.5425 O.2       1 ALC1        0.0000 
     10 O         -39.4820   32.1260  157.7870 O.2       7 ALL1        0.0000 
     11 O         -40.2160   28.7910  157.2980 O.2       4 ALP1        0.0000 
     12 Zn        -37.9950   32.8180  158.8885 Zn        2 ZIC7        0.0000 
     13 Zn        -38.1100   32.3940  157.8370 Zn        8 ZIL7        0.0000 
     14 Zn        -37.8800   33.2420  159.9400 Zn        5 ZIP7        0.0000 
     15 Zn        -38.8435   33.4495  159.6885 Zn        2 ZIC7        0.0000 
     16 Zn        -39.8070   33.6570  159.4370 Zn        8 ZIL7        0.0000 
     17 CA        -44.1670   33.6735  157.1330 C.3       3 GLC5        0.0000 
     18 CA        -42.7080   33.4390  158.0690 C.3       9 GLL5        0.0000 
     19 CA        -45.6260   33.9080  156.1970 C.3       6 GLP5        0.0000 
     20 CA        -41.0330   34.3160  154.7575 C.3       3 GLC5        0.0000 
     21 CA        -41.5130   35.1780  156.6390 C.3       9 GLL5        0.0000 
     22 CA        -40.5530   33.4540  152.8760 C.3       6 GLP5        0.0000 
     23 CA        -42.5715   38.9120  159.0360 C.3       3 GLC5        0.0000 
     24 CA        -42.8830   37.2470  157.9090 C.3       9 GLL5        0.0000 
     25 CA        -42.2600   40.5770  160.1630 C.3       6 GLP5        0.0000 
     26 CA        -41.8800   39.0245  155.5770 C.3       3 GLC5        0.0000 
     27 CA        -41.9460   37.5410  156.9290 C.3       9 GLL5        0.0000 
     28 CA        -41.8140   40.5080  154.2250 C.3       6 GLP5        0.0000 
     29 CA        -41.6025   39.3370  158.0390 C.3       3 GLC5        0.0000 
     30 CA        -41.2590   41.1330  159.1490 C.3       6 GLP5        0.0000 
     31 CA        -43.9770   29.9232  163.0155 C.3       3 GLC5        0.0000 
     32 CA        -42.7220   28.4880  163.9590 C.3       6 GLP5        0.0000 
     33 CA        -44.5958   30.1205  158.3213 C.3       3 GLC5        0.0000 
     34 CA        -44.5950   31.5210  159.6420 C.3       9 GLL5        0.0000 
     35 CA        -44.1150   29.0770  156.6440 C.3       6 GLP5        0.0000 
     36 CA        -43.5838   34.6189  161.0588 C.3       3 GLC5        0.0000 
     37 CA        -42.6440   33.1620  159.5620 C.3       9 GLL5        0.0000 
     38 CA        -43.9630   36.4340  161.8460 C.3       6 GLP5        0.0000 
     39 CA        -45.0057   37.3440  158.1585 C.3       3 GLC5        0.0000 
     40 CA        -47.0090   38.1040  158.2350 C.3       6 GLP5        0.0000 
     41 CA        -43.4828   36.5090  159.9640 C.3       3 GLC5        0.0000 
     42 CA        -42.6469   36.6150  154.9580 C.3       3 GLC5        0.0000 
     43 CA        -43.6240   36.5380  153.2210 C.3       6 GLP5        0.0000 
     44 CA        -39.7499   36.2380  156.8370 C.3       3 GLC5        0.0000 
     45 CA        -41.2740   36.5080  156.2830 C.3       9 GLL5        0.0000 
     46 CA        -37.8300   35.7840  156.9790 C.3       6 GLP5        0.0000 
@<TRIPOS>BOND
@<TRIPOS>SUBSTRUCTURE
     1 ALC1        9 GROUP        1 X    ALC  0     ROOT ALC X 1
     2 ZIC7       12 GROUP        1 X    ZIC  0     **** ZIC X 5
     3 GLC5        1 GROUP        1 X    GLC  0     **** GLC X 6
     4 ALP1       11 GROUP        1 Y    ALP  0     ROOT ALP Y 8
     5 ZIP7       14 GROUP        1 Y    ZIP  0     **** ZIP Y 12
     6 GLP5        3 GROUP        1 Y    GLP  0     **** GLP Y 13
     7 ALL1       10 GROUP        1 Z    ALL  0     ROOT ALL Z 15
     8 ZIL7       13 GROUP        1 Z    ZIL  0     **** ZIL Z 19
     9 GLL5        2 GROUP        1 Z    GLL  0     **** GLL Z 20
@<TRIPOS>SET

