#    Name: 4cbt_9F4_3_ligand
#    Modification time : Tue Mar 25 09:10:05 2014

@<TRIPOS>MOLECULE
4cbt_9F4_3_ligand
   41    44     1     0     0
SMALL
NO_CHARGES


@<TRIPOS>ATOM
      1 F26       -49.4690   27.9650  164.4250 F         1 9F42035     0.0000 
      2 C23       -48.5450   28.6850  163.7830 C.ar      1 9F42035     0.0000 
      3 C22       -47.6940   29.5310  164.4480 C.ar      1 9F42035     0.0000 
      4 N21       -46.7560   30.2740  163.8250 N.ar      1 9F42035     0.0000 
      5 C24       -48.4020   28.6180  162.4220 C.ar      1 9F42035     0.0000 
      6 N25       -47.4910   29.3420  161.7440 N.ar      1 9F42035     0.0000 
      7 C20       -46.6870   30.1470  162.4810 C.ar      1 9F42035     0.0000 
      8 C12       -45.6750   30.9230  161.7490 C.ar      1 9F42035     0.0000 
      9 C11       -44.7890   31.7940  162.3950 C.ar      1 9F42035     0.0000 
     10 C10       -43.8260   32.5070  161.6770 C.ar      1 9F42035     0.0000 
     11 C13       -45.5580   30.8070  160.3550 C.ar      1 9F42035     0.0000 
     12 C14       -44.5950   31.5210  159.6420 C.ar      1 9F42035     0.0000 
     13 C9        -43.7040   32.3840  160.2850 C.ar      1 9F42035     0.0000 
     14 C8        -42.6440   33.1620  159.5620 C.3       1 9F42035     0.0000 
     15 C15       -41.6860   32.4780  158.6220 C.3       1 9F42035     0.0000 
     16 C16       -40.2620   32.8220  158.6610 C.2       1 9F42035     0.0000 
     17 N18       -39.4820   32.1260  157.7870 N.am      1 9F42035     0.0000 
     18 O19       -38.1100   32.3940  157.8370 O.3       1 9F42035     0.0000 
     19 O17       -39.8070   33.6570  159.4370 O.2       1 9F42035     0.0000 
     20 C7        -42.7080   33.4390  158.0690 C.3       1 9F42035     0.0000 
     21 C6        -42.4250   34.8590  157.6500 C.ar      1 9F42035     0.0000 
     22 C1        -41.5130   35.1780  156.6390 C.ar      1 9F42035     0.0000 
     23 C5        -43.1220   35.9210  158.2550 C.ar      1 9F42035     0.0000 
     24 C4        -42.8830   37.2470  157.9090 C.ar      1 9F42035     0.0000 
     25 C3        -41.9460   37.5410  156.9290 C.ar      1 9F42035     0.0000 
     26 C2        -41.2740   36.5080  156.2830 C.ar      1 9F42035     0.0000 
     27 H         -47.7855   29.5974  165.5022 H         1 9F42035     0.0000 
     28 H         -49.0418   27.9640  161.8875 H         1 9F42035     0.0000 
     29 H         -44.8498   31.9102  163.4200 H         1 9F42035     0.0000 
     30 H         -43.1836   33.1443  162.1838 H         1 9F42035     0.0000 
     31 H         -46.2038   30.1753  159.8474 H         1 9F42035     0.0000 
     32 H         -44.5383   31.4097  158.6131 H         1 9F42035     0.0000 
     33 H         -42.1240   33.9290  159.9384 H         1 9F42035     0.0000 
     34 H         -42.0763   31.5734  158.4759 H         1 9F42035     0.0000 
     35 H         -39.8538   31.4553  157.1372 H         1 9F42035     0.0000 
     36 H         -43.4672   32.8843  157.7557 H         1 9F42035     0.0000 
     37 H         -41.0103   34.4212  156.1498 H         1 9F42035     0.0000 
     38 H         -43.8333   35.7018  158.9792 H         1 9F42035     0.0000 
     39 H         -43.3972   38.0015  158.3765 H         1 9F42035     0.0000 
     40 H         -41.7477   38.5176  156.6798 H         1 9F42035     0.0000 
     41 H         -40.5962   36.7220  155.5380 H         1 9F42035     0.0000 
@<TRIPOS>BOND
     1    2    1 1    
     2    3    2 ar   
     3    5    2 ar   
     4    4    3 ar   
     5   27    3 1    
     6    7    4 ar   
     7    6    5 ar   
     8   28    5 1    
     9    7    6 ar   
    10    8    7 1    
    11    9    8 ar   
    12   11    8 ar   
    13   10    9 ar   
    14   29    9 1    
    15   13   10 ar   
    16   30   10 1    
    17   12   11 ar   
    18   31   11 1    
    19   13   12 ar   
    20   32   12 1    
    21   14   13 1    
    22   15   14 1    
    23   20   14 1    
    24   33   14 1    
    25   16   15 1    
    26   20   15 1    
    27   34   15 1    
    28   17   16 am   
    29   19   16 2    
    30   18   17 1    
    31   35   17 1    
    32   21   20 1    
    33   36   20 1    
    34   22   21 ar   
    35   23   21 ar   
    36   26   22 ar   
    37   37   22 1    
    38   24   23 ar   
    39   38   23 1    
    40   25   24 ar   
    41   39   24 1    
    42   26   25 ar   
    43   40   25 1    
    44   41   26 1    
@<TRIPOS>SUBSTRUCTURE
     1 9F42035     1 GROUP   
@<TRIPOS>SET

