#    Name: 3p89_89P_1_INTS_M
#    Modification time : Tue Mar 25 06:04:02 2014

@<TRIPOS>MOLECULE
3p89_89P_1_INTS_M
  111     0     6     0     0
SMALL
NO_CHARGES


@<TRIPOS>ATOM
      1 CA        138.0670  166.6220  102.5605 C.3       2 GLC5        0.0000 
      2 CA        137.2770  164.8370  102.3870 C.3       6 GLL5        0.0000 
      3 CA        138.8570  168.4070  102.7340 C.3       4 GLP5        0.0000 
      4 CA        136.1455  166.0665  101.2105 C.3       2 GLC5        0.0000 
      5 CA        135.0140  167.2960  100.0340 C.3       4 GLP5        0.0000 
      6 CA        135.7140  165.3490  103.1970 C.3       2 GLC5        0.0000 
      7 CA        134.1510  165.8610  104.0070 C.3       4 GLP5        0.0000 
      8 CA        140.9415  164.4930  102.9305 C.3       2 GLC5        0.0000 
      9 CA        139.4310  163.5770  102.7940 C.3       6 GLL5        0.0000 
     10 CA        142.4520  165.4090  103.0670 C.3       4 GLP5        0.0000 
     11 CA        139.4665  165.7135  103.3135 C.3       2 GLC5        0.0000 
     12 CA        139.5020  167.8500  103.8330 C.3       4 GLP5        0.0000 
     13 N         135.7800  163.4435  106.5840 N.am      1 SEC2        0.0000 
     14 N         136.5980  162.4290  105.8180 N.am      5 SEL2        0.0000 
     15 N         134.9620  164.4580  107.3500 N.am      3 SEP2        0.0000 
     16 CA        137.7625  160.4070  101.5930 C.3       2 GLC5        0.0000 
     17 CA        136.1540  160.5630  102.5630 C.3       6 GLL5        0.0000 
     18 CA        139.3710  160.2510  100.6230 C.3       4 GLP5        0.0000 
     19 CA        135.0995  162.0150  101.4850 C.3       2 GLC5        0.0000 
     20 CA        134.0450  163.4670  100.4070 C.3       4 GLP5        0.0000 
     21 CA        134.0905  161.4540  101.0835 C.3       2 GLC5        0.0000 
     22 CA        134.1360  159.4410  101.7600 C.3       6 GLL5        0.0000 
     23 CA        131.8675  161.4600  102.1965 C.3       2 GLC5        0.0000 
     24 CA        132.9210  159.8920  101.2990 C.3       6 GLL5        0.0000 
     25 CA        130.8140  163.0280  103.0940 C.3       4 GLP5        0.0000 
     26 CA        130.7630  160.1275   99.3475 C.3       2 GLC5        0.0000 
     27 CA        132.1880  159.1430  100.3980 C.3       6 GLL5        0.0000 
     28 CA        129.3380  161.1120   98.2970 C.3       4 GLP5        0.0000 
     29 CA        135.4745  155.9920   99.9815 C.3       2 GLC5        0.0000 
     30 CA        133.8850  157.4490  100.4140 C.3       6 GLL5        0.0000 
     31 CA        137.0640  154.5350   99.5490 C.3       4 GLP5        0.0000 
     32 CA        136.7280  158.0000  101.0670 C.3       2 GLC5        0.0000 
     33 CA        134.6250  158.2130  101.3260 C.3       6 GLL5        0.0000 
     34 CA        138.8310  157.7870  100.8080 C.3       4 GLP5        0.0000 
     35 CA        129.5780  156.0470   94.6655 C.3       2 GLC5        0.0000 
     36 CA        129.9830  154.3350   95.2870 C.3       6 GLL5        0.0000 
     37 CA        129.1730  157.7590   94.0440 C.3       4 GLP5        0.0000 
     38 CA        129.1780  152.4245   95.4915 C.3       2 GLC5        0.0000 
     39 CA        128.3730  150.5140   95.6960 C.3       4 GLP5        0.0000 
     40 CA        134.1955  154.4425   95.8510 C.3       2 GLC5        0.0000 
     41 CA        132.1640  154.6490   96.2610 C.3       6 GLL5        0.0000 
     42 CA        136.2270  154.2360   95.4410 C.3       4 GLP5        0.0000 
     43 CA        131.5730  157.3565   95.7600 C.3       2 GLC5        0.0000 
     44 CA        131.6060  155.5850   97.1310 C.3       6 GLL5        0.0000 
     45 CA        131.5400  159.1280   94.3890 C.3       4 GLP5        0.0000 
     46 N         129.6700  151.6225   92.8415 N.am      1 SEC2        0.0000 
     47 N         129.4270  152.8570   93.4960 N.am      5 SEL2        0.0000 
     48 N         129.9130  150.3880   92.1870 N.am      3 SEP2        0.0000 
     49 N         126.9960  153.6645   95.3875 N.am      1 SEC2        0.0000 
     50 N         127.7850  154.1210   94.2930 N.am      5 SEL2        0.0000 
     51 N         126.2070  153.2080   96.4820 N.am      3 SEP2        0.0000 
     52 CA        139.0920  158.8070  103.8990 C.3       2 GLC5        0.0000 
     53 CA        137.5920  158.8110  105.5300 C.3       6 GLL5        0.0000 
     54 CA        140.5920  158.8030  102.2680 C.3       4 GLP5        0.0000 
     55 CA        138.6535  157.2070  105.8655 C.3       2 GLC5        0.0000 
     56 CA        139.7150  155.6030  106.2010 C.3       4 GLP5        0.0000 
     57 CA        139.1720  158.9795  106.5725 C.3       2 GLC5        0.0000 
     58 CA        140.7520  159.1480  107.6150 C.3       4 GLP5        0.0000 
     59 CA        136.1270  156.8495  107.5405 C.3       2 GLC5        0.0000 
     60 CA        135.0860  157.9480  106.3490 C.3       6 GLL5        0.0000 
     61 CA        137.1680  155.7510  108.7320 C.3       4 GLP5        0.0000 
     62 CA        131.9910  162.5185  104.3790 C.3       2 GLC5        0.0000 
     63 CA        133.1680  162.0090  105.6640 C.3       6 GLL5        0.0000 
     64 CA        133.0275  163.8800  105.0990 C.3       2 GLC5        0.0000 
     65 CA        132.8870  165.7510  104.5340 C.3       4 GLP5        0.0000 
     66 CA        135.8265  163.8098  101.4300 C.3       2 GLC5        0.0000 
     67 CA        139.0280  161.8868  101.6397 C.3       2 GLC5        0.0000 
     68 CA        137.9390  163.4680  102.5190 C.3       6 GLL5        0.0000 
     69 CA        139.3625  163.3107  104.5668 C.3       2 GLC5        0.0000 
     70 CA        140.0400  163.0990  106.4770 C.3       4 GLP5        0.0000 
     71 CA        138.3183  164.0219  100.6852 C.3       2 GLC5        0.0000 
     72 CA        138.1170  164.1790   98.7470 C.3       4 GLP5        0.0000 
     73 CA        138.1205  161.1838  102.1385 C.3       2 GLC5        0.0000 
     74 CA        137.2640  162.7360  103.6120 C.3       6 GLL5        0.0000 
     75 CA        132.8827  161.2142  100.0523 C.3       2 GLC5        0.0000 
     76 CA        133.2110  162.9110   99.2560 C.3       4 GLP5        0.0000 
     77 CA        133.7095  158.9800   98.6690 C.3       2 GLC5        0.0000 
     78 CA        135.0030  159.4350   97.1630 C.3       4 GLP5        0.0000 
     79 CA        134.6290  158.6330   99.0165 C.3       2 GLC5        0.0000 
     80 CA        133.5535  158.0695   97.8392 C.3       2 GLC5        0.0000 
     81 CA        131.8150  157.1700   98.9530 C.3       6 GLL5        0.0000 
     82 CA        129.1630  158.7808   98.7297 C.3       2 GLC5        0.0000 
     83 CA        130.4510  157.4520   98.8410 C.3       6 GLL5        0.0000 
     84 CA        128.2650  160.4360   99.0880 C.3       4 GLP5        0.0000 
     85 CA        129.5650  157.0457   95.7600 C.3       2 GLC5        0.0000 
     86 CA        129.6710  156.7990   97.9020 C.3       6 GLL5        0.0000 
     87 CA        130.4435  154.7527   98.3670 C.3       2 GLC5        0.0000 
     88 CA        130.2430  155.8660   97.0500 C.3       6 GLL5        0.0000 
     89 CA        130.9300  153.1730   99.2580 C.3       4 GLP5        0.0000 
     90 CA        128.6690  156.1369   99.0274 C.3       2 GLC5        0.0000 
     91 CA        127.1860  155.7780  100.3440 C.3       4 GLP5        0.0000 
     92 CA        130.7965  153.6740   97.2828 C.3       2 GLC5        0.0000 
     93 CA        131.3430  154.0150   95.3280 C.3       6 GLL5        0.0000 
     94 CA        132.4862  152.5005   95.9048 C.3       2 GLC5        0.0000 
     95 CA        133.2190  150.6690   96.0150 C.3       4 GLP5        0.0000 
     96 CA        132.0652  154.9215   94.2061 C.3       2 GLC5        0.0000 
     97 CA        132.7170  155.4310   92.6280 C.3       4 GLP5        0.0000 
     98 CA        131.4075  154.1450   97.9770 C.3       2 GLC5        0.0000 
     99 CA        131.3465  154.9737   98.8727 C.3       2 GLC5        0.0000 
    100 CA        132.3930  156.2380   98.0780 C.3       6 GLL5        0.0000 
    101 CA        137.0340  158.1192  107.6440 C.3       2 GLC5        0.0000 
    102 CA        135.8480  159.0100  105.8740 C.3       6 GLL5        0.0000 
    103 CA        137.3480  157.3280  109.5860 C.3       4 GLP5        0.0000 
    104 CA        131.5455  158.0085  106.8560 C.3       2 GLC5        0.0000 
    105 CA        133.7310  158.1290  106.6080 C.3       6 GLL5        0.0000 
    106 CA        129.6530  157.2690  107.2120 C.3       4 GLP5        0.0000 
    107 CA        131.6990  160.2660  105.1845 C.3       2 GLC5        0.0000 
    108 CA        133.1450  159.3670  106.3920 C.3       6 GLL5        0.0000 
    109 CA        129.8640  160.6400  104.2120 C.3       4 GLP5        0.0000 
    110 CA        134.2397  162.4855  107.1615 C.3       2 GLC5        0.0000 
    111 CA        134.9340  163.7580  108.5300 C.3       4 GLP5        0.0000 
@<TRIPOS>BOND
@<TRIPOS>SUBSTRUCTURE
     1 SEC2       13 GROUP        1 X    SEC  0     ROOT SEC X 2
     2 GLC5        1 GROUP        1 X    GLC  0     **** GLC X 6
     3 SEP2       15 GROUP        1 Y    SEP  0     ROOT SEP Y 9
     4 GLP5        3 GROUP        1 Y    GLP  0     **** GLP Y 13
     5 SEL2       14 GROUP        1 Z    SEL  0     ROOT SEL Z 16
     6 GLL5        2 GROUP        1 Z    GLL  0     **** GLL Z 20
@<TRIPOS>SET

