#    Name: 3p89_89P_1_ligand
#    Modification time : Tue Mar 25 06:04:02 2014

@<TRIPOS>MOLECULE
3p89_89P_1_ligand
   58    62     1     0     0
SMALL
NO_CHARGES


@<TRIPOS>ATOM
      1 C1        137.2770  164.8370  102.3870 C.3       1 89P1        0.0000 
      2 C2        137.9390  163.4680  102.5190 C.3       1 89P1        0.0000 
      3 C3        139.4310  163.5770  102.7940 C.3       1 89P1        0.0000 
      4 C4        137.2640  162.7360  103.6120 C.2       1 89P1        0.0000 
      5 O5        137.3010  163.2480  104.8650 O.3       1 89P1        0.0000 
      6 N6        136.5980  162.4290  105.8180 N.2       1 89P1        0.0000 
      7 C7        136.0880  161.3710  105.1360 C.2       1 89P1        0.0000 
      8 C8        136.4760  161.4970  103.6960 C.2       1 89P1        0.0000 
      9 C9        136.1540  160.5630  102.5630 C.3       1 89P1        0.0000 
     10 O10       134.7850  160.2300  102.6610 O.3       1 89P1        0.0000 
     11 C11       134.1360  159.4410  101.7600 C.ar      1 89P1        0.0000 
     12 C12       132.9210  159.8920  101.2990 C.ar      1 89P1        0.0000 
     13 C13       132.1880  159.1430  100.3980 C.ar      1 89P1        0.0000 
     14 C14       132.6440  157.9070   99.9520 C.ar      1 89P1        0.0000 
     15 C15       133.8850  157.4490  100.4140 C.ar      1 89P1        0.0000 
     16 C16       134.6250  158.2130  101.3260 C.ar      1 89P1        0.0000 
     17 C17       131.8150  157.1700   98.9530 C.ar      1 89P1        0.0000 
     18 C18       130.4510  157.4520   98.8410 C.ar      1 89P1        0.0000 
     19 C19       129.6710  156.7990   97.9020 C.ar      1 89P1        0.0000 
     20 C20       130.2430  155.8660   97.0500 C.ar      1 89P1        0.0000 
     21 N21       129.4650  155.2470   96.1390 N.ar      1 89P1        0.0000 
     22 C22       129.9830  154.3350   95.2870 C.ar      1 89P1        0.0000 
     23 C23       131.3430  154.0150   95.3280 C.ar      1 89P1        0.0000 
     24 C24       132.1640  154.6490   96.2610 C.ar      1 89P1        0.0000 
     25 C25       131.6060  155.5850   97.1310 C.ar      1 89P1        0.0000 
     26 C26       132.3930  156.2380   98.0780 C.ar      1 89P1        0.0000 
     27 C27       129.0490  153.7030   94.3010 C.2       1 89P1        0.0000 
     28 O28       129.4270  152.8570   93.4960 O.co2     1 89P1        0.0000 
     29 O29       127.7850  154.1210   94.2930 O.co2     1 89P1        0.0000 
     30 C30       135.2720  160.2460  105.6690 C.ar      1 89P1        0.0000 
     31 C31       135.8480  159.0100  105.8740 C.ar      1 89P1        0.0000 
     32 CL32      137.5920  158.8110  105.5300 Cl        1 89P1        0.0000 
     33 C33       135.0860  157.9480  106.3490 C.ar      1 89P1        0.0000 
     34 C34       133.7310  158.1290  106.6080 C.ar      1 89P1        0.0000 
     35 C35       133.1450  159.3670  106.3920 C.ar      1 89P1        0.0000 
     36 C36       133.9230  160.4170  105.9220 C.ar      1 89P1        0.0000 
     37 CL37      133.1680  162.0090  105.6640 Cl        1 89P1        0.0000 
     38 H         137.7915  162.9319  101.5890 H         1 89P1        0.0000 
     39 H         136.7961  159.6843  102.6498 H         1 89P1        0.0000 
     40 H         136.3857  161.0699  101.6242 H         1 89P1        0.0000 
     41 H         132.5493  160.8016  101.6287 H         1 89P1        0.0000 
     42 H         131.2818  159.5054  100.0461 H         1 89P1        0.0000 
     43 H         134.2536  156.5498  100.0828 H         1 89P1        0.0000 
     44 H         135.5258  157.8634  101.6707 H         1 89P1        0.0000 
     45 H         130.0263  158.1548   99.4669 H         1 89P1        0.0000 
     46 H         128.6635  157.0057   97.8350 H         1 89P1        0.0000 
     47 H         131.7299  153.3254   94.6824 H         1 89P1        0.0000 
     48 H         133.1601  154.4303   96.3059 H         1 89P1        0.0000 
     49 H         133.3986  156.0393   98.1387 H         1 89P1        0.0000 
     50 H         135.5223  157.0319  106.5084 H         1 89P1        0.0000 
     51 H         133.1667  157.3444  106.9591 H         1 89P1        0.0000 
     52 H         132.1466  159.5069  106.5773 H         1 89P1        0.0000 
     53 H         137.3791  165.3808  103.2200 H         1 89P1        0.0000 
     54 H         137.6721  165.3700  101.6388 H         1 89P1        0.0000 
     55 H         136.2966  164.7595  102.2059 H         1 89P1        0.0000 
     56 H         139.8589  162.6776  102.8831 H         1 89P1        0.0000 
     57 H         139.9098  164.0580  102.0596 H         1 89P1        0.0000 
     58 H         139.6171  164.0753  103.6408 H         1 89P1        0.0000 
@<TRIPOS>BOND
     1    2    1 1    
     2   53    1 1    
     3   54    1 1    
     4   55    1 1    
     5    3    2 1    
     6    4    2 1    
     7   38    2 1    
     8   56    3 1    
     9   57    3 1    
    10   58    3 1    
    11    5    4 1    
    12    8    4 2    
    13    6    5 1    
    14    7    6 2    
    15    8    7 1    
    16   30    7 1    
    17    9    8 1    
    18   10    9 1    
    19   39    9 1    
    20   40    9 1    
    21   11   10 1    
    22   12   11 ar   
    23   16   11 ar   
    24   13   12 ar   
    25   41   12 1    
    26   14   13 ar   
    27   42   13 1    
    28   15   14 ar   
    29   17   14 1    
    30   16   15 ar   
    31   43   15 1    
    32   44   16 1    
    33   18   17 ar   
    34   26   17 ar   
    35   19   18 ar   
    36   45   18 1    
    37   20   19 ar   
    38   46   19 1    
    39   21   20 ar   
    40   25   20 ar   
    41   22   21 ar   
    42   23   22 ar   
    43   27   22 1    
    44   24   23 ar   
    45   47   23 1    
    46   25   24 ar   
    47   48   24 1    
    48   26   25 ar   
    49   49   26 1    
    50   28   27 ar   
    51   29   27 ar   
    52   31   30 ar   
    53   36   30 ar   
    54   32   31 1    
    55   33   31 ar   
    56   34   33 ar   
    57   50   33 1    
    58   35   34 ar   
    59   51   34 1    
    60   36   35 ar   
    61   52   35 1    
    62   37   36 1    
@<TRIPOS>SUBSTRUCTURE
     1 89P1        1 GROUP   
@<TRIPOS>SET

