#    Name: 4lsn_1YR_1_INTS_M
#    Modification time : Tue Apr  8 00:09:17 2014

@<TRIPOS>MOLECULE
4lsn_1YR_1_INTS_M
   82     0     6     0     0
SMALL
NO_CHARGES


@<TRIPOS>ATOM
      1 CA        463.5620  -19.8480  117.0775 C.3       2 GLC5        0.0000 
      2 CA        462.3200  -18.3080  117.9600 C.3       6 GLL5        0.0000 
      3 CA        464.8040  -21.3880  116.1950 C.3       4 GLP5        0.0000 
      4 CA        463.7655  -17.9275  120.6295 C.3       2 GLC5        0.0000 
      5 CA        462.5440  -18.6950  119.2950 C.3       6 GLL5        0.0000 
      6 CA        464.9870  -17.1600  121.9640 C.3       4 GLP5        0.0000 
      7 CA        458.9240  -18.9665  120.5160 C.3       2 GLC5        0.0000 
      8 CA        460.4220  -19.9730  119.3070 C.3       6 GLL5        0.0000 
      9 CA        457.4260  -17.9600  121.7250 C.3       4 GLP5        0.0000 
     10 CA        460.3740  -19.4410  114.4380 C.3       2 GLC5        0.0000 
     11 CA        460.8630  -18.2880  115.6670 C.3       6 GLL5        0.0000 
     12 CA        459.8850  -20.5940  113.2090 C.3       4 GLP5        0.0000 
     13 CA        462.1695  -17.5560  114.5640 C.3       2 GLC5        0.0000 
     14 CA        463.4760  -16.8240  113.4610 C.3       4 GLP5        0.0000 
     15 CA        460.6640  -16.3055  116.4325 C.3       2 GLC5        0.0000 
     16 CA        460.4650  -14.3230  117.1980 C.3       4 GLP5        0.0000 
     17 CA        464.1730  -20.1210  124.1190 C.3       2 GLC5        0.0000 
     18 CA        462.1890  -19.3500  123.6010 C.3       6 GLL5        0.0000 
     19 CA        466.1570  -20.8920  124.6370 C.3       4 GLP5        0.0000 
     20 CA        459.4440  -13.5730  123.4420 C.3       2 GLC5        0.0000 
     21 CA        460.1330  -15.1800  123.0420 C.3       6 GLL5        0.0000 
     22 CA        458.7550  -11.9660  123.8420 C.3       4 GLP5        0.0000 
     23 CA        460.8355  -14.9365  121.1695 C.3       2 GLC5        0.0000 
     24 CA        461.5380  -14.6930  119.2970 C.3       4 GLP5        0.0000 
     25 CA        462.1765  -15.3725  123.4040 C.3       2 GLC5        0.0000 
     26 CA        464.2200  -15.5650  123.7660 C.3       4 GLP5        0.0000 
     27 CA        459.5275  -14.8380  124.8095 C.3       2 GLC5        0.0000 
     28 CA        458.9220  -14.4960  126.5770 C.3       4 GLP5        0.0000 
     29 CA        461.9375  -17.8665  127.4885 C.3       2 GLC5        0.0000 
     30 CA        462.5090  -18.7650  126.0760 C.3       6 GLL5        0.0000 
     31 CA        461.3660  -16.9680  128.9010 C.3       4 GLP5        0.0000 
     32 CA        457.2340  -19.8310  119.3460 C.3       2 GLC5        0.0000 
     33 CA        458.5310  -21.5490  118.9820 C.3       6 GLL5        0.0000 
     34 CA        455.9370  -18.1130  119.7100 C.3       4 GLP5        0.0000 
     35 CA        459.3470  -21.8525  117.0675 C.3       2 GLC5        0.0000 
     36 CA        460.1630  -22.1560  115.1530 C.3       4 GLP5        0.0000 
     37 CA        460.3880  -22.4450  119.1210 C.3       2 GLC5        0.0000 
     38 CA        462.2450  -23.3410  119.2600 C.3       4 GLP5        0.0000 
     39 CA        456.4115  -23.2615  120.7015 C.3       2 GLC5        0.0000 
     40 CA        457.7030  -22.5130  119.8500 C.3       6 GLL5        0.0000 
     41 CA        455.1200  -24.0100  121.5530 C.3       4 GLP5        0.0000 
     42 CA        461.0360  -24.0325  124.0465 C.3       2 GLC5        0.0000 
     43 CA        459.8760  -23.7900  122.5830 C.3       6 GLL5        0.0000 
     44 CA        462.1960  -24.2750  125.5100 C.3       4 GLP5        0.0000 
     45 CA        459.1575  -23.0960  124.5390 C.3       2 GLC5        0.0000 
     46 CA        458.4390  -22.4020  126.4950 C.3       4 GLP5        0.0000 
     47 CA        457.1355  -23.0115  122.1740 C.3       2 GLC5        0.0000 
     48 CA        459.0460  -23.0080  121.8470 C.3       6 GLL5        0.0000 
     49 CA        455.2250  -23.0150  122.5010 C.3       4 GLP5        0.0000 
     50 N         458.3590  -24.6475  117.4560 N.am      1 SEC2        0.0000 
     51 N         458.6220  -25.0670  118.9470 N.am      5 SEL2        0.0000 
     52 N         458.0960  -24.2280  115.9650 N.am      3 SEP2        0.0000 
     53 CA        463.8725  -21.6210  126.9772 C.3       2 GLC5        0.0000 
     54 CA        464.2150  -19.6500  127.5680 C.3       6 GLL5        0.0000 
     55 CA        463.9270  -23.5550  126.9770 C.3       4 GLP5        0.0000 
     56 CA        462.5360  -19.0030  128.2572 C.3       2 GLC5        0.0000 
     57 CA        463.4210  -19.7240  126.3870 C.3       6 GLL5        0.0000 
     58 CA        461.2540  -18.3190  129.5370 C.3       4 GLP5        0.0000 
     59 CA        461.0370  -19.6343  126.1542 C.3       2 GLC5        0.0000 
     60 CA        459.1090  -20.0240  126.0770 C.3       4 GLP5        0.0000 
     61 CA        460.4265  -20.6575  116.3925 C.3       2 GLC5        0.0000 
     62 CA        460.2230  -19.5700  117.9670 C.3       6 GLL5        0.0000 
     63 CA        461.2838  -21.5562  118.9485 C.3       2 GLC5        0.0000 
     64 CA        462.8715  -20.8607  120.4118 C.3       2 GLC5        0.0000 
     65 CA        461.6120  -19.5260  119.9820 C.3       6 GLL5        0.0000 
     66 CA        463.6650  -22.6110  121.1850 C.3       4 GLP5        0.0000 
     67 CA        459.4108  -18.1492  121.9850 C.3       2 GLC5        0.0000 
     68 CA        461.7070  -18.9710  122.3230 C.3       6 GLL5        0.0000 
     69 CA        462.8065  -20.8858  122.0735 C.3       2 GLC5        0.0000 
     70 CA        463.1912  -17.7492  122.1045 C.3       2 GLC5        0.0000 
     71 CA        458.9842  -16.9853  122.4402 C.3       2 GLC5        0.0000 
     72 CA        460.9520  -16.8410  123.2690 C.3       6 GLL5        0.0000 
     73 CA        463.0903  -17.0990  122.9333 C.3       2 GLC5        0.0000 
     74 CA        463.5560  -18.0390  123.0643 C.3       2 GLC5        0.0000 
     75 CA        462.0610  -18.4860  124.7280 C.3       6 GLL5        0.0000 
     76 CA        460.5387  -19.3146  125.0968 C.3       2 GLC5        0.0000 
     77 CA        464.6602  -20.0590  125.5819 C.3       2 GLC5        0.0000 
     78 CA        464.4237  -18.0580  126.1084 C.3       2 GLC5        0.0000 
     79 CA        465.6840  -16.8900  125.6900 C.3       4 GLP5        0.0000 
     80 CA        456.9550  -22.7600  117.8090 C.3       2 GLC5        0.0000 
     81 CA        455.7930  -23.4890  116.2020 C.3       4 GLP5        0.0000 
     82 CA        460.8530  -23.3700  120.7375 C.3       2 GLC5        0.0000 
@<TRIPOS>BOND
@<TRIPOS>SUBSTRUCTURE
     1 SEC2       50 GROUP        1 X    SEC  0     ROOT SEC X 2
     2 GLC5        1 GROUP        1 X    GLC  0     **** GLC X 6
     3 SEP2       52 GROUP        1 Y    SEP  0     ROOT SEP Y 9
     4 GLP5        3 GROUP        1 Y    GLP  0     **** GLP Y 13
     5 SEL2       51 GROUP        1 Z    SEL  0     ROOT SEL Z 16
     6 GLL5        2 GROUP        1 Z    GLL  0     **** GLL Z 20
@<TRIPOS>SET

