#    Name: 4lsn_1YR_1_ligand
#    Modification time : Tue Apr  8 00:09:17 2014

@<TRIPOS>MOLECULE
4lsn_1YR_1_ligand
   45    47     1     0     0
SMALL
NO_CHARGES


@<TRIPOS>ATOM
      1 C15       463.4210  -19.7240  126.3870 C.2       1 1YR601      0.0000 
      2 C17       464.2150  -19.6500  127.5680 C.1       1 1YR601      0.0000 
      3 C00       460.2230  -19.5700  117.9670 C.ar      1 1YR601      0.0000 
      4 C01       461.1570  -18.7480  117.2970 C.ar      1 1YR601      0.0000 
      5 C02       462.3200  -18.3080  117.9600 C.ar      1 1YR601      0.0000 
      6 C03       462.5440  -18.6950  119.2950 C.ar      1 1YR601      0.0000 
      7 C04       461.6120  -19.5260  119.9820 C.ar      1 1YR601      0.0000 
      8 C05       460.4220  -19.9730  119.3070 C.ar      1 1YR601      0.0000 
      9 CL1       460.8630  -18.2880  115.6670 Cl        1 1YR601      0.0000 
     10 O0A       461.8740  -19.8720  121.2910 O.3       1 1YR601      0.0000 
     11 O0B       459.4050  -20.7760  119.7960 O.3       1 1YR601      0.0000 
     12 C0C       461.7070  -18.9710  122.3230 C.ar      1 1YR601      0.0000 
     13 C0D       461.0840  -17.7060  122.1670 C.ar      1 1YR601      0.0000 
     14 C0E       460.9520  -16.8410  123.2690 C.ar      1 1YR601      0.0000 
     15 C0F       461.4350  -17.2350  124.5360 C.ar      1 1YR601      0.0000 
     16 C0G       462.0610  -18.4860  124.7280 C.ar      1 1YR601      0.0000 
     17 C0H       462.1890  -19.3500  123.6010 C.ar      1 1YR601      0.0000 
     18 BR1       460.1330  -15.1800  123.0420 Br        1 1YR601      0.0000 
     19 C0M       462.5090  -18.7650  126.0760 C.2       1 1YR601      0.0000 
     20 C0O       458.5310  -21.5490  118.9820 C.3       1 1YR601      0.0000 
     21 C0P       457.7030  -22.5130  119.8500 C.3       1 1YR601      0.0000 
     22 N0S       458.5980  -23.4400  120.5690 N.am      1 1YR601      0.0000 
     23 C0V       458.9840  -24.6500  120.0470 C.2       1 1YR601      0.0000 
     24 N0W       459.8130  -25.3930  120.8230 N.am      1 1YR601      0.0000 
     25 C0X       460.3030  -25.0870  122.0480 C.2       1 1YR601      0.0000 
     26 C0Y       459.8760  -23.7900  122.5830 C.2       1 1YR601      0.0000 
     27 C0Z       459.0460  -23.0080  121.8470 C.2       1 1YR601      0.0000 
     28 O10       458.6220  -25.0670  118.9470 O.2       1 1YR601      0.0000 
     29 O12       461.0460  -25.8550  122.6430 O.2       1 1YR601      0.0000 
     30 N19       464.8450  -19.5910  128.5220 N.1       1 1YR601      0.0000 
     31 H         463.5641  -20.5453  125.7640 H         1 1YR601      0.0000 
     32 H         459.3770  -19.8830  117.4670 H         1 1YR601      0.0000 
     33 H         462.9925  -17.7151  117.4770 H         1 1YR601      0.0000 
     34 H         463.3872  -18.3785  119.7864 H         1 1YR601      0.0000 
     35 H         460.7315  -17.4267  121.2489 H         1 1YR601      0.0000 
     36 H         461.3283  -16.5957  125.3379 H         1 1YR601      0.0000 
     37 H         462.6404  -20.2652  123.7214 H         1 1YR601      0.0000 
     38 H         462.0831  -18.1721  126.8334 H         1 1YR601      0.0000 
     39 H         459.0801  -22.1570  118.2503 H         1 1YR601      0.0000 
     40 H         457.8233  -20.9201  118.4251 H         1 1YR601      0.0000 
     41 H         457.0224  -23.0604  119.1977 H         1 1YR601      0.0000 
     42 H         457.1150  -21.9209  120.5515 H         1 1YR601      0.0000 
     43 H         460.1231  -26.3574  120.4072 H         1 1YR601      0.0000 
     44 H         460.2254  -23.5238  123.5009 H         1 1YR601      0.0000 
     45 H         458.7226  -22.0911  122.1915 H         1 1YR601      0.0000 
@<TRIPOS>BOND
     1    2    1 1    
     2   19    1 2    
     3   31    1 1    
     4   30    2 3    
     5    4    3 ar   
     6    8    3 ar   
     7   32    3 1    
     8    5    4 ar   
     9    9    4 1    
    10    6    5 ar   
    11   33    5 1    
    12    7    6 ar   
    13   34    6 1    
    14    8    7 ar   
    15   10    7 1    
    16   11    8 1    
    17   12   10 1    
    18   20   11 1    
    19   13   12 ar   
    20   17   12 ar   
    21   14   13 ar   
    22   35   13 1    
    23   15   14 ar   
    24   18   14 1    
    25   16   15 ar   
    26   36   15 1    
    27   17   16 ar   
    28   19   16 1    
    29   37   17 1    
    30   38   19 1    
    31   21   20 1    
    32   39   20 1    
    33   40   20 1    
    34   22   21 1    
    35   41   21 1    
    36   42   21 1    
    37   23   22 am   
    38   27   22 1    
    39   24   23 am   
    40   28   23 2    
    41   25   24 am   
    42   43   24 1    
    43   26   25 1    
    44   29   25 2    
    45   27   26 2    
    46   44   26 1    
    47   45   27 1    
@<TRIPOS>SUBSTRUCTURE
     1 1YR601      1 GROUP   
@<TRIPOS>SET

