#    Name: 1y7t_NDP_1_INTS_M
#    Modification time : Tue Mar 25 10:52:01 2014

@<TRIPOS>MOLECULE
1y7t_NDP_1_INTS_M
   72     0     9     0     0
SMALL
NO_CHARGES


@<TRIPOS>ATOM
      1 N          43.9920   60.2725   28.3695 N.am      2 SEC2        0.0000 
      2 N          44.6390   60.1730   27.1330 N.am      8 SEL2        0.0000 
      3 N          43.3450   60.3720   29.6060 N.am      5 SEP2        0.0000 
      4 N          50.8770   57.4595   23.4840 N.am      2 SEC2        0.0000 
      5 N          49.5520   58.0710   23.2780 N.am      8 SEL2        0.0000 
      6 N          52.2020   56.8480   23.6900 N.am      5 SEP2        0.0000 
      7 CA         50.3800   57.5300   25.4520 C.3       3 GLC5        0.0000 
      8 CA         48.5550   56.3550   25.6420 C.3       9 GLL5        0.0000 
      9 CA         52.2050   58.7050   25.2620 C.3       6 GLP5        0.0000 
     10 CA         45.4180   55.3240   29.4295 C.3       3 GLC5        0.0000 
     11 CA         45.6690   53.4360   28.3180 C.3       9 GLL5        0.0000 
     12 CA         45.1670   57.2120   30.5410 C.3       6 GLP5        0.0000 
     13 O          44.4595   52.8410   30.2705 O.2       1 ALC1        0.0000 
     14 O          45.6060   52.3630   29.1180 O.2       7 ALL1        0.0000 
     15 O          43.3130   53.3190   31.4230 O.2       4 ALP1        0.0000 
     16 O          44.4835   51.5735   29.4535 O.2       1 ALC1        0.0000 
     17 O          43.3610   50.7840   29.7890 O.2       4 ALP1        0.0000 
     18 CA         44.8655   56.2110   28.8710 C.3       3 GLC5        0.0000 
     19 CA         44.5640   55.2100   27.2010 C.3       9 GLL5        0.0000 
     20 CA         42.9560   54.5445   26.6625 C.3       3 GLC5        0.0000 
     21 CA         41.3480   53.8790   26.1240 C.3       6 GLP5        0.0000 
     22 CA         46.2080   56.6540   28.2585 C.3       3 GLC5        0.0000 
     23 CA         46.8000   55.0360   26.9400 C.3       9 GLL5        0.0000 
     24 CA         45.6160   58.2720   29.5770 C.3       6 GLP5        0.0000 
     25 N          41.8690   61.6425   26.2890 N.am      2 SEC2        0.0000 
     26 N          41.9870   61.3380   24.8390 N.am      8 SEL2        0.0000 
     27 N          41.7510   61.9470   27.7390 N.am      5 SEP2        0.0000 
     28 N          41.1315   59.9390   24.8360 N.am      2 SEC2        0.0000 
     29 N          40.2760   58.5400   24.8330 N.am      5 SEP2        0.0000 
     30 CA         46.7290   65.2585   25.3460 C.3       3 GLC5        0.0000 
     31 CA         45.5530   64.3700   24.1080 C.3       9 GLL5        0.0000 
     32 CA         47.9050   66.1470   26.5840 C.3       6 GLP5        0.0000 
     33 O          44.5085   66.9225   24.7965 O.2       1 ALC1        0.0000 
     34 O          43.8340   65.9720   24.0010 O.2       7 ALL1        0.0000 
     35 O          45.1830   67.8730   25.5920 O.2       4 ALP1        0.0000 
     36 CA         45.7480   67.5325   20.7465 C.3       3 GLC5        0.0000 
     37 CA         45.6490   65.9520   22.2810 C.3       9 GLL5        0.0000 
     38 CA         45.8470   69.1130   19.2120 C.3       6 GLP5        0.0000 
     39 O          45.4840   68.1200   22.8885 O.2       1 ALC1        0.0000 
     40 O          45.0630   67.1800   21.8850 O.2       7 ALL1        0.0000 
     41 O          45.9050   69.0600   23.8920 O.2       4 ALP1        0.0000 
     42 CA         47.3750   66.1415   24.9110 C.3       3 GLC5        0.0000 
     43 CA         46.8450   66.1360   23.2380 C.3       9 GLL5        0.0000 
     44 CA         48.5780   64.9265   23.9320 C.3       3 GLC5        0.0000 
     45 CA         50.3110   63.7170   24.6260 C.3       6 GLP5        0.0000 
     46 CA         48.4620   66.6335   24.9415 C.3       3 GLC5        0.0000 
     47 CA         49.0190   67.1200   23.2990 C.3       9 GLL5        0.0000 
     48 CA         48.4230   69.0865   24.1860 C.3       3 GLC5        0.0000 
     49 CA         47.8270   71.0530   25.0730 C.3       6 GLP5        0.0000 
     50 CA         52.5670   66.1985   20.3780 C.3       3 GLC5        0.0000 
     51 CA         50.9940   66.6340   21.6340 C.3       9 GLL5        0.0000 
     52 CA         54.1400   65.7630   19.1220 C.3       6 GLP5        0.0000 
     53 CA         50.6810   63.7065   21.3035 C.3       3 GLC5        0.0000 
     54 CA         49.9080   65.6660   21.0180 C.3       9 GLL5        0.0000 
     55 CA         51.4540   61.7470   21.5890 C.3       6 GLP5        0.0000 
     56 CA         48.1377   60.2993   26.9417 C.3       3 GLC5        0.0000 
     57 CA         47.1040   59.6700   25.4910 C.3       9 GLL5        0.0000 
     58 CA         48.5710   61.4150   28.4700 C.3       6 GLP5        0.0000 
     59 CA         50.2355   58.5165   24.9413 C.3       3 GLC5        0.0000 
     60 CA         48.3050   58.6970   25.3360 C.3       9 GLL5        0.0000 
     61 CA         46.3220   54.0430   29.9258 C.3       3 GLC5        0.0000 
     62 CA         46.8950   53.9040   27.7610 C.3       9 GLL5        0.0000 
     63 CA         46.3620   54.4160   31.8120 C.3       6 GLP5        0.0000 
     64 CA         44.0405   63.8538   25.4618 C.3       3 GLC5        0.0000 
     65 CA         45.4030   62.8650   23.7390 C.3       9 GLL5        0.0000 
     66 CA         42.6030   64.0900   27.0000 C.3       6 GLP5        0.0000 
     67 CA         49.1770   68.3925   21.6970 C.3       3 GLC5        0.0000 
     68 CA         48.7050   69.5440   20.2860 C.3       6 GLP5        0.0000 
     69 CA         49.9800   65.4790   23.8670 C.3       3 GLC5        0.0000 
     70 CA         50.2790   67.3620   22.9170 C.3       9 GLL5        0.0000 
     71 CA         49.1283   67.6817   20.8418 C.3       3 GLC5        0.0000 
     72 CA         49.9312   64.7682   23.0117 C.3       3 GLC5        0.0000 
@<TRIPOS>BOND
@<TRIPOS>SUBSTRUCTURE
     1 ALC1       13 GROUP        1 X    ALC  0     ROOT ALC X 1
     2 SEC2        1 GROUP        1 X    SEC  0     **** SEC X 2
     3 GLC5        7 GROUP        1 X    GLC  0     **** GLC X 6
     4 ALP1       15 GROUP        1 Y    ALP  0     ROOT ALP Y 8
     5 SEP2        3 GROUP        1 Y    SEP  0     **** SEP Y 9
     6 GLP5        9 GROUP        1 Y    GLP  0     **** GLP Y 13
     7 ALL1       14 GROUP        1 Z    ALL  0     ROOT ALL Z 15
     8 SEL2        2 GROUP        1 Z    SEL  0     **** SEL Z 16
     9 GLL5        8 GROUP        1 Z    GLL  0     **** GLL Z 20
@<TRIPOS>SET

