#    Name: 1y7t_NDP_1_ligand
#    Modification time : Tue Mar 25 10:52:01 2014

@<TRIPOS>MOLECULE
1y7t_NDP_1_ligand
   74    78     1     0     0
SMALL
NO_CHARGES


@<TRIPOS>ATOM
      1 PA         44.4920   59.3090   25.9370 P.3       1 NDP1334     0.0000 
      2 O1A        43.5270   58.2280   26.0990 O.co2     1 NDP1334     0.0000 
      3 O2A        44.6390   60.1730   27.1330 O.co2     1 NDP1334     0.0000 
      4 O5B        45.8860   58.7540   25.5850 O.3       1 NDP1334     0.0000 
      5 C5B        47.1040   59.6700   25.4910 C.3       1 NDP1334     0.0000 
      6 C4B        48.3050   58.6970   25.3360 C.3       1 NDP1334     0.0000 
      7 O4B        48.3720   57.5410   26.3670 O.3       1 NDP1334     0.0000 
      8 C3B        48.2270   57.9590   23.9050 C.3       1 NDP1334     0.0000 
      9 O3B        49.5520   58.0710   23.2780 O.3       1 NDP1334     0.0000 
     10 C2B        47.8330   56.5230   24.3230 C.3       1 NDP1334     0.0000 
     11 O2B        48.3100   55.5210   23.3420 O.3       1 NDP1334     0.0000 
     12 C1B        48.5550   56.3550   25.6420 C.3       1 NDP1334     0.0000 
     13 N9A        48.1200   55.2710   26.5330 N.pl3     1 NDP1334     0.0000 
     14 C8A        48.9420   54.3130   27.1010 C.2       1 NDP1334     0.0000 
     15 N7A        48.2160   53.5090   27.8240 N.2       1 NDP1334     0.0000 
     16 C5A        46.8950   53.9040   27.7610 C.ar      1 NDP1334     0.0000 
     17 C6A        45.6690   53.4360   28.3180 C.ar      1 NDP1334     0.0000 
     18 N6A        45.6060   52.3630   29.1180 N.pl3     1 NDP1334     0.0000 
     19 N1A        44.4980   54.1150   28.0200 N.ar      1 NDP1334     0.0000 
     20 C2A        44.5640   55.2100   27.2010 C.ar      1 NDP1334     0.0000 
     21 N3A        45.6780   55.7380   26.6150 N.ar      1 NDP1334     0.0000 
     22 C4A        46.8000   55.0360   26.9400 C.ar      1 NDP1334     0.0000 
     23 O3         44.1230   60.1530   24.6740 O.3       1 NDP1334     0.0000 
     24 PN         43.2420   61.2700   23.9800 P.3       1 NDP1334     0.0000 
     25 O1N        41.9870   61.3380   24.8390 O.co2     1 NDP1334     0.0000 
     26 O2N        43.1510   61.0800   22.6640 O.co2     1 NDP1334     0.0000 
     27 O5D        44.1650   62.5920   24.3960 O.3       1 NDP1334     0.0000 
     28 C5D        45.4030   62.8650   23.7390 C.3       1 NDP1334     0.0000 
     29 C4D        45.5530   64.3700   24.1080 C.3       1 NDP1334     0.0000 
     30 O4D        46.9050   64.8360   23.9910 O.3       1 NDP1334     0.0000 
     31 C3D        44.6420   65.1770   23.1310 C.3       1 NDP1334     0.0000 
     32 O3D        43.8340   65.9720   24.0010 O.3       1 NDP1334     0.0000 
     33 C2D        45.6490   65.9520   22.2810 C.3       1 NDP1334     0.0000 
     34 O2D        45.0630   67.1800   21.8850 O.3       1 NDP1334     0.0000 
     35 C1D        46.8450   66.1360   23.2380 C.3       1 NDP1334     0.0000 
     36 N1N        48.1600   66.2120   22.6300 N.pl3     1 NDP1334     0.0000 
     37 C2N        49.0190   67.1200   23.2990 C.2       1 NDP1334     0.0000 
     38 C3N        50.2790   67.3620   22.9170 C.2       1 NDP1334     0.0000 
     39 C7N        51.2060   68.3340   23.6380 C.2       1 NDP1334     0.0000 
     40 O7N        52.3300   68.5490   23.2590 O.2       1 NDP1334     0.0000 
     41 N7N        50.6030   68.8760   24.7720 N.am      1 NDP1334     0.0000 
     42 C4N        50.9940   66.6340   21.6340 C.3       1 NDP1334     0.0000 
     43 C5N        49.9080   65.6660   21.0180 C.2       1 NDP1334     0.0000 
     44 C6N        48.6520   65.4890   21.4690 C.2       1 NDP1334     0.0000 
     45 P2B        47.2600   54.8240   22.4160 P.3       1 NDP1334     0.0000 
     46 O1X        47.7900   53.4550   21.9940 O.co2     1 NDP1334     0.0000 
     47 O2X        46.0390   54.7750   23.1970 O.co2     1 NDP1334     0.0000 
     48 O3X        47.1890   55.6680   21.1340 O.co2     1 NDP1334     0.0000 
     49 H          47.2175   60.2211   26.3888 H         1 NDP1334     0.0000 
     50 H          47.0375   60.2796   24.6269 H         1 NDP1334     0.0000 
     51 H          49.2294   59.2291   25.3400 H         1 NDP1334     0.0000 
     52 H          47.4525   58.4095   23.3851 H         1 NDP1334     0.0000 
     53 H          46.7995   56.4898   24.4824 H         1 NDP1334     0.0000 
     54 H          49.6264   56.2401   25.4318 H         1 NDP1334     0.0000 
     55 H          49.9025   54.2852   26.9546 H         1 NDP1334     0.0000 
     56 H          46.4801   51.9389   29.3550 H         1 NDP1334     0.0000 
     57 H          44.6906   52.0824   29.4065 H         1 NDP1334     0.0000 
     58 H          43.6232   55.7144   26.9952 H         1 NDP1334     0.0000 
     59 H          45.3375   62.7970   22.6904 H         1 NDP1334     0.0000 
     60 H          46.2173   62.3485   24.1618 H         1 NDP1334     0.0000 
     61 H          45.1532   64.5092   25.0950 H         1 NDP1334     0.0000 
     62 H          44.1226   64.4839   22.5582 H         1 NDP1334     0.0000 
     63 H          45.9489   65.3291   21.4844 H         1 NDP1334     0.0000 
     64 H          46.6548   66.9010   23.9234 H         1 NDP1334     0.0000 
     65 H          48.6128   67.6158   24.1398 H         1 NDP1334     0.0000 
     66 H          51.1489   69.5366   25.2875 H         1 NDP1334     0.0000 
     67 H          49.6765   68.5576   24.9724 H         1 NDP1334     0.0000 
     68 H          51.8096   66.0776   21.9962 H         1 NDP1334     0.0000 
     69 H          51.2445   67.3836   20.9402 H         1 NDP1334     0.0000 
     70 H          50.2874   65.1500   20.1789 H         1 NDP1334     0.0000 
     71 H          47.9895   64.8375   21.0136 H         1 NDP1334     0.0000 
     72 H          49.4919   57.5195   22.4460 H         1 NDP1334     0.0000 
     73 H          44.4778   66.5732   24.4744 H         1 NDP1334     0.0000 
     74 H          45.3777   67.8466   22.5607 H         1 NDP1334     0.0000 
@<TRIPOS>BOND
     1    2    1 ar   
     2    3    1 ar   
     3    4    1 1    
     4   23    1 1    
     5    5    4 1    
     6    6    5 1    
     7   49    5 1    
     8   50    5 1    
     9    7    6 1    
    10    8    6 1    
    11   51    6 1    
    12   12    7 1    
    13    9    8 1    
    14   10    8 1    
    15   52    8 1    
    16   72    9 1    
    17   11   10 1    
    18   12   10 1    
    19   53   10 1    
    20   45   11 1    
    21   13   12 1    
    22   54   12 1    
    23   14   13 1    
    24   22   13 1    
    25   15   14 2    
    26   55   14 1    
    27   16   15 1    
    28   17   16 ar   
    29   22   16 ar   
    30   18   17 1    
    31   19   17 ar   
    32   56   18 1    
    33   57   18 1    
    34   20   19 ar   
    35   21   20 ar   
    36   58   20 1    
    37   22   21 ar   
    38   24   23 1    
    39   25   24 ar   
    40   26   24 ar   
    41   27   24 1    
    42   28   27 1    
    43   29   28 1    
    44   59   28 1    
    45   60   28 1    
    46   30   29 1    
    47   31   29 1    
    48   61   29 1    
    49   35   30 1    
    50   32   31 1    
    51   33   31 1    
    52   62   31 1    
    53   73   32 1    
    54   34   33 1    
    55   35   33 1    
    56   63   33 1    
    57   74   34 1    
    58   36   35 1    
    59   64   35 1    
    60   37   36 1    
    61   44   36 1    
    62   38   37 2    
    63   65   37 1    
    64   39   38 1    
    65   42   38 1    
    66   40   39 2    
    67   41   39 am   
    68   66   41 1    
    69   67   41 1    
    70   43   42 1    
    71   68   42 1    
    72   69   42 1    
    73   44   43 2    
    74   70   43 1    
    75   71   44 1    
    76   46   45 ar   
    77   47   45 ar   
    78   48   45 ar   
@<TRIPOS>SUBSTRUCTURE
     1 NDP1334     1 GROUP   
@<TRIPOS>SET

