#    Name: 4lmp_6MD_1_INTS_M
#    Modification time : Tue Mar 25 11:17:06 2014

@<TRIPOS>MOLECULE
4lmp_6MD_1_INTS_M
   54     0     9     0     0
SMALL
NO_CHARGES


@<TRIPOS>ATOM
      1 O          41.9495   44.7435  119.0115 O.2       1 ALC1        0.0000 
      2 O          43.2470   44.3470  118.2640 O.2       7 ALL1        0.0000 
      3 O          40.6520   45.1400  119.7590 O.2       4 ALP1        0.0000 
      4 CA         43.2115   41.6065  116.2825 C.3       3 GLC5        0.0000 
      5 CA         43.6500   43.3280  117.3830 C.3       9 GLL5        0.0000 
      6 CA         42.7730   39.8850  115.1820 C.3       6 GLP5        0.0000 
      7 CA         43.4745   45.3265  116.6800 C.3       3 GLC5        0.0000 
      8 CA         43.2990   47.3250  115.9770 C.3       6 GLP5        0.0000 
      9 CA         45.4975   43.8475  115.2285 C.3       3 GLC5        0.0000 
     10 CA         45.1560   43.3520  117.1830 C.3       9 GLL5        0.0000 
     11 CA         45.8390   44.3430  113.2740 C.3       6 GLP5        0.0000 
     12 N          45.9280   40.1260  118.2840 N.am      2 SEC2        0.0000 
     13 N          46.2560   41.3380  117.4840 N.am      8 SEL2        0.0000 
     14 N          45.6000   38.9140  119.0840 N.am      5 SEP2        0.0000 
     15 O          47.8820   41.7570  117.0400 O.2       1 ALC1        0.0000 
     16 O          46.2560   41.3380  117.4840 O.2       7 ALL1        0.0000 
     17 O          49.5080   42.1760  116.5960 O.2       4 ALP1        0.0000 
     18 O          47.0235   41.5260  116.3965 O.2       1 ALC1        0.0000 
     19 O          47.7910   41.7140  115.3090 O.2       4 ALP1        0.0000 
     20 O          48.8675   42.3690  117.6850 O.2       1 ALC1        0.0000 
     21 O          48.2270   42.5620  118.7740 O.2       7 ALL1        0.0000 
     22 CA         46.4860   44.3595  115.3860 C.3       3 GLC5        0.0000 
     23 CA         47.1330   44.3760  117.4980 C.3       9 GLL5        0.0000 
     24 CA         46.4125   46.0350  116.4350 C.3       3 GLC5        0.0000 
     25 CA         45.6920   47.6940  115.3720 C.3       6 GLP5        0.0000 
     26 CA         51.7350   46.8095  117.1110 C.3       3 GLC5        0.0000 
     27 CA         50.2300   48.0100  116.4960 C.3       9 GLL5        0.0000 
     28 CA         53.2400   45.6090  117.7260 C.3       6 GLP5        0.0000 
     29 CA         51.6120   47.1605  115.0860 C.3       3 GLC5        0.0000 
     30 CA         52.9940   46.3110  113.6760 C.3       6 GLP5        0.0000 
     31 N          51.4545   47.5440  114.2480 N.am      2 SEC2        0.0000 
     32 N          50.4120   47.5310  115.2740 N.am      8 SEL2        0.0000 
     33 N          52.4970   47.5570  113.2220 N.am      5 SEP2        0.0000 
     34 CA         48.7215   47.5685  113.6140 C.3       3 GLC5        0.0000 
     35 CA         49.8070   46.4410  114.8360 C.3       9 GLL5        0.0000 
     36 CA         47.6360   48.6960  112.3920 C.3       6 GLP5        0.0000 
     37 CA         50.2865   44.7975  114.4625 C.3       3 GLC5        0.0000 
     38 CA         50.7660   43.1540  114.0890 C.3       6 GLP5        0.0000 
     39 CA         51.4005   46.3760  114.2560 C.3       3 GLC5        0.0000 
     40 CA         47.7495   47.0675  115.1040 C.3       3 GLC5        0.0000 
     41 CA         52.5610   47.5130  116.8960 C.3       3 GLC5        0.0000 
     42 CA         51.8820   49.4170  116.0660 C.3       9 GLL5        0.0000 
     43 CA         52.4380   47.8640  114.8710 C.3       3 GLC5        0.0000 
     44 CA         51.5285   50.2225  114.2190 C.3       3 GLC5        0.0000 
     45 CA         51.1750   51.0280  112.3720 C.3       6 GLP5        0.0000 
     46 CA         50.5490   50.7575  116.5210 C.3       3 GLC5        0.0000 
     47 CA         49.2160   52.0980  116.9760 C.3       6 GLP5        0.0000 
     48 CA         50.3392   45.4422  118.0993 C.3       3 GLC5        0.0000 
     49 CA         49.3120   47.3020  117.3770 C.3       9 GLL5        0.0000 
     50 CA         51.6720   44.1780  119.0960 C.3       6 GLP5        0.0000 
     51 CA         47.3492   47.2003  116.2372 C.3       3 GLC5        0.0000 
     52 CA         48.7010   46.1110  116.8280 C.3       9 GLL5        0.0000 
     53 CA         48.6985   49.1720  116.3028 C.3       3 GLC5        0.0000 
     54 CA         47.6260   50.6880  115.6690 C.3       6 GLP5        0.0000 
@<TRIPOS>BOND
@<TRIPOS>SUBSTRUCTURE
     1 ALC1        1 GROUP        1 X    ALC  0     ROOT ALC X 1
     2 SEC2       12 GROUP        1 X    SEC  0     **** SEC X 2
     3 GLC5        4 GROUP        1 X    GLC  0     **** GLC X 6
     4 ALP1        3 GROUP        1 Y    ALP  0     ROOT ALP Y 8
     5 SEP2       14 GROUP        1 Y    SEP  0     **** SEP Y 9
     6 GLP5        6 GROUP        1 Y    GLP  0     **** GLP Y 13
     7 ALL1        2 GROUP        1 Z    ALL  0     ROOT ALL Z 15
     8 SEL2       13 GROUP        1 Z    SEL  0     **** SEL Z 16
     9 GLL5        5 GROUP        1 Z    GLL  0     **** GLL Z 20
@<TRIPOS>SET

