#    Name: 4lmp_6MD_1_ligand
#    Modification time : Tue Mar 25 11:17:06 2014

@<TRIPOS>MOLECULE
4lmp_6MD_1_ligand
   35    37     1     0     0
SMALL
NO_CHARGES


@<TRIPOS>ATOM
      1 O5'        43.2470   44.3470  118.2640 O.3       1 6MD401      0.0000 
      2 C5'        43.6500   43.3280  117.3830 C.3       1 6MD401      0.0000 
      3 C4'        45.1560   43.3520  117.1830 C.3       1 6MD401      0.0000 
      4 O4'        45.7570   44.6280  117.2590 O.3       1 6MD401      0.0000 
      5 C3'        45.8840   42.4930  118.1710 C.3       1 6MD401      0.0000 
      6 O3'        46.2560   41.3380  117.4840 O.3       1 6MD401      0.0000 
      7 C2'        47.0750   43.3350  118.6000 C.3       1 6MD401      0.0000 
      8 O2'        48.2270   42.5620  118.7740 O.3       1 6MD401      0.0000 
      9 C1'        47.1330   44.3760  117.4980 C.3       1 6MD401      0.0000 
     10 N9         47.9190   45.6030  117.7480 N.pl3     1 6MD401      0.0000 
     11 C8         48.0090   46.3820  118.8350 C.2       1 6MD401      0.0000 
     12 N7         48.8550   47.4140  118.6130 N.2       1 6MD401      0.0000 
     13 C5         49.3120   47.3020  117.3770 C.ar      1 6MD401      0.0000 
     14 C6         50.2300   48.0100  116.4960 C.ar      1 6MD401      0.0000 
     15 N6         50.8780   49.1050  116.8740 N.pl3     1 6MD401      0.0000 
     16 N1         50.4120   47.5310  115.2740 N.ar      1 6MD401      0.0000 
     17 C2         49.8070   46.4410  114.8360 C.ar      1 6MD401      0.0000 
     18 N3         48.9640   45.7450  115.5820 N.ar      1 6MD401      0.0000 
     19 C4         48.7010   46.1110  116.8280 C.ar      1 6MD401      0.0000 
     20 CZ         51.8820   49.4170  116.0660 C.3       1 6MD401      0.0000 
     21 H          43.1816   43.4308  116.3884 H         1 6MD401      0.0000 
     22 H          43.3812   42.3251  117.7586 H         1 6MD401      0.0000 
     23 H          45.3682   42.9102  116.1819 H         1 6MD401      0.0000 
     24 H          45.2541   42.3269  118.9985 H         1 6MD401      0.0000 
     25 H          46.7577   43.8543  119.5054 H         1 6MD401      0.0000 
     26 H          47.5332   43.8475  116.6062 H         1 6MD401      0.0000 
     27 H          47.5306   46.2307  119.6779 H         1 6MD401      0.0000 
     28 H          50.6331   49.6404  117.6866 H         1 6MD401      0.0000 
     29 H          50.0055   46.1076  113.8406 H         1 6MD401      0.0000 
     30 H          52.3597   50.2417  116.3686 H         1 6MD401      0.0000 
     31 H          52.5618   48.6852  116.0187 H         1 6MD401      0.0000 
     32 H          51.5680   49.5863  115.1318 H         1 6MD401      0.0000 
     33 H          42.2854   44.1544  118.4597 H         1 6MD401      0.0000 
     34 H          46.8507   41.6563  116.7457 H         1 6MD401      0.0000 
     35 H          48.3726   42.1128  117.8925 H         1 6MD401      0.0000 
@<TRIPOS>BOND
     1    2    1 1    
     2   33    1 1    
     3    3    2 1    
     4   21    2 1    
     5   22    2 1    
     6    4    3 1    
     7    5    3 1    
     8   23    3 1    
     9    9    4 1    
    10    6    5 1    
    11    7    5 1    
    12   24    5 1    
    13   34    6 1    
    14    8    7 1    
    15    9    7 1    
    16   25    7 1    
    17   35    8 1    
    18   10    9 1    
    19   26    9 1    
    20   11   10 1    
    21   19   10 1    
    22   12   11 2    
    23   27   11 1    
    24   13   12 1    
    25   14   13 ar   
    26   19   13 ar   
    27   15   14 1    
    28   16   14 ar   
    29   20   15 1    
    30   28   15 1    
    31   17   16 ar   
    32   18   17 ar   
    33   29   17 1    
    34   19   18 ar   
    35   30   20 1    
    36   31   20 1    
    37   32   20 1    
@<TRIPOS>SUBSTRUCTURE
     1 6MD401      1 GROUP   
@<TRIPOS>SET

