#    Name: 3te7_TE7_1_INTS_M
#    Modification time : Mon Mar 24 19:58:44 2014

@<TRIPOS>MOLECULE
3te7_TE7_1_INTS_M
   25     0     3     0     0
SMALL
NO_CHARGES


@<TRIPOS>ATOM
      1 CA         -2.7795   10.2745   18.4740 C.3       1 GLC5        0.0000 
      2 CA         -1.7370   10.3780   16.9290 C.3       3 GLL5        0.0000 
      3 CA         -3.8220   10.1710   20.0190 C.3       2 GLP5        0.0000 
      4 CA         -1.0145   11.5900   16.2455 C.3       1 GLC5        0.0000 
      5 CA         -0.2920   12.8020   15.5620 C.3       2 GLP5        0.0000 
      6 CA         -3.0460   -0.5415   14.8680 C.3       1 GLC5        0.0000 
      7 CA         -3.3370    1.4270   15.5160 C.3       3 GLL5        0.0000 
      8 CA         -2.7550   -2.5100   14.2200 C.3       2 GLP5        0.0000 
      9 CA         -7.8400    3.0215   15.4995 C.3       1 GLC5        0.0000 
     10 CA         -7.2970    1.7610   14.1290 C.3       3 GLL5        0.0000 
     11 CA         -8.3830    4.2820   16.8700 C.3       2 GLP5        0.0000 
     12 CA         -2.1695    4.9830   14.5270 C.3       1 GLC5        0.0000 
     13 CA         -3.0190    3.6960   15.9460 C.3       3 GLL5        0.0000 
     14 CA         -1.3200    6.2700   13.1080 C.3       2 GLP5        0.0000 
     15 CA         -1.4968    6.7293   15.2045 C.3       1 GLC5        0.0000 
     16 CA         -1.6100    6.5060   17.3230 C.3       3 GLL5        0.0000 
     17 CA         -1.4013    1.1020   14.8418 C.3       1 GLC5        0.0000 
     18 CA          0.1840    0.2870   13.8390 C.3       2 GLP5        0.0000 
     19 CA         -2.2293    7.1495   14.6170 C.3       1 GLC5        0.0000 
     20 CA         -3.5450    7.6300   15.7560 C.3       3 GLL5        0.0000 
     21 CA         -2.1248    6.1442   14.6487 C.3       1 GLC5        0.0000 
     22 CA         -3.4120    6.2930   15.7910 C.3       3 GLL5        0.0000 
     23 CA         -3.3429    3.8547   13.3445 C.3       1 GLC5        0.0000 
     24 CA         -4.0320    4.1380   15.1070 C.3       3 GLL5        0.0000 
     25 CA         -2.4000    4.4020   11.8580 C.3       2 GLP5        0.0000 
@<TRIPOS>BOND
@<TRIPOS>SUBSTRUCTURE
     1 GLC5        1 GROUP        1 X    GLC  0     ROOT GLC X 6
     2 GLP5        3 GROUP        1 Y    GLP  0     ROOT GLP Y 13
     3 GLL5        2 GROUP        1 Z    GLL  0     ROOT GLL Z 20
@<TRIPOS>SET

