#    Name: 3te7_TE7_1_ligand
#    Modification time : Mon Mar 24 19:58:44 2014

@<TRIPOS>MOLECULE
3te7_TE7_1_ligand
   46    49     1     0     0
SMALL
NO_CHARGES


@<TRIPOS>ATOM
      1 CAA        -1.7370   10.3780   16.9290 C.3       1 TE71        0.0000 
      2 CAB        -8.8610    0.4860   12.8120 C.3       1 TE71        0.0000 
      3 CAC        -8.6790    2.8000   12.5940 C.3       1 TE71        0.0000 
      4 OAD        -5.1190    6.0020   14.3270 O.2       1 TE71        0.0000 
      5 CAE        -1.7370    7.8710   17.2790 C.ar      1 TE71        0.0000 
      6 CAF        -4.3560    1.8160   14.6480 C.ar      1 TE71        0.0000 
      7 CAG        -3.3370    1.4270   15.5160 C.ar      1 TE71        0.0000 
      8 CAH        -1.6100    6.5060   17.3230 C.ar      1 TE71        0.0000 
      9 CAI        -1.4270    3.7160   17.3060 C.2       1 TE71        0.0000 
     10 CAJ        -3.5450    7.6300   15.7560 C.ar      1 TE71        0.0000 
     11 CAK        -6.4570    2.4490   13.0700 C.3       1 TE71        0.0000 
     12 CAL        -7.2970    1.7610   14.1290 C.3       1 TE71        0.0000 
     13 NAM        -1.6390    2.4660   17.0710 N.2       1 TE71        0.0000 
     14 NAN        -5.6650    3.4640   13.6520 N.pl3     1 TE71        0.0000 
     15 OAO        -2.8930    9.7380   16.4430 O.3       1 TE71        0.0000 
     16 CAP        -2.7320    8.4280   16.4960 C.ar      1 TE71        0.0000 
     17 CAQ        -4.7230    3.1380   14.4620 C.ar      1 TE71        0.0000 
     18 CAR        -4.2480    5.4960   15.0140 C.2       1 TE71        0.0000 
     19 CAS        -2.6360    2.4070   16.1730 C.ar      1 TE71        0.0000 
     20 CAT        -3.4120    6.2930   15.7910 C.ar      1 TE71        0.0000 
     21 CAU        -2.4470    5.7440   16.5880 C.ar      1 TE71        0.0000 
     22 CAV        -4.0320    4.1380   15.1070 C.ar      1 TE71        0.0000 
     23 CAW        -3.0190    3.6960   15.9460 C.ar      1 TE71        0.0000 
     24 NAX        -8.6080    1.7020   13.5550 N.4       1 TE71        0.0000 
     25 NAY        -2.2560    4.4530   16.6490 N.pl3     1 TE71        0.0000 
     26 H          -1.1057    8.4749   17.8172 H         1 TE71        0.0000 
     27 H          -4.8655    1.0704   14.1133 H         1 TE71        0.0000 
     28 H          -3.1263    0.4402   15.6520 H         1 TE71        0.0000 
     29 H          -0.8803    6.0767   17.9139 H         1 TE71        0.0000 
     30 H          -0.7130    4.0676   17.9178 H         1 TE71        0.0000 
     31 H          -4.2809    8.0672   15.1542 H         1 TE71        0.0000 
     32 H          -7.1429    2.8502   12.3066 H         1 TE71        0.0000 
     33 H          -5.8413    1.6789   12.5781 H         1 TE71        0.0000 
     34 H          -7.2748    2.3562   15.0236 H         1 TE71        0.0000 
     35 H          -6.8899    0.7823   14.3063 H         1 TE71        0.0000 
     36 H          -5.8887    4.4441   13.3903 H         1 TE71        0.0000 
     37 H          -9.3642    1.8562   14.3009 H         1 TE71        0.0000 
     38 H          -0.9272   10.1393   16.3930 H         1 TE71        0.0000 
     39 H          -1.8241   11.3738   16.9008 H         1 TE71        0.0000 
     40 H          -1.5448   10.1273   17.8778 H         1 TE71        0.0000 
     41 H          -8.1877    0.3476   12.0857 H         1 TE71        0.0000 
     42 H          -8.8281   -0.3222   13.4000 H         1 TE71        0.0000 
     43 H          -9.7620    0.4964   12.3783 H         1 TE71        0.0000 
     44 H          -8.5128    3.6852   13.0285 H         1 TE71        0.0000 
     45 H          -8.0020    2.6997   11.8648 H         1 TE71        0.0000 
     46 H          -9.5763    2.8525   12.1557 H         1 TE71        0.0000 
@<TRIPOS>BOND
     1   15    1 1    
     2   38    1 1    
     3   39    1 1    
     4   40    1 1    
     5   24    2 1    
     6   41    2 1    
     7   42    2 1    
     8   43    2 1    
     9   24    3 1    
    10   44    3 1    
    11   45    3 1    
    12   46    3 1    
    13   18    4 2    
    14    8    5 ar   
    15   16    5 ar   
    16   26    5 1    
    17    7    6 ar   
    18   17    6 ar   
    19   27    6 1    
    20   19    7 ar   
    21   28    7 1    
    22   21    8 ar   
    23   29    8 1    
    24   13    9 2    
    25   25    9 1    
    26   30    9 1    
    27   16   10 ar   
    28   20   10 ar   
    29   31   10 1    
    30   12   11 1    
    31   14   11 1    
    32   32   11 1    
    33   33   11 1    
    34   24   12 1    
    35   34   12 1    
    36   35   12 1    
    37   19   13 1    
    38   17   14 1    
    39   36   14 1    
    40   16   15 1    
    41   22   17 ar   
    42   20   18 1    
    43   22   18 1    
    44   23   19 ar   
    45   21   20 ar   
    46   25   21 1    
    47   23   22 ar   
    48   25   23 1    
    49   37   24 1    
@<TRIPOS>SUBSTRUCTURE
     1 TE71        1 GROUP   
@<TRIPOS>SET

