#    Name: 3f82_353_1_INTS_M
#    Modification time : Tue Mar 25 03:20:15 2014

@<TRIPOS>MOLECULE
3f82_353_1_INTS_M
  101     0     9     0     0
SMALL
NO_CHARGES


@<TRIPOS>ATOM
      1 CA          1.3150    5.9680   58.5030 C.3       3 GLC5        0.0000 
      2 CA          1.6820    7.6980   57.4590 C.3       9 GLL5        0.0000 
      3 CA          0.9480    4.2380   59.5470 C.3       6 GLP5        0.0000 
      4 CA          1.9755    8.6320   60.0565 C.3       3 GLC5        0.0000 
      5 CA          1.8430    8.8920   58.1500 C.3       9 GLL5        0.0000 
      6 CA          2.1080    8.3720   61.9630 C.3       6 GLP5        0.0000 
      7 CA          1.9350    8.9435   53.5855 C.3       3 GLC5        0.0000 
      8 CA          1.2630    8.9120   55.4060 C.3       9 GLL5        0.0000 
      9 CA          2.6070    8.9750   51.7650 C.3       6 GLP5        0.0000 
     10 CA         -3.2380   12.7480   60.0810 C.3       3 GLC5        0.0000 
     11 CA         -1.5180   11.7120   59.5010 C.3       9 GLL5        0.0000 
     12 CA         -4.9580   13.7840   60.6610 C.3       6 GLP5        0.0000 
     13 CA         -2.0905   10.9090   60.9940 C.3       3 GLC5        0.0000 
     14 CA         -2.6630   10.1060   62.4870 C.3       6 GLP5        0.0000 
     15 CA          1.4035   13.0190   57.2890 C.3       3 GLC5        0.0000 
     16 CA          0.7780   11.6870   58.8890 C.3       9 GLL5        0.0000 
     17 CA          2.0290   14.3510   55.6890 C.3       6 GLP5        0.0000 
     18 CA          2.7250   11.5750   55.4915 C.3       3 GLC5        0.0000 
     19 CA          1.4220   10.1030   56.1030 C.3       9 GLL5        0.0000 
     20 CA          4.0280   13.0470   54.8800 C.3       6 GLP5        0.0000 
     21 CA         -1.0750   12.1160   62.0500 C.3       3 GLC5        0.0000 
     22 CA         -0.0540   13.0370   60.7140 C.3       9 GLL5        0.0000 
     23 CA         -2.0960   11.1950   63.3860 C.3       6 GLP5        0.0000 
     24 CA          0.9635    2.2110   50.3140 C.3       3 GLC5        0.0000 
     25 CA          0.4350    2.9520   52.2100 C.3       9 GLL5        0.0000 
     26 CA          1.4920    1.4700   48.4180 C.3       6 GLP5        0.0000 
     27 CA          2.5530    6.8735   50.2935 C.3       3 GLC5        0.0000 
     28 CA          1.2330    5.5230   49.1740 C.3       9 GLL5        0.0000 
     29 CA          3.8730    8.2240   51.4130 C.3       6 GLP5        0.0000 
     30 CA          1.9635    6.9125   48.2955 C.3       3 GLC5        0.0000 
     31 CA          2.6940    8.3020   47.4170 C.3       6 GLP5        0.0000 
     32 CA         -0.0880    6.7835   48.8175 C.3       3 GLC5        0.0000 
     33 CA         -1.4090    8.0440   48.4610 C.3       6 GLP5        0.0000 
     34 CA         -0.8300    3.7720   49.3005 C.3       3 GLC5        0.0000 
     35 CA          1.0480    4.4660   50.2410 C.3       9 GLL5        0.0000 
     36 CA         -2.7080    3.0780   48.3600 C.3       6 GLP5        0.0000 
     37 N          -2.3865   12.7755   61.4330 N.am      2 SEC2        0.0000 
     38 N          -1.3170   12.5960   60.5050 N.am      8 SEL2        0.0000 
     39 N          -3.4560   12.9550   62.3610 N.am      5 SEP2        0.0000 
     40 O          -0.5620   13.8700   63.0575 O.2       1 ALC1        0.0000 
     41 O           0.1730   13.9550   61.7530 O.2       7 ALL1        0.0000 
     42 O          -1.2970   13.7850   64.3620 O.2       4 ALP1        0.0000 
     43 N           1.7360    3.5765   56.9075 N.am      2 SEC2        0.0000 
     44 N           0.6240    4.0170   56.1060 N.am      8 SEL2        0.0000 
     45 N           2.8480    3.1360   57.7090 N.am      5 SEP2        0.0000 
     46 N           2.3255    5.9715   51.6385 N.am      2 SEC2        0.0000 
     47 N           0.9290    5.1590   51.4870 N.am      8 SEL2        0.0000 
     48 N           3.7220    6.7840   51.7900 N.am      5 SEP2        0.0000 
     49 CA         -1.7315   -1.6285   56.6820 C.3       3 GLC5        0.0000 
     50 CA         -0.6300   -1.2990   58.4810 C.3       9 GLL5        0.0000 
     51 CA         -2.8330   -1.9580   54.8830 C.3       6 GLP5        0.0000 
     52 CA          0.0505   -2.8130   57.1995 C.3       3 GLC5        0.0000 
     53 CA          0.7310   -4.3270   55.9180 C.3       6 GLP5        0.0000 
     54 CA          0.2075   -1.1570   60.1230 C.3       3 GLC5        0.0000 
     55 CA          1.0450   -1.0150   61.7650 C.3       6 GLP5        0.0000 
     56 CA          1.6625   12.8050   55.5635 C.3       3 GLC5        0.0000 
     57 CA          1.2960   11.2590   55.4380 C.3       9 GLL5        0.0000 
     58 CA         -0.3170   12.5160   56.1545 C.3       3 GLC5        0.0000 
     59 CA         -1.9300   13.7730   56.8710 C.3       6 GLP5        0.0000 
     60 CA          1.2960   11.1645   53.5185 C.3       3 GLC5        0.0000 
     61 CA          1.2960   11.0700   51.5990 C.3       6 GLP5        0.0000 
     62 CA          2.1100   11.6420   61.2440 C.3       3 GLC5        0.0000 
     63 CA          2.6150   13.1760   60.2110 C.3       9 GLL5        0.0000 
     64 CA          1.6050   10.1080   62.2770 C.3       6 GLP5        0.0000 
     65 CA          3.7390   11.5350   59.9505 C.3       3 GLC5        0.0000 
     66 CA          4.8630    9.8940   59.6900 C.3       6 GLP5        0.0000 
     67 CA         -1.9587    1.8307   54.6998 C.3       3 GLC5        0.0000 
     68 CA          0.0590    1.4340   55.5160 C.3       9 GLL5        0.0000 
     69 CA         -3.4120    2.1630   53.4720 C.3       6 GLP5        0.0000 
     70 CA          3.5938    7.0448   56.4442 C.3       3 GLC5        0.0000 
     71 CA          5.6510    6.3890   56.1160 C.3       6 GLP5        0.0000 
     72 CA         -1.4743   12.6220   57.9790 C.3       3 GLC5        0.0000 
     73 CA         -0.5190   11.2300   58.6730 C.3       9 GLL5        0.0000 
     74 CA          0.2932   10.7895   60.6820 C.3       3 GLC5        0.0000 
     75 CA         -0.1855    9.1023   55.0020 C.3       3 GLC5        0.0000 
     76 CA          1.3910    7.7030   56.0860 C.3       9 GLL5        0.0000 
     77 CA         -1.6980    9.8970   54.2580 C.3       6 GLP5        0.0000 
     78 CA          2.3077    1.2409   55.9700 C.3       3 GLC5        0.0000 
     79 CA          4.1640    1.8060   56.0800 C.3       6 GLP5        0.0000 
     80 CA         -0.1671    7.3460   57.6831 C.3       3 GLC5        0.0000 
     81 CA         -1.9110    6.6930   58.4210 C.3       6 GLP5        0.0000 
     82 CA         -0.7833   -2.4508   58.8690 C.3       3 GLC5        0.0000 
     83 CA         -0.4030   -0.4060   57.5130 C.3       9 GLL5        0.0000 
     84 CA         -1.0500   -4.0490   59.7410 C.3       6 GLP5        0.0000 
     85 CA         -0.1695   10.2890   55.0143 C.3       3 GLC5        0.0000 
     86 CA          2.4490   14.3403   59.4723 C.3       3 GLC5        0.0000 
     87 CA          1.0130   12.5990   59.9220 C.3       9 GLL5        0.0000 
     88 CA          3.0840   15.7930   58.8780 C.3       6 GLP5        0.0000 
     89 CA         -0.7546   13.1815   58.4654 C.3       3 GLC5        0.0000 
     90 CA          1.0129   11.3490   61.1684 C.3       3 GLC5        0.0000 
     91 CA         -1.2550    3.1820   52.9942 C.3       3 GLC5        0.0000 
     92 CA         -2.8380    3.8640   53.3000 C.3       6 GLP5        0.0000 
     93 CA         -1.0340    4.1945   53.2502 C.3       3 GLC5        0.0000 
     94 CA          0.7330    4.3200   52.5600 C.3       9 GLL5        0.0000 
     95 CA          1.3163    3.2322   49.0627 C.3       3 GLC5        0.0000 
     96 CA         -2.4980   -0.6095   58.6506 C.3       3 GLC5        0.0000 
     97 CA         -4.2550   -0.6270   59.3470 C.3       6 GLP5        0.0000 
     98 CA          1.4103   -1.5972   58.4233 C.3       3 GLC5        0.0000 
     99 CA          3.0550   -2.3070   59.0510 C.3       6 GLP5        0.0000 
    100 CA          0.5058    1.6276   57.9732 C.3       3 GLC5        0.0000 
    101 CA          1.1830    2.7440   59.4280 C.3       6 GLP5        0.0000 
@<TRIPOS>BOND
@<TRIPOS>SUBSTRUCTURE
     1 ALC1       40 GROUP        1 X    ALC  0     ROOT ALC X 1
     2 SEC2       37 GROUP        1 X    SEC  0     **** SEC X 2
     3 GLC5        1 GROUP        1 X    GLC  0     **** GLC X 6
     4 ALP1       42 GROUP        1 Y    ALP  0     ROOT ALP Y 8
     5 SEP2       39 GROUP        1 Y    SEP  0     **** SEP Y 9
     6 GLP5        3 GROUP        1 Y    GLP  0     **** GLP Y 13
     7 ALL1       41 GROUP        1 Z    ALL  0     ROOT ALL Z 15
     8 SEL2       38 GROUP        1 Z    SEL  0     **** SEL Z 16
     9 GLL5        2 GROUP        1 Z    GLL  0     **** GLL Z 20
@<TRIPOS>SET

