#    Name: 3f82_353_1_ligand
#    Modification time : Tue Mar 25 03:20:15 2014

@<TRIPOS>MOLECULE
3f82_353_1_ligand
   55    58     1     0     0
SMALL
NO_CHARGES


@<TRIPOS>ATOM
      1 C1          0.9630    0.3810   55.7010 C.ar      1 3532001     0.0000 
      2 C2         -1.0700    1.5630   56.3390 C.ar      1 3532001     0.0000 
      3 C3          1.6820    7.6980   57.4590 C.ar      1 3532001     0.0000 
      4 C4          1.8430    8.8920   58.1500 C.ar      1 3532001     0.0000 
      5 C5          0.7250   -0.5460   56.7070 C.ar      1 3532001     0.0000 
      6 C6         -1.3010    0.6360   57.3420 C.ar      1 3532001     0.0000 
      7 C7         -0.5190   11.2300   58.6730 C.ar      1 3532001     0.0000 
      8 C8          1.2630    8.9120   55.4060 C.ar      1 3532001     0.0000 
      9 C9         -1.5180   11.7120   59.5010 C.ar      1 3532001     0.0000 
     10 C10         0.0590    1.4340   55.5160 C.ar      1 3532001     0.0000 
     11 C11         1.3910    7.7030   56.0860 C.ar      1 3532001     0.0000 
     12 C12         1.7140   10.0950   57.4660 C.ar      1 3532001     0.0000 
     13 C13         0.7780   11.6870   58.8890 C.ar      1 3532001     0.0000 
     14 C14        -0.4030   -0.4060   57.5130 C.ar      1 3532001     0.0000 
     15 C15         1.4220   10.1030   56.1030 C.ar      1 3532001     0.0000 
     16 C16         1.0130   12.5990   59.9220 C.ar      1 3532001     0.0000 
     17 C17        -0.0540   13.0370   60.7140 C.ar      1 3532001     0.0000 
     18 C18         0.4350    2.9520   52.2100 C.2       1 3532001     0.0000 
     19 C19         0.2210    2.0480   53.1670 C.2       1 3532001     0.0000 
     20 C20         0.8070    4.7300   53.8410 C.2       1 3532001     0.0000 
     21 C21         0.7330    4.3200   52.5600 C.2       1 3532001     0.0000 
     22 C22         0.5680    3.7000   54.9220 C.2       1 3532001     0.0000 
     23 C23         1.1230    6.1820   54.1300 C.2       1 3532001     0.0000 
     24 C24         1.2330    5.5230   49.1740 C.3       1 3532001     0.0000 
     25 C25         1.0480    4.4660   50.2410 C.3       1 3532001     0.0000 
     26 N26        -1.3170   12.5960   60.5050 N.ar      1 3532001     0.0000 
     27 N27         0.2830    2.3940   54.4990 N.am      1 3532001     0.0000 
     28 N28         0.1730   13.9550   61.7530 N.pl3     1 3532001     0.0000 
     29 N29         1.2450    6.4480   55.4780 N.am      1 3532001     0.0000 
     30 O30         0.6240    4.0170   56.1060 O.2       1 3532001     0.0000 
     31 O31         1.2500    7.0050   53.2320 O.2       1 3532001     0.0000 
     32 O32         1.8640   11.2810   58.1330 O.3       1 3532001     0.0000 
     33 O33         0.9290    5.1590   51.4870 O.3       1 3532001     0.0000 
     34 F34        -0.6300   -1.2990   58.4810 F         1 3532001     0.0000 
     35 F35         1.2960   11.2590   55.4380 F         1 3532001     0.0000 
     36 CL36        2.6150   13.1760   60.2110 Cl        1 3532001     0.0000 
     37 H           1.7853    0.3004   55.1010 H         1 3532001     0.0000 
     38 H          -1.7179    2.3447   56.1918 H         1 3532001     0.0000 
     39 H           1.7756    6.7986   57.9521 H         1 3532001     0.0000 
     40 H           2.0542    8.8865   59.1513 H         1 3532001     0.0000 
     41 H           1.3711   -1.3260   56.8570 H         1 3532001     0.0000 
     42 H          -2.1213    0.7187   57.9473 H         1 3532001     0.0000 
     43 H          -0.7211   10.5670   57.9338 H         1 3532001     0.0000 
     44 H           1.0542    8.9208   54.4047 H         1 3532001     0.0000 
     45 H          -2.5072   11.3552   59.3256 H         1 3532001     0.0000 
     46 H           0.3985    2.7222   51.2057 H         1 3532001     0.0000 
     47 H           0.0008    1.0537   52.9216 H         1 3532001     0.0000 
     48 H           1.9106    3.8087   50.2262 H         1 3532001     0.0000 
     49 H           0.1541    3.8971   50.0092 H         1 3532001     0.0000 
     50 H           0.5433   14.8435   61.4820 H         1 3532001     0.0000 
     51 H          -0.0551   13.6415   62.6748 H         1 3532001     0.0000 
     52 H           1.2270    5.6003   56.1470 H         1 3532001     0.0000 
     53 H           2.0538    6.0716   49.3330 H         1 3532001     0.0000 
     54 H           1.3219    5.1198   48.2632 H         1 3532001     0.0000 
     55 H           0.4595    6.1559   49.1401 H         1 3532001     0.0000 
@<TRIPOS>BOND
     1    5    1 ar   
     2   10    1 ar   
     3   37    1 1    
     4    6    2 ar   
     5   10    2 ar   
     6   38    2 1    
     7    4    3 ar   
     8   11    3 ar   
     9   39    3 1    
    10   12    4 ar   
    11   40    4 1    
    12   14    5 ar   
    13   41    5 1    
    14   14    6 ar   
    15   42    6 1    
    16    9    7 ar   
    17   13    7 ar   
    18   43    7 1    
    19   11    8 ar   
    20   15    8 ar   
    21   44    8 1    
    22   26    9 ar   
    23   45    9 1    
    24   27   10 1    
    25   29   11 1    
    26   15   12 ar   
    27   32   12 1    
    28   16   13 ar   
    29   32   13 1    
    30   34   14 1    
    31   35   15 1    
    32   17   16 ar   
    33   36   16 1    
    34   26   17 ar   
    35   28   17 1    
    36   19   18 2    
    37   21   18 1    
    38   46   18 1    
    39   27   19 1    
    40   47   19 1    
    41   21   20 2    
    42   22   20 1    
    43   23   20 1    
    44   33   21 1    
    45   27   22 am   
    46   30   22 2    
    47   29   23 am   
    48   31   23 2    
    49   25   24 1    
    50   53   24 1    
    51   54   24 1    
    52   55   24 1    
    53   33   25 1    
    54   48   25 1    
    55   49   25 1    
    56   50   28 1    
    57   51   28 1    
    58   52   29 1    
@<TRIPOS>SUBSTRUCTURE
     1 3532001     1 GROUP   
@<TRIPOS>SET

