#    Name: 4h6p_FMN_6_INTS_M
#    Modification time : Tue Mar 25 00:29:03 2014

@<TRIPOS>MOLECULE
4h6p_FMN_6_INTS_M
   64     0    12     0     0
SMALL
NO_CHARGES


@<TRIPOS>ATOM
      1 N         -23.3785   29.4995   -9.7640 N.am      2 SEC2        0.0000 
      2 N         -23.2330   30.4080  -11.0140 N.am     10 SEL2        0.0000 
      3 N         -23.5240   28.5910   -8.5140 N.am      6 SEP2        0.0000 
      4 O         -22.7140   33.1010  -11.2415 O.2       1 ALC1        0.0000 
      5 O         -23.6080   32.3710  -12.0400 O.2       9 ALL1        0.0000 
      6 O         -21.8200   33.8310  -10.4430 O.2       5 ALP1        0.0000 
      7 N         -23.7225   35.6160  -13.0285 N.am      2 SEC2        0.0000 
      8 N         -24.0800   34.3180  -13.0650 N.am     10 SEL2        0.0000 
      9 N         -23.3650   36.9140  -12.9920 N.am      6 SEP2        0.0000 
     10 N         -26.4340   35.0550  -13.5240 N.am      2 SEC2        0.0000 
     11 N         -26.6740   33.6990  -13.4870 N.am     10 SEL2        0.0000 
     12 N         -26.1940   36.4110  -13.5610 N.am      6 SEP2        0.0000 
     13 CA        -29.6060   35.4110  -13.0805 C.3       4 GLC5        0.0000 
     14 CA        -30.1980   33.8900  -14.5020 C.3      12 GLL5        0.0000 
     15 CA        -29.0140   36.9320  -11.6590 C.3       8 GLP5        0.0000 
     16 CA        -31.5260   36.9395  -15.6490 C.3       4 GLC5        0.0000 
     17 CA        -31.1510   34.8280  -15.1950 C.3      12 GLL5        0.0000 
     18 CA        -31.9010   39.0510  -16.1030 C.3       8 GLP5        0.0000 
     19 CA        -30.6785   35.4750  -13.1875 C.3       4 GLC5        0.0000 
     20 CA        -30.2060   36.1220  -11.1800 C.3       8 GLP5        0.0000 
     21 CA        -33.6140   33.0325  -13.7430 C.3       4 GLC5        0.0000 
     22 CA        -32.0870   32.2700  -14.2640 C.3      12 GLL5        0.0000 
     23 CA        -35.1410   33.7950  -13.2220 C.3       8 GLP5        0.0000 
     24 CA        -31.6405   33.1675  -12.2960 C.3       4 GLC5        0.0000 
     25 CA        -31.1940   34.0650  -10.3280 C.3       8 GLP5        0.0000 
     26 CA        -27.6100   28.2860  -12.9755 C.3       4 GLC5        0.0000 
     27 CA        -28.0880   29.9250  -12.1580 C.3      12 GLL5        0.0000 
     28 CA        -27.1320   26.6470  -13.7930 C.3       8 GLP5        0.0000 
     29 CA        -28.2770   27.6740  -12.1765 C.3       4 GLC5        0.0000 
     30 CA        -29.4220   28.7010  -10.5600 C.3      12 GLL5        0.0000 
     31 N         -32.2235   26.9635   -8.7080 N.am      2 SEC2        0.0000 
     32 N         -30.6240   27.4710   -8.9170 N.am     10 SEL2        0.0000 
     33 N         -33.8230   26.4560   -8.4990 N.am      6 SEP2        0.0000 
     34 CA        -30.0905   31.3050   -7.8570 C.3       4 GLC5        0.0000 
     35 CA        -30.8460   29.8410   -8.9210 C.3      12 GLL5        0.0000 
     36 CA        -29.3350   32.7690   -6.7930 C.3       8 GLP5        0.0000 
     37 CA        -31.0200   31.9530   -9.6245 C.3       4 GLC5        0.0000 
     38 NZ        -33.0790   27.2130   -7.7220 N.4       3 LYC4        0.0000 
     39 NZ        -32.3350   27.9700   -6.9450 N.4      11 LYL4        0.0000 
     40 NZ        -35.0610   26.8300   -8.7940 N.4       7 LYP4        0.0000 
     41 N         -33.0790   27.2130   -7.7220 N.am      2 SEC2        0.0000 
     42 N         -32.3350   27.9700   -6.9450 N.am     10 SEL2        0.0000 
     43 N         -32.7395   27.3765   -5.5790 N.am      2 SEC2        0.0000 
     44 N         -33.1440   26.7830   -4.2130 N.am      6 SEP2        0.0000 
     45 NZ        -34.4400   29.1300   -8.0750 N.4       3 LYC4        0.0000 
     46 NZ        -33.5050   30.1430   -7.3120 N.4      11 LYL4        0.0000 
     47 N         -34.3610   31.0300   -6.7305 N.am      2 SEC2        0.0000 
     48 N         -33.5050   30.1430   -7.3120 N.am     10 SEL2        0.0000 
     49 N         -35.2170   31.9170   -6.1490 N.am      6 SEP2        0.0000 
     50 N         -34.4400   29.1300   -8.0750 N.am      2 SEC2        0.0000 
     51 N         -35.3750   28.1170   -8.8380 N.am      6 SEP2        0.0000 
     52 N         -33.2205   29.7770   -4.5325 N.am      2 SEC2        0.0000 
     53 N         -32.1010   29.7580   -5.2860 N.am     10 SEL2        0.0000 
     54 N         -34.3400   29.7960   -3.7790 N.am      6 SEP2        0.0000 
     55 N         -31.8960   29.1135   -3.9450 N.am      2 SEC2        0.0000 
     56 N         -31.6910   28.4690   -2.6040 N.am      6 SEP2        0.0000 
     57 N         -30.8795   30.1190   -4.7440 N.am      2 SEC2        0.0000 
     58 N         -29.6580   30.4800   -4.2020 N.am      6 SEP2        0.0000 
     59 CA        -28.0484   34.6000  -12.6307 C.3       4 GLC5        0.0000 
     60 CA        -27.9950   33.3590  -13.6850 C.3      12 GLL5        0.0000 
     61 CA        -27.6570   36.2370  -11.6420 C.3       8 GLP5        0.0000 
     62 CA        -27.8835   27.8639   -9.4893 C.3       4 GLC5        0.0000 
     63 CA        -28.4620   29.8680  -10.7040 C.3      12 GLL5        0.0000 
     64 CA        -26.3380   26.7530   -9.0960 C.3       8 GLP5        0.0000 
@<TRIPOS>BOND
@<TRIPOS>SUBSTRUCTURE
     1 ALC1        4 GROUP        1 X    ALC  0     ROOT ALC X 1
     2 SEC2        1 GROUP        1 X    SEC  0     **** SEC X 2
     3 LYC4       38 GROUP        1 X    LYC  0     **** LYC X 4
     4 GLC5       13 GROUP        1 X    GLC  0     **** GLC X 6
     5 ALP1        6 GROUP        1 Y    ALP  0     ROOT ALP Y 8
     6 SEP2        3 GROUP        1 Y    SEP  0     **** SEP Y 9
     7 LYP4       40 GROUP        1 Y    LYP  0     **** LYP Y 11
     8 GLP5       15 GROUP        1 Y    GLP  0     **** GLP Y 13
     9 ALL1        5 GROUP        1 Z    ALL  0     ROOT ALL Z 15
    10 SEL2        2 GROUP        1 Z    SEL  0     **** SEL Z 16
    11 LYL4       39 GROUP        1 Z    LYL  0     **** LYL Z 18
    12 GLL5       14 GROUP        1 Z    GLL  0     **** GLL Z 20
@<TRIPOS>SET

