#    Name: 4h6p_FMN_6_ligand
#    Modification time : Tue Mar 25 00:29:03 2014

@<TRIPOS>MOLECULE
4h6p_FMN_6_ligand
   50    52     1     0     0
SMALL
NO_CHARGES


@<TRIPOS>ATOM
      1 N1        -25.3580   30.7530  -11.7690 N.2       1 FMN201      0.0000 
      2 C2        -24.0400   31.1430  -11.5850 C.2       1 FMN201      0.0000 
      3 O2        -23.2330   30.4080  -11.0140 O.2       1 FMN201      0.0000 
      4 N3        -23.6080   32.3710  -12.0400 N.am      1 FMN201      0.0000 
      5 C4        -24.4770   33.2240  -12.6740 C.2       1 FMN201      0.0000 
      6 O4        -24.0800   34.3180  -13.0650 O.2       1 FMN201      0.0000 
      7 C4A       -25.7980   32.8430  -12.8610 C.2       1 FMN201      0.0000 
      8 N5        -26.6740   33.6990  -13.4870 N.2       1 FMN201      0.0000 
      9 C5A       -27.9950   33.3590  -13.6850 C.ar      1 FMN201      0.0000 
     10 C6        -28.8660   34.2450  -14.3150 C.ar      1 FMN201      0.0000 
     11 C7        -30.1980   33.8900  -14.5020 C.ar      1 FMN201      0.0000 
     12 C7M       -31.1510   34.8280  -15.1950 C.3       1 FMN201      0.0000 
     13 C8        -30.6500   32.6520  -14.0550 C.ar      1 FMN201      0.0000 
     14 C8M       -32.0870   32.2700  -14.2640 C.3       1 FMN201      0.0000 
     15 C9        -29.7780   31.7700  -13.4280 C.ar      1 FMN201      0.0000 
     16 C9A       -28.4490   32.1240  -13.2390 C.ar      1 FMN201      0.0000 
     17 N10       -27.5790   31.2600  -12.5960 N.pl3     1 FMN201      0.0000 
     18 C10       -26.2460   31.6060  -12.4050 C.2       1 FMN201      0.0000 
     19 C1'       -28.0880   29.9250  -12.1580 C.3       1 FMN201      0.0000 
     20 C2'       -28.4620   29.8680  -10.7040 C.3       1 FMN201      0.0000 
     21 O2'       -27.2860   29.6620   -9.9490 O.3       1 FMN201      0.0000 
     22 C3'       -29.4220   28.7010  -10.5600 C.3       1 FMN201      0.0000 
     23 O3'       -30.5250   28.8510  -11.4370 O.3       1 FMN201      0.0000 
     24 C4'       -29.9160   28.6650   -9.1330 C.3       1 FMN201      0.0000 
     25 O4'       -30.6240   27.4710   -8.9170 O.3       1 FMN201      0.0000 
     26 C5'       -30.8460   29.8410   -8.9210 C.3       1 FMN201      0.0000 
     27 O5'       -30.9710   30.0210   -7.5390 O.3       1 FMN201      0.0000 
     28 P         -32.2680   29.4700   -6.7610 P.3       1 FMN201      0.0000 
     29 O1P       -32.3350   27.9700   -6.9450 O.co2     1 FMN201      0.0000 
     30 O2P       -33.5050   30.1430   -7.3120 O.co2     1 FMN201      0.0000 
     31 O3P       -32.1010   29.7580   -5.2860 O.co2     1 FMN201      0.0000 
     32 H         -22.6193   32.6496  -11.9010 H         1 FMN201      0.0000 
     33 H         -28.5251   35.1570  -14.6400 H         1 FMN201      0.0000 
     34 H         -30.1181   30.8546  -13.1040 H         1 FMN201      0.0000 
     35 H         -27.3190   29.1545  -12.3629 H         1 FMN201      0.0000 
     36 H         -28.9709   29.6513  -12.7684 H         1 FMN201      0.0000 
     37 H         -28.9709   30.7661  -10.4486 H         1 FMN201      0.0000 
     38 H         -28.8784   27.7913  -10.7506 H         1 FMN201      0.0000 
     39 H         -29.0788   28.7695   -8.4769 H         1 FMN201      0.0000 
     40 H         -31.7969   29.6063   -9.4001 H         1 FMN201      0.0000 
     41 H         -30.4086   30.7074   -9.4179 H         1 FMN201      0.0000 
     42 H         -31.2291   35.7008  -14.7133 H         1 FMN201      0.0000 
     43 H         -30.8568   35.0336  -16.1284 H         1 FMN201      0.0000 
     44 H         -32.0721   34.4434  -15.2560 H         1 FMN201      0.0000 
     45 H         -32.3302   32.2556  -15.2339 H         1 FMN201      0.0000 
     46 H         -32.2866   31.3609  -13.8983 H         1 FMN201      0.0000 
     47 H         -32.7105   32.9100  -13.8149 H         1 FMN201      0.0000 
     48 H         -26.5428   29.6798  -10.6178 H         1 FMN201      0.0000 
     49 H         -30.4671   28.0718  -12.0610 H         1 FMN201      0.0000 
     50 H         -31.2649   27.6803   -8.1784 H         1 FMN201      0.0000 
@<TRIPOS>BOND
     1    2    1 1    
     2   18    1 2    
     3    3    2 2    
     4    4    2 am   
     5    5    4 am   
     6   32    4 1    
     7    6    5 2    
     8    7    5 1    
     9    8    7 2    
    10   18    7 1    
    11    9    8 1    
    12   10    9 ar   
    13   16    9 ar   
    14   11   10 ar   
    15   33   10 1    
    16   12   11 1    
    17   13   11 ar   
    18   42   12 1    
    19   43   12 1    
    20   44   12 1    
    21   14   13 1    
    22   15   13 ar   
    23   45   14 1    
    24   46   14 1    
    25   47   14 1    
    26   16   15 ar   
    27   34   15 1    
    28   17   16 1    
    29   18   17 1    
    30   19   17 1    
    31   20   19 1    
    32   35   19 1    
    33   36   19 1    
    34   21   20 1    
    35   22   20 1    
    36   37   20 1    
    37   48   21 1    
    38   23   22 1    
    39   24   22 1    
    40   38   22 1    
    41   49   23 1    
    42   25   24 1    
    43   26   24 1    
    44   39   24 1    
    45   50   25 1    
    46   27   26 1    
    47   40   26 1    
    48   41   26 1    
    49   28   27 1    
    50   29   28 ar   
    51   30   28 ar   
    52   31   28 ar   
@<TRIPOS>SUBSTRUCTURE
     1 FMN201      1 GROUP   
@<TRIPOS>SET

