#    Name: 1uv5_BRW_1_INTS_M
#    Modification time : Tue Mar 25 07:07:27 2014

@<TRIPOS>MOLECULE
1uv5_BRW_1_INTS_M
   59     0     9     0     0
SMALL
NO_CHARGES


@<TRIPOS>ATOM
      1 O          97.2405   68.3265    8.9065 O.2       1 ALC1        0.0000 
      2 O          95.9110   68.6700    9.4220 O.2       7 ALL1        0.0000 
      3 O          98.5700   67.9830    8.3910 O.2       4 ALP1        0.0000 
      4 CA         94.7000   71.0750   10.6845 C.3       3 GLC5        0.0000 
      5 CA         94.0260   71.6650    8.7170 C.3       9 GLL5        0.0000 
      6 CA         95.3740   70.4850   12.6520 C.3       6 GLP5        0.0000 
      7 O          96.1410   63.7955   11.2840 O.2       1 ALC1        0.0000 
      8 O          95.1640   64.7120   10.7300 O.2       7 ALL1        0.0000 
      9 O          97.1180   62.8790   11.8380 O.2       4 ALP1        0.0000 
     10 CA         94.0455   62.2050   10.1975 C.3       3 GLC5        0.0000 
     11 CA         92.8460   63.6800   11.0240 C.3       9 GLL5        0.0000 
     12 CA         95.2450   60.7300    9.3710 C.3       6 GLP5        0.0000 
     13 CA         90.2945   66.6180   12.2275 C.3       3 GLC5        0.0000 
     14 CA         91.0280   65.2800   10.6910 C.3       9 GLL5        0.0000 
     15 CA         89.5610   67.9560   13.7640 C.3       6 GLP5        0.0000 
     16 CA         92.9730   66.3425    8.4785 C.3       3 GLC5        0.0000 
     17 CA         91.8820   66.2900   10.4400 C.3       9 GLL5        0.0000 
     18 CA         94.0640   66.3950    6.5170 C.3       6 GLP5        0.0000 
     19 N          97.9370   65.9470    9.8245 N.am      2 SEC2        0.0000 
     20 N          96.8360   66.2770   10.2010 N.am      8 SEL2        0.0000 
     21 N          99.0380   65.6170    9.4480 N.am      5 SEP2        0.0000 
     22 CA         88.9315   63.3725   12.6880 C.3       3 GLC5        0.0000 
     23 CA         90.2400   62.5480   11.2000 C.3       9 GLL5        0.0000 
     24 CA         87.6230   64.1970   14.1760 C.3       6 GLP5        0.0000 
     25 CA         91.5790   61.2435   10.0895 C.3       3 GLC5        0.0000 
     26 CA         92.9180   59.9390    8.9790 C.3       6 GLP5        0.0000 
     27 CA         91.2630   62.3070   12.7730 C.3       3 GLC5        0.0000 
     28 CA         92.2860   62.0660   14.3460 C.3       6 GLP5        0.0000 
     29 CA         90.7725   62.6100    9.2355 C.3       3 GLC5        0.0000 
     30 CA         91.3050   62.6720    7.2710 C.3       6 GLP5        0.0000 
     31 CA         88.7160   62.6630    9.9065 C.3       3 GLC5        0.0000 
     32 CA         87.1920   62.7780    8.6130 C.3       6 GLP5        0.0000 
     33 CA         94.6683   70.1615    7.0457 C.3       3 GLC5        0.0000 
     34 CA         94.4050   70.4080    9.0940 C.3       9 GLL5        0.0000 
     35 CA         94.2300   70.1280    5.0530 C.3       6 GLP5        0.0000 
     36 CA         95.6571   70.4945   10.7156 C.3       3 GLC5        0.0000 
     37 CA         95.4030   70.8148    6.6803 C.3       3 GLC5        0.0000 
     38 CA         96.7740   70.8130    8.5200 C.3       9 GLL5        0.0000 
     39 CA         95.6298   73.1773    6.4078 C.3       3 GLC5        0.0000 
     40 CA         96.3780   72.1900    8.0950 C.3       9 GLL5        0.0000 
     41 CA         95.5330   73.9640    4.6710 C.3       6 GLP5        0.0000 
     42 CA         94.3903   71.1280    6.7542 C.3       3 GLC5        0.0000 
     43 CA         95.0750   72.5910    8.1940 C.3       9 GLL5        0.0000 
     44 CA         94.9680   69.0130   11.3145 C.3       3 GLC5        0.0000 
     45 CA         94.6330   68.1680    9.7880 C.3       9 GLL5        0.0000 
     46 CA         94.3130   66.9680    8.2470 C.3       3 GLC5        0.0000 
     47 CA         94.7171   65.5494   12.3658 C.3       3 GLC5        0.0000 
     48 CA         93.7740   64.7930   10.7470 C.3       9 GLL5        0.0000 
     49 CA         95.5920   65.4580   14.1980 C.3       6 GLP5        0.0000 
     50 CA         92.3245   67.1407   12.1525 C.3       3 GLC5        0.0000 
     51 CA         93.3300   66.0630   10.4740 C.3       9 GLL5        0.0000 
     52 CA         92.0430   68.1050   13.8480 C.3       6 GLP5        0.0000 
     53 CA         92.2313   62.9335   12.6707 C.3       3 GLC5        0.0000 
     54 CA         91.5070   63.9220   10.9670 C.3       9 GLL5        0.0000 
     55 CA         94.0175   64.3890    9.0761 C.3       3 GLC5        0.0000 
     56 CA         94.8360   64.2240    7.3350 C.3       6 GLP5        0.0000 
     57 CA         91.7408   63.2365    9.1333 C.3       3 GLC5        0.0000 
     58 CA         91.1600   65.0835    8.7432 C.3       3 GLC5        0.0000 
     59 CA         90.8650   64.3820    6.9210 C.3       6 GLP5        0.0000 
@<TRIPOS>BOND
@<TRIPOS>SUBSTRUCTURE
     1 ALC1        1 GROUP        1 X    ALC  0     ROOT ALC X 1
     2 SEC2       19 GROUP        1 X    SEC  0     **** SEC X 2
     3 GLC5        4 GROUP        1 X    GLC  0     **** GLC X 6
     4 ALP1        3 GROUP        1 Y    ALP  0     ROOT ALP Y 8
     5 SEP2       21 GROUP        1 Y    SEP  0     **** SEP Y 9
     6 GLP5        6 GROUP        1 Y    GLP  0     **** GLP Y 13
     7 ALL1        2 GROUP        1 Z    ALL  0     ROOT ALL Z 15
     8 SEL2       20 GROUP        1 Z    SEL  0     **** SEL Z 16
     9 GLL5        5 GROUP        1 Z    GLL  0     **** GLL Z 20
@<TRIPOS>SET

