#    Name: 1uv5_BRW_1_ligand
#    Modification time : Tue Mar 25 07:07:27 2014

@<TRIPOS>MOLECULE
1uv5_BRW_1_ligand
   32    35     1     0     0
SMALL
NO_CHARGES


@<TRIPOS>ATOM
      1 C1         94.4050   70.4080    9.0940 C.ar      1 BRW1383     0.0000 
      2 C2         93.6770   69.2510    9.6020 C.2       1 BRW1383     0.0000 
      3 C3         95.8080   69.9820    8.9830 C.ar      1 BRW1383     0.0000 
      4 N4         95.9110   68.6700    9.4220 N.pl3     1 BRW1383     0.0000 
      5 C5         96.7740   70.8130    8.5200 C.ar      1 BRW1383     0.0000 
      6 C7         96.3780   72.1900    8.0950 C.ar      1 BRW1383     0.0000 
      7 C9         95.0750   72.5910    8.1940 C.ar      1 BRW1383     0.0000 
      8 C11        94.0260   71.6650    8.7170 C.ar      1 BRW1383     0.0000 
      9 C13        94.6330   68.1680    9.7880 C.2       1 BRW1383     0.0000 
     10 C14        94.4910   66.9140   10.1660 C.2       1 BRW1383     0.0000 
     11 C15        95.6430   65.9960   10.3510 C.2       1 BRW1383     0.0000 
     12 N16        95.1640   64.7120   10.7300 N.am      1 BRW1383     0.0000 
     13 C17        93.7740   64.7930   10.7470 C.ar      1 BRW1383     0.0000 
     14 C18        93.3300   66.0630   10.4740 C.ar      1 BRW1383     0.0000 
     15 C19        92.8460   63.6800   11.0240 C.ar      1 BRW1383     0.0000 
     16 C20        91.5070   63.9220   10.9670 C.ar      1 BRW1383     0.0000 
     17 C21        91.0280   65.2800   10.6910 C.ar      1 BRW1383     0.0000 
     18 C22        91.8820   66.2900   10.4400 C.ar      1 BRW1383     0.0000 
     19 O23        96.8360   66.2770   10.2010 O.2       1 BRW1383     0.0000 
     20 N24        92.4400   69.1550    9.8700 N.2       1 BRW1383     0.0000 
     21 O39        91.4560   70.0230    9.7820 O.3       1 BRW1383     0.0000 
     22 BR21       90.2400   62.5480   11.2000 Br        1 BRW1383     0.0000 
     23 H          96.7194   68.1593    9.4774 H         1 BRW1383     0.0000 
     24 H          97.7471   70.5705    8.4400 H         1 BRW1383     0.0000 
     25 H          97.1208   72.7875    7.7390 H         1 BRW1383     0.0000 
     26 H          94.7590   73.5247    7.9211 H         1 BRW1383     0.0000 
     27 H          93.0856   72.0125    8.7671 H         1 BRW1383     0.0000 
     28 H          95.6928   63.9702   10.9258 H         1 BRW1383     0.0000 
     29 H          93.2456   62.7801   11.2456 H         1 BRW1383     0.0000 
     30 H          90.0014   65.4124   10.7011 H         1 BRW1383     0.0000 
     31 H          91.5701   67.2434   10.2184 H         1 BRW1383     0.0000 
     32 H          91.2891   70.1263    8.8015 H         1 BRW1383     0.0000 
@<TRIPOS>BOND
     1    2    1 1    
     2    3    1 ar   
     3    8    1 ar   
     4    9    2 1    
     5   20    2 2    
     6    4    3 1    
     7    5    3 ar   
     8    9    4 1    
     9   23    4 1    
    10    6    5 ar   
    11   24    5 1    
    12    7    6 ar   
    13   25    6 1    
    14    8    7 ar   
    15   26    7 1    
    16   27    8 1    
    17   10    9 2    
    18   11   10 1    
    19   14   10 1    
    20   12   11 am   
    21   19   11 2    
    22   13   12 1    
    23   28   12 1    
    24   14   13 ar   
    25   15   13 ar   
    26   18   14 ar   
    27   16   15 ar   
    28   29   15 1    
    29   17   16 ar   
    30   22   16 1    
    31   18   17 ar   
    32   30   17 1    
    33   31   18 1    
    34   21   20 1    
    35   32   21 1    
@<TRIPOS>SUBSTRUCTURE
     1 BRW1383     1 GROUP   
@<TRIPOS>SET

