#    Name: 4I0Z_1_CAVITY_N1_ALL.mol2
#    Modification time : Tue Mar 11 03:57:26 2014

@<TRIPOS>MOLECULE
4I0Z_1_CAVITY_N1_ALL.mol2
  110     0     5     0     0
SMALL
NO_CHARGES


@<TRIPOS>ATOM
      1 N           6.8459  -15.9172    3.4393 N.2       2 ALA2        0.0000 
      2 N           9.1892  -13.2980    4.5110 N.2       2 ALA2        0.0000 
      3 CA          9.0707  -14.7165    4.0379 C.3       4 GLY6        0.0000 
      4 N           7.9238  -14.9349    4.9797 N.2       2 ALA2        0.0000 
      5 N           6.7770  -15.1532    5.9215 N.2       2 ALA2        0.0000 
      6 CA          5.6301  -15.3716    6.8634 C.3       4 GLY6        0.0000 
      7 CA          7.8054  -16.3533    4.5066 C.3       4 GLY6        0.0000 
      8 DU          6.6585  -16.5717    5.4484 H         5 CUB7        0.0000 
      9 CA          5.5117  -16.7901    6.3902 C.3       4 GLY6        0.0000 
     10 CA          4.3648  -17.0085    7.3320 C.3       4 GLY6        0.0000 
     11 CA          3.2180  -17.2269    8.2739 C.3       4 GLY6        0.0000 
     12 CZ         10.2671  -12.3156    6.0515 C.ar      3 PHE5        0.0000 
     13 CZ          9.1203  -12.5340    6.9933 C.ar      3 PHE5        0.0000 
     14 CZ         11.2955  -13.5157    4.6365 C.ar      3 PHE5        0.0000 
     15 DU         10.1487  -13.7341    5.5783 H         5 CUB7        0.0000 
     16 N           9.0018  -13.9525    6.5202 N.2       2 ALA2        0.0000 
     17 N           7.8550  -14.1709    7.4620 N.2       2 ALA2        0.0000 
     18 N           6.7081  -14.3892    8.4038 N.2       2 ALA2        0.0000 
     19 N           5.5612  -14.6076    9.3456 N.2       2 ALA2        0.0000 
     20 CA         12.3239  -14.7158    3.2215 C.3       4 GLY6        0.0000 
     21 CA         11.1771  -14.9342    4.1634 C.3       4 GLY6        0.0000 
     22 CA         10.0302  -15.1526    5.1052 C.3       4 GLY6        0.0000 
     23 DU          8.8834  -15.3710    6.0470 H         5 CUB7        0.0000 
     24 DU          7.7365  -15.5894    6.9888 H         5 CUB7        0.0000 
     25 CA          6.5897  -15.8077    7.9307 C.3       4 GLY6        0.0000 
     26 CA          5.4428  -16.0261    8.8725 C.3       4 GLY6        0.0000 
     27 CA          4.2959  -16.2445    9.8143 C.3       4 GLY6        0.0000 
     28 CA         12.2055  -16.1343    2.7484 C.3       4 GLY6        0.0000 
     29 CA         11.0586  -16.3527    3.6902 C.3       4 GLY6        0.0000 
     30 CA          9.9118  -16.5711    4.6320 C.3       4 GLY6        0.0000 
     31 DU          8.7649  -16.7895    5.5739 H         5 CUB7        0.0000 
     32 DU          6.4712  -17.2262    7.4575 H         5 CUB7        0.0000 
     33 CA          5.3243  -17.4446    8.3993 C.3       4 GLY6        0.0000 
     34 CA          4.1775  -17.6630    9.3412 C.3       4 GLY6        0.0000 
     35 DU          8.6465  -18.2080    5.1007 H         5 CUB7        0.0000 
     36 DU          6.3528  -18.6447    6.9844 H         5 CUB7        0.0000 
     37 CZ         11.2267  -12.7517    7.1188 C.ar      3 PHE5        0.0000 
     38 CZ         10.0798  -12.9701    8.0606 C.ar      3 PHE5        0.0000 
     39 CZ          8.9329  -13.1885    9.0024 C.ar      3 PHE5        0.0000 
     40 CZ         12.2551  -13.9519    5.7038 C.ar      3 PHE5        0.0000 
     41 CZ         11.1082  -14.1702    6.6456 C.ar      3 PHE5        0.0000 
     42 DU          9.9613  -14.3886    7.5874 H         5 CUB7        0.0000 
     43 DU          8.8145  -14.6070    8.5293 H         5 CUB7        0.0000 
     44 CZ          7.6676  -14.8254    9.4711 C.ar      3 PHE5        0.0000 
     45 CZ         13.2835  -15.1520    4.2888 C.ar      3 PHE5        0.0000 
     46 CZ         12.1366  -15.3703    5.2307 C.ar      3 PHE5        0.0000 
     47 DU         10.9898  -15.5887    6.1725 H         5 CUB7        0.0000 
     48 DU          8.6960  -16.0255    8.0561 H         5 CUB7        0.0000 
     49 DU          7.5492  -16.2439    8.9979 H         5 CUB7        0.0000 
     50 CZ          6.4023  -16.4622    9.9398 C.ar      3 PHE5        0.0000 
     51 CA          5.2555  -16.6806   10.8816 C.3       4 GLY6        0.0000 
     52 OG         13.1650  -16.5704    3.8157 O.2       1 SER1        0.0000 
     53 DU         12.0182  -16.7888    4.7575 H         5 CUB7        0.0000 
     54 DU         10.8713  -17.0072    5.6993 H         5 CUB7        0.0000 
     55 DU          7.4307  -17.6623    8.5248 H         5 CUB7        0.0000 
     56 N           6.2839  -17.8807    9.4666 N.2       2 ALA2        0.0000 
     57 CA          5.1370  -18.0991   10.4084 C.3       4 GLY6        0.0000 
     58 DU         10.7528  -18.4257    5.2262 H         5 CUB7        0.0000 
     59 DU          8.4591  -18.8625    7.1098 H         5 CUB7        0.0000 
     60 N           7.3123  -19.0808    8.0517 N.2       2 ALA2        0.0000 
     61 CZ         12.1862  -13.1879    8.1861 C.ar      3 PHE5        0.0000 
     62 CZ         11.0393  -13.4062    9.1279 C.ar      3 PHE5        0.0000 
     63 CZ          9.8925  -13.6246   10.0697 C.ar      3 PHE5        0.0000 
     64 CZ         12.0677  -14.6064    7.7129 C.ar      3 PHE5        0.0000 
     65 DU         10.9209  -14.8247    8.6547 H         5 CUB7        0.0000 
     66 DU          9.7740  -15.0431    9.5966 H         5 CUB7        0.0000 
     67 CZ          8.6272  -15.2615   10.5384 C.ar      3 PHE5        0.0000 
     68 CZ         14.2430  -15.5881    5.3561 C.ar      3 PHE5        0.0000 
     69 CZ         13.0961  -15.8065    6.2979 C.ar      3 PHE5        0.0000 
     70 DU         11.9493  -16.0248    7.2398 H         5 CUB7        0.0000 
     71 N          10.8024  -16.2432    8.1816 N.2       2 ALA2        0.0000 
     72 N           9.6556  -16.4616    9.1234 N.2       2 ALA2        0.0000 
     73 DU          8.5087  -16.6800   10.0652 H         5 CUB7        0.0000 
     74 CA          7.3618  -16.8984   11.0071 C.3       4 GLY6        0.0000 
     75 DU         12.9777  -17.2250    5.8248 H         5 CUB7        0.0000 
     76 DU         11.8308  -17.4433    6.7666 H         5 CUB7        0.0000 
     77 N          10.6840  -17.6617    7.7085 N.2       2 ALA2        0.0000 
     78 N           9.5371  -17.8801    8.6503 N.2       2 ALA2        0.0000 
     79 N           8.3903  -18.0985    9.5921 N.2       2 ALA2        0.0000 
     80 N           7.2434  -18.3168   10.5339 N.2       2 ALA2        0.0000 
     81 DU         11.7124  -18.8618    6.2935 H         5 CUB7        0.0000 
     82 DU         10.5655  -19.0802    7.2353 H         5 CUB7        0.0000 
     83 OG          9.4187  -19.2986    8.1771 O.2       1 SER1        0.0000 
     84 N           8.2718  -19.5170    9.1190 N.2       2 ALA2        0.0000 
     85 OG          9.3002  -20.7171    7.7040 O.2       1 SER1        0.0000 
     86 OG          8.1534  -20.9354    8.6458 O.2       1 SER1        0.0000 
     87 OG         13.1457  -13.6240    9.2533 O.2       1 SER1        0.0000 
     88 CA         11.9988  -13.8424   10.1952 C.3       4 GLY6        0.0000 
     89 CZ         14.1741  -14.8241    7.8384 C.ar      3 PHE5        0.0000 
     90 N          13.0273  -15.0425    8.7802 N.2       2 ALA2        0.0000 
     91 N          11.8804  -15.2609    9.7220 N.2       2 ALA2        0.0000 
     92 CA         10.7335  -15.4792   10.6638 C.3       4 GLY6        0.0000 
     93 CA          9.5867  -15.6976   11.6057 C.3       4 GLY6        0.0000 
     94 N          14.0557  -16.2426    7.3652 N.2       2 ALA2        0.0000 
     95 N          12.9088  -16.4610    8.3071 N.2       2 ALA2        0.0000 
     96 N          10.6151  -16.8977   10.1907 N.2       2 ALA2        0.0000 
     97 N           9.4682  -17.1161   11.1325 N.2       2 ALA2        0.0000 
     98 N           8.3214  -17.3345   12.0743 N.2       2 ALA2        0.0000 
     99 N          10.4966  -18.3162    9.7176 N.2       2 ALA2        0.0000 
    100 N           9.3498  -18.5346   10.6594 N.2       2 ALA2        0.0000 
    101 CA          8.2029  -18.7530   11.6012 C.3       4 GLY6        0.0000 
    102 N          11.5250  -19.5163    8.3026 N.2       2 ALA2        0.0000 
    103 OG         10.3782  -19.7347    9.2444 O.2       1 SER1        0.0000 
    104 OG          9.2313  -19.9531   10.1862 O.2       1 SER1        0.0000 
    105 N          13.9868  -15.4786    9.8475 N.2       2 ALA2        0.0000 
    106 N          12.8399  -15.6970   10.7893 N.2       2 ALA2        0.0000 
    107 CA         11.6931  -15.9154   11.7311 C.3       4 GLY6        0.0000 
    108 N          10.4278  -17.5522   12.1998 N.2       2 ALA2        0.0000 
    109 CA          9.2809  -17.7706   13.1416 C.3       4 GLY6        0.0000 
    110 N          10.3093  -18.9707   11.7267 N.2       2 ALA2        0.0000 
@<TRIPOS>BOND
@<TRIPOS>SUBSTRUCTURE
     1 SER1       52 GROUP   
     2 ALA2        1 GROUP   
     3 PHE5       12 GROUP   
     4 GLY6        3 GROUP   
     5 CUB7        8 GROUP   
@<TRIPOS>SET

