#    Name: 4i0z_1BB_1_INTS_M
#    Modification time : Tue Mar 25 02:10:20 2014

@<TRIPOS>MOLECULE
4i0z_1BB_1_INTS_M
   62     0     9     0     0
SMALL
NO_CHARGES


@<TRIPOS>ATOM
      1 CA          9.4820  -11.2940    2.6200 C.3       3 GLC5        0.0000 
      2 CA          9.6970  -11.8940    4.2690 C.3       9 GLL5        0.0000 
      3 CA          9.2670  -10.6940    0.9710 C.3       6 GLP5        0.0000 
      4 CA          9.4950  -10.9625    5.9540 C.3       3 GLC5        0.0000 
      5 CA          9.2930  -10.0310    7.6390 C.3       6 GLP5        0.0000 
      6 CA         13.3805  -13.2275    7.3340 C.3       3 GLC5        0.0000 
      7 CA         12.2140  -14.1390    8.2860 C.3       9 GLL5        0.0000 
      8 CA         14.5470  -12.3160    6.3820 C.3       6 GLP5        0.0000 
      9 O          12.1795  -17.2575    9.7700 O.2       1 ALC1        0.0000 
     10 O          11.4390  -16.2990    8.9650 O.2       7 ALL1        0.0000 
     11 O          12.9200  -18.2160   10.5750 O.2       4 ALP1        0.0000 
     12 CA         12.4405  -19.8800    9.2595 C.3       3 GLC5        0.0000 
     13 CA         10.9150  -18.9600    8.1250 C.3       9 GLL5        0.0000 
     14 CA         13.9660  -20.8000   10.3940 C.3       6 GLP5        0.0000 
     15 CA          9.8135  -21.5960    9.4465 C.3       3 GLC5        0.0000 
     16 CA          9.5850  -19.4920    8.7820 C.3       9 GLL5        0.0000 
     17 CA         10.0420  -23.7000   10.1110 C.3       6 GLP5        0.0000 
     18 CA         12.9425  -13.0380   11.3430 C.3       3 GLC5        0.0000 
     19 CA         12.8240  -14.9370   10.5270 C.3       9 GLL5        0.0000 
     20 CA         13.0610  -11.1390   12.1590 C.3       6 GLP5        0.0000 
     21 CA         13.4425  -16.3195   11.5960 C.3       3 GLC5        0.0000 
     22 CA         14.0610  -17.7020   12.6650 C.3       6 GLP5        0.0000 
     23 CA         10.3095  -12.1775    9.3540 C.3       3 GLC5        0.0000 
     24 CA         10.3870  -14.2890   10.0350 C.3       9 GLL5        0.0000 
     25 CA         10.2320  -10.0660    8.6730 C.3       6 GLP5        0.0000 
     26 CA          8.6135  -13.7535   10.8885 C.3       3 GLC5        0.0000 
     27 CA          6.8400  -13.2180   11.7420 C.3       6 GLP5        0.0000 
     28 N          11.9210  -21.8340    8.9630 N.am      2 SEC2        0.0000 
     29 N          11.6830  -21.2180    7.6350 N.am      8 SEL2        0.0000 
     30 N          12.1590  -22.4500   10.2910 N.am      5 SEP2        0.0000 
     31 N          12.4295  -24.3025    8.2870 N.am      2 SEC2        0.0000 
     32 N          12.2140  -23.3860    7.1930 N.am      8 SEL2        0.0000 
     33 N          12.6450  -25.2190    9.3810 N.am      5 SEP2        0.0000 
     34 N          14.0775  -23.6545    3.7950 N.am      2 SEC2        0.0000 
     35 N          12.3580  -23.8810    3.7430 N.am      8 SEL2        0.0000 
     36 N          15.7970  -23.4280    3.8470 N.am      5 SEP2        0.0000 
     37 N          13.0700  -25.2630    3.7195 N.am      2 SEC2        0.0000 
     38 N          13.7820  -26.6450    3.6960 N.am      5 SEP2        0.0000 
     39 CA          9.8688  -13.9582    3.1105 C.3       3 GLC5        0.0000 
     40 CA          9.8510  -15.3210    1.4450 C.3       6 GLP5        0.0000 
     41 CA         11.8634  -12.4139    4.1590 C.3       3 GLC5        0.0000 
     42 CA         10.0760  -13.2970    5.2830 C.3       9 GLL5        0.0000 
     43 CA         13.2680  -11.9710    2.7670 C.3       6 GLP5        0.0000 
     44 CA          9.6643  -15.1565    3.4328 C.3       3 GLC5        0.0000 
     45 CA          9.3590  -14.4640    4.9890 C.3       9 GLL5        0.0000 
     46 CA         10.9569  -14.3296   11.7816 C.3       3 GLC5        0.0000 
     47 CA         10.5930  -14.0470   13.5460 C.3       6 GLP5        0.0000 
     48 CA         13.8567  -23.0127    5.1230 C.3       3 GLC5        0.0000 
     49 CA         11.8780  -22.0330    5.3250 C.3       9 GLL5        0.0000 
     50 CA         15.7030  -23.5110    5.3370 C.3       6 GLP5        0.0000 
     51 CA          7.6060  -18.8488   11.6613 C.3       3 GLC5        0.0000 
     52 CA          9.1100  -18.5280    9.8990 C.3       9 GLL5        0.0000 
     53 CA          5.7520  -19.1510   12.8170 C.3       6 GLP5        0.0000 
     54 CA          7.3665  -18.2090   12.4808 C.3       3 GLC5        0.0000 
     55 CA          9.5350  -17.7190   12.2230 C.3       9 GLL5        0.0000 
     56 CA          9.2930  -16.3650   13.6973 C.3       3 GLC5        0.0000 
     57 CA          8.4270  -16.8150   12.0660 C.3       9 GLL5        0.0000 
     58 CA          9.6050  -15.4630   15.2500 C.3       6 GLP5        0.0000 
     59 CA          8.8329  -18.3032   13.5999 C.3       3 GLC5        0.0000 
     60 CA          8.6160  -19.1280   15.3330 C.3       6 GLP5        0.0000 
     61 CA          6.8085  -18.1777   11.5510 C.3       3 GLC5        0.0000 
     62 CA          7.7080  -16.7850   10.8450 C.3       9 GLL5        0.0000 
@<TRIPOS>BOND
@<TRIPOS>SUBSTRUCTURE
     1 ALC1        9 GROUP        1 X    ALC  0     ROOT ALC X 1
     2 SEC2       28 GROUP        1 X    SEC  0     **** SEC X 2
     3 GLC5        1 GROUP        1 X    GLC  0     **** GLC X 6
     4 ALP1       11 GROUP        1 Y    ALP  0     ROOT ALP Y 8
     5 SEP2       30 GROUP        1 Y    SEP  0     **** SEP Y 9
     6 GLP5        3 GROUP        1 Y    GLP  0     **** GLP Y 13
     7 ALL1       10 GROUP        1 Z    ALL  0     ROOT ALL Z 15
     8 SEL2       29 GROUP        1 Z    SEL  0     **** SEL Z 16
     9 GLL5        2 GROUP        1 Z    GLL  0     **** GLL Z 20
@<TRIPOS>SET

