#    Name: 4i0z_1BB_1_ligand
#    Modification time : Tue Mar 25 02:10:20 2014

@<TRIPOS>MOLECULE
4i0z_1BB_1_ligand
   54    57     1     0     0
SMALL
NO_CHARGES


@<TRIPOS>ATOM
      1 CL1         9.6970  -11.8940    4.2690 Cl        1 1BB501      0.0000 
      2 C1         10.0760  -13.2970    5.2830 C.ar      1 1BB501      0.0000 
      3 C2         11.0310  -13.1180    6.3260 C.ar      1 1BB501      0.0000 
      4 C3         11.2370  -14.1990    7.1450 C.ar      1 1BB501      0.0000 
      5 C4         10.5660  -15.3790    6.8830 C.ar      1 1BB501      0.0000 
      6 C5          9.5960  -15.5200    5.8520 C.ar      1 1BB501      0.0000 
      7 C6          9.3590  -14.4640    4.9890 C.ar      1 1BB501      0.0000 
      8 C9         12.2140  -14.1390    8.2860 C.3       1 1BB501      0.0000 
      9 C10        11.6850  -14.9340    9.4720 C.3       1 1BB501      0.0000 
     10 N11        11.4390  -16.2990    8.9650 N.pl3     1 1BB501      0.0000 
     11 C12        10.9000  -16.5170    7.7940 C.2       1 1BB501      0.0000 
     12 N13        10.6340  -17.7530    7.3220 N.pl3     1 1BB501      0.0000 
     13 C14        10.9150  -18.9600    8.1250 C.3       1 1BB501      0.0000 
     14 C15         9.5850  -19.4920    8.7820 C.3       1 1BB501      0.0000 
     15 C27        12.8240  -14.9370   10.5270 C.3       1 1BB501      0.0000 
     16 C28        10.3870  -14.2890   10.0350 C.3       1 1BB501      0.0000 
     17 C7         11.3690  -20.0000    7.1650 C.2       1 1BB501      0.0000 
     18 N8         11.2760  -19.7740    5.8020 N.pl3     1 1BB501      0.0000 
     19 C11        11.5740  -20.7400    4.9000 C.2       1 1BB501      0.0000 
     20 C13        11.8780  -22.0330    5.3250 C.2       1 1BB501      0.0000 
     21 C19        11.9510  -22.2580    6.7810 C.2       1 1BB501      0.0000 
     22 N24        11.6830  -21.2180    7.6350 N.2       1 1BB501      0.0000 
     23 O25        12.2140  -23.3860    7.1930 O.2       1 1BB501      0.0000 
     24 C26         9.1100  -18.5280    9.8990 C.ar      1 1BB501      0.0000 
     25 C29         9.8100  -18.5650   11.1120 C.ar      1 1BB501      0.0000 
     26 C30         9.5350  -17.7190   12.2230 C.ar      1 1BB501      0.0000 
     27 C31         8.4270  -16.8150   12.0660 C.ar      1 1BB501      0.0000 
     28 C32         7.7080  -16.7850   10.8450 C.ar      1 1BB501      0.0000 
     29 C33         8.0220  -17.6240    9.7250 C.ar      1 1BB501      0.0000 
     30 C8         12.1430  -22.9960    4.4930 C.1       1 1BB501      0.0000 
     31 N9         12.3580  -23.8810    3.7430 N.1       1 1BB501      0.0000 
     32 H          11.5077  -12.2476    6.4323 H         1 1BB501      0.0000 
     33 H           9.0874  -16.4007    5.7635 H         1 1BB501      0.0000 
     34 H           8.7340  -14.5206    4.2225 H         1 1BB501      0.0000 
     35 H          12.3640  -13.1039    8.5901 H         1 1BB501      0.0000 
     36 H          13.1707  -14.5571    7.9758 H         1 1BB501      0.0000 
     37 H          11.7292  -17.0640    9.6146 H         1 1BB501      0.0000 
     38 H          10.2259  -17.9157    6.3879 H         1 1BB501      0.0000 
     39 H          11.6224  -18.7929    8.8643 H         1 1BB501      0.0000 
     40 H           9.7776  -20.4666    9.2042 H         1 1BB501      0.0000 
     41 H           8.8273  -19.5581    8.0161 H         1 1BB501      0.0000 
     42 H          10.9668  -18.8297    5.4736 H         1 1BB501      0.0000 
     43 H          11.5808  -20.5346    3.8841 H         1 1BB501      0.0000 
     44 H          10.5920  -19.2609   11.2174 H         1 1BB501      0.0000 
     45 H          10.0668  -17.7452   13.0526 H         1 1BB501      0.0000 
     46 H           8.1681  -16.2037   12.8337 H         1 1BB501      0.0000 
     47 H           6.9107  -16.1231   10.7494 H         1 1BB501      0.0000 
     48 H           7.5095  -17.5747    8.8809 H         1 1BB501      0.0000 
     49 H          13.6588  -15.3571   10.1711 H         1 1BB501      0.0000 
     50 H          13.0632  -14.0106   10.8180 H         1 1BB501      0.0000 
     51 H          12.5675  -15.4454   11.3490 H         1 1BB501      0.0000 
     52 H          10.5418  -13.3499   10.3418 H         1 1BB501      0.0000 
     53 H           9.6603  -14.2571    9.3488 H         1 1BB501      0.0000 
     54 H          10.0288  -14.7978   10.8178 H         1 1BB501      0.0000 
@<TRIPOS>BOND
     1    2    1 1    
     2    3    2 ar   
     3    7    2 ar   
     4    4    3 ar   
     5   32    3 1    
     6    5    4 ar   
     7    8    4 1    
     8    6    5 ar   
     9   11    5 1    
    10    7    6 ar   
    11   33    6 1    
    12   34    7 1    
    13    9    8 1    
    14   35    8 1    
    15   36    8 1    
    16   10    9 1    
    17   15    9 1    
    18   16    9 1    
    19   11   10 1    
    20   37   10 1    
    21   12   11 2    
    22   13   12 1    
    23   38   12 1    
    24   14   13 1    
    25   17   13 1    
    26   39   13 1    
    27   24   14 1    
    28   40   14 1    
    29   41   14 1    
    30   49   15 1    
    31   50   15 1    
    32   51   15 1    
    33   52   16 1    
    34   53   16 1    
    35   54   16 1    
    36   18   17 1    
    37   22   17 2    
    38   19   18 1    
    39   42   18 1    
    40   20   19 2    
    41   43   19 1    
    42   21   20 1    
    43   30   20 1    
    44   22   21 1    
    45   23   21 2    
    46   25   24 ar   
    47   29   24 ar   
    48   26   25 ar   
    49   44   25 1    
    50   27   26 ar   
    51   45   26 1    
    52   28   27 ar   
    53   46   27 1    
    54   29   28 ar   
    55   47   28 1    
    56   48   29 1    
    57   31   30 3    
@<TRIPOS>SUBSTRUCTURE
     1 1BB501      1 GROUP   
@<TRIPOS>SET

