#    Name: 4ITH_1_CAVITY_N1_6.mol2
#    Modification time : Tue Mar 11 06:30:35 2014

@<TRIPOS>MOLECULE
4ITH_1_CAVITY_N1_6.mol2
   43     0     5     0     0
SMALL
NO_CHARGES


@<TRIPOS>ATOM
      1 CA        -27.5032    2.8877   10.0960 C.3       4 GLY6        0.0000 
      2 CA        -27.9354    2.5126   11.4826 C.3       4 GLY6        0.0000 
      3 N         -28.3675    2.1376   12.8692 N.2       2 ALA2        0.0000 
      4 CA        -28.7997    1.7626   14.2557 C.3       4 GLY6        0.0000 
      5 CA        -28.5781    2.0116    9.5240 C.3       4 GLY6        0.0000 
      6 CA        -29.0103    1.6366   10.9106 C.3       4 GLY6        0.0000 
      7 CA        -29.4424    1.2615   12.2972 C.3       4 GLY6        0.0000 
      8 OG        -30.0851    0.7605   10.3387 O.2       1 SER1        0.0000 
      9 CA        -30.5173    0.3855   11.7252 C.3       4 GLY6        0.0000 
     10 O         -25.9077    2.2303   12.0382 O.2       2 ALA2        0.0000 
     11 N         -26.3398    1.8553   13.4248 N.2       2 ALA2        0.0000 
     12 O         -26.9826    1.3542   11.4662 O.2       2 ALA2        0.0000 
     13 CA        -27.4147    0.9792   12.8528 C.3       4 GLY6        0.0000 
     14 CA        -28.0574    0.4782   10.8943 C.3       4 GLY6        0.0000 
     15 CA        -28.4896    0.1032   12.2809 C.3       4 GLY6        0.0000 
     16 CA        -28.9218   -0.2719   13.6674 C.3       4 GLY6        0.0000 
     17 OG        -29.1323   -0.3979   10.3223 O.2       1 SER1        0.0000 
     18 CA        -29.5645   -0.7729   11.7089 C.3       4 GLY6        0.0000 
     19 CA        -27.1046   -0.6802   10.8779 C.3       4 GLY6        0.0000 
     20 CA        -27.5368   -1.0552   12.2645 C.3       4 GLY6        0.0000 
     21 CA        -28.1795   -1.5563   10.3060 C.3       4 GLY6        0.0000 
     22 CA        -28.6117   -1.9313   11.6926 C.3       4 GLY6        0.0000 
     23 CA        -28.3340    6.0805   10.7006 C.3       4 GLY6        0.0000 
     24 CA        -28.7661    5.7055   12.0872 C.3       4 GLY6        0.0000 
     25 O         -29.1983    5.3305   13.4738 O.2       2 ALA2        0.0000 
     26 CZ        -29.4088    5.2044   10.1287 C.ar      3 PHE5        0.0000 
     27 CA        -29.8410    4.8294   11.5153 C.3       4 GLY6        0.0000 
     28 N         -30.2732    4.4544   12.9018 N.2       2 ALA2        0.0000 
     29 CA        -26.7384    5.4231   12.6428 C.3       4 GLY6        0.0000 
     30 CA        -26.9490    5.2971    9.2977 C.3       4 GLY6        0.0000 
     31 CA        -27.3811    4.9221   10.6843 C.3       4 GLY6        0.0000 
     32 N         -27.8133    4.5471   12.0709 N.2       2 ALA2        0.0000 
     33 N         -28.2454    4.1721   13.4575 N.2       2 ALA2        0.0000 
     34 CZ        -28.0239    4.4211    8.7258 C.ar      3 PHE5        0.0000 
     35 CZ        -28.4560    4.0461   10.1123 C.ar      3 PHE5        0.0000 
     36 DU        -28.8882    3.6710   11.4989 H         5 CUB7        0.0000 
     37 N         -29.3203    3.2960   12.8855 N.2       2 ALA2        0.0000 
     38 CA        -29.9631    2.7950   10.9270 C.3       4 GLY6        0.0000 
     39 CA        -30.3952    2.4199   12.3135 C.3       4 GLY6        0.0000 
     40 CA        -25.3534    4.6398   11.2399 C.3       4 GLY6        0.0000 
     41 N         -25.7856    4.2647   12.6265 N.2       2 ALA2        0.0000 
     42 O         -26.4283    3.7637   10.6680 O.2       2 ALA2        0.0000 
     43 N         -26.8605    3.3887   12.0545 N.2       2 ALA2        0.0000 
@<TRIPOS>BOND
@<TRIPOS>SUBSTRUCTURE
     1 SER1        8 GROUP   
     2 ALA2        3 GROUP   
     3 PHE5       26 GROUP   
     4 GLY6        1 GROUP   
     5 CUB7       36 GROUP   
@<TRIPOS>SET

