#    Name: 4ith_RCM_1_INTS_M
#    Modification time : Tue Mar 25 04:34:00 2014

@<TRIPOS>MOLECULE
4ith_RCM_1_INTS_M
   51     0     9     0     0
SMALL
NO_CHARGES


@<TRIPOS>ATOM
      1 N         -24.5995    2.3360   10.4725 N.am      2 SEC2        0.0000 
      2 N         -24.8020    3.7240   11.0110 N.am      8 SEL2        0.0000 
      3 N         -24.3970    0.9480    9.9340 N.am      5 SEP2        0.0000 
      4 CA        -26.0755    6.3740    9.7610 C.3       3 GLC5        0.0000 
      5 CA        -26.7520    4.6130    8.9670 C.3       9 GLL5        0.0000 
      6 CA        -25.3990    8.1350   10.5550 C.3       6 GLP5        0.0000 
      7 CA        -26.5495    2.4955    8.7565 C.3       3 GLC5        0.0000 
      8 CA        -26.3470    0.3780    8.5460 C.3       6 GLP5        0.0000 
      9 CA        -26.8905    4.8620    7.1190 C.3       3 GLC5        0.0000 
     10 CA        -27.0290    5.1110    5.2710 C.3       6 GLP5        0.0000 
     11 CA        -28.4015    4.1075    8.2110 C.3       3 GLC5        0.0000 
     12 CA        -30.0510    3.6020    7.4550 C.3       6 GLP5        0.0000 
     13 O         -26.6095    3.9060   13.9955 O.2       1 ALC1        0.0000 
     14 O         -26.5890    4.0360   12.6170 O.2       7 ALL1        0.0000 
     15 O         -26.6300    3.7760   15.3740 O.2       4 ALP1        0.0000 
     16 CA        -26.4765    6.1390   12.3495 C.3       3 GLC5        0.0000 
     17 CA        -27.8950    4.7710   12.5030 C.3       9 GLL5        0.0000 
     18 CA        -25.0580    7.5070   12.1960 C.3       6 GLP5        0.0000 
     19 O         -30.3065    0.6260    9.1815 O.2       1 ALC1        0.0000 
     20 O         -29.9500    1.2380   10.4550 O.2       7 ALL1        0.0000 
     21 O         -30.6630    0.0140    7.9080 O.2       4 ALP1        0.0000 
     22 CA        -30.7245   -2.3075   10.5895 C.3       3 GLC5        0.0000 
     23 CA        -28.8390   -1.6300   10.2230 C.3       9 GLL5        0.0000 
     24 CA        -32.6100   -2.9850   10.9560 C.3       6 GLP5        0.0000 
     25 CA        -29.8595   -1.4760    8.8505 C.3       3 GLC5        0.0000 
     26 CA        -30.8800   -1.3220    7.4780 C.3       6 GLP5        0.0000 
     27 CA        -29.2275    6.1885   13.0933 C.3       3 GLC5        0.0000 
     28 CA        -29.9780    8.0400   13.5050 C.3       6 GLP5        0.0000 
     29 CA        -31.1932    3.2535   10.8247 C.3       3 GLC5        0.0000 
     30 CA        -29.1930    2.6680   12.0230 C.3       9 GLL5        0.0000 
     31 CA        -32.7530    3.9280   10.1580 C.3       6 GLP5        0.0000 
     32 CA        -30.4582    0.9238   12.6692 C.3       3 GLC5        0.0000 
     33 CA        -28.9570    0.6290   11.2630 C.3       9 GLL5        0.0000 
     34 CA        -32.1850    0.7840   13.5970 C.3       6 GLP5        0.0000 
     35 CA        -27.5393    0.7208   10.1437 C.3       3 GLC5        0.0000 
     36 CA        -30.8925    1.8359   12.6489 C.3       3 GLC5        0.0000 
     37 CA        -30.0740    2.4900   10.9600 C.3       9 GLL5        0.0000 
     38 CA        -27.0551   -2.4394   10.6945 C.3       3 GLC5        0.0000 
     39 CA        -28.4080   -0.6350   11.2290 C.3       9 GLL5        0.0000 
     40 CA        -26.0840   -3.8260    9.9490 C.3       6 GLP5        0.0000 
     41 CA        -25.8068   -1.9160   13.0545 C.3       3 GLC5        0.0000 
     42 CA        -27.4290   -0.9730   12.1540 C.3       9 GLL5        0.0000 
     43 CA        -24.3950   -3.3140   13.4800 C.3       6 GLP5        0.0000 
     44 CA        -27.1866   -0.3374    9.9930 C.3       3 GLC5        0.0000 
     45 CA        -27.5360    0.6630   14.8997 C.3       3 GLC5        0.0000 
     46 CA        -27.0080   -0.0630   13.1040 C.3       9 GLL5        0.0000 
     47 CA        -27.7970    0.7600   16.6730 C.3       6 GLP5        0.0000 
     48 CA        -27.8521   -2.0862   13.3469 C.3       3 GLC5        0.0000 
     49 CA        -28.2410   -3.7390   14.2960 C.3       6 GLP5        0.0000 
     50 CA        -25.3336    0.4527   12.4650 C.3       3 GLC5        0.0000 
     51 CA        -23.2870    0.5670   12.0410 C.3       6 GLP5        0.0000 
@<TRIPOS>BOND
@<TRIPOS>SUBSTRUCTURE
     1 ALC1       13 GROUP        1 X    ALC  0     ROOT ALC X 1
     2 SEC2        1 GROUP        1 X    SEC  0     **** SEC X 2
     3 GLC5        4 GROUP        1 X    GLC  0     **** GLC X 6
     4 ALP1       15 GROUP        1 Y    ALP  0     ROOT ALP Y 8
     5 SEP2        3 GROUP        1 Y    SEP  0     **** SEP Y 9
     6 GLP5        6 GROUP        1 Y    GLP  0     **** GLP Y 13
     7 ALL1       14 GROUP        1 Z    ALL  0     ROOT ALL Z 15
     8 SEL2        2 GROUP        1 Z    SEL  0     **** SEL Z 16
     9 GLL5        5 GROUP        1 Z    GLL  0     **** GLL Z 20
@<TRIPOS>SET

