#    Name: 4ith_RCM_1_ligand
#    Modification time : Tue Mar 25 04:34:00 2014

@<TRIPOS>MOLECULE
4ith_RCM_1_ligand
   31    33     1     0     0
SMALL
NO_CHARGES


@<TRIPOS>ATOM
      1 O2        -24.8020    3.7240   11.0110 O.2       1 RCM307      0.0000 
      2 C14       -25.9470    4.2550   11.3020 C.2       1 RCM307      0.0000 
      3 N3        -26.7120    5.1270   10.3800 N.am      1 RCM307      0.0000 
      4 C17       -26.7520    4.6130    8.9670 C.3       1 RCM307      0.0000 
      5 C12       -27.9970    5.2140   11.1050 C.2       1 RCM307      0.0000 
      6 O1        -29.1130    5.6800   10.6440 O.2       1 RCM307      0.0000 
      7 N2        -26.5890    4.0360   12.6170 N.am      1 RCM307      0.0000 
      8 C11       -27.8950    4.7710   12.5030 C.3       1 RCM307      0.0000 
      9 C10       -29.0590    3.9030   12.8600 C.3       1 RCM307      0.0000 
     10 C7        -29.1930    2.6680   12.0230 C.2       1 RCM307      0.0000 
     11 C2        -28.5060    1.4980   12.2200 C.ar      1 RCM307      0.0000 
     12 C8        -30.0740    2.4900   10.9600 C.2       1 RCM307      0.0000 
     13 N1        -29.9500    1.2380   10.4550 N.pl3     1 RCM307      0.0000 
     14 C3        -28.9570    0.6290   11.2630 C.ar      1 RCM307      0.0000 
     15 C4        -28.4080   -0.6350   11.2290 C.ar      1 RCM307      0.0000 
     16 CL1       -28.8390   -1.6300   10.2230 Cl        1 RCM307      0.0000 
     17 C5        -27.4290   -0.9730   12.1540 C.ar      1 RCM307      0.0000 
     18 C6        -27.0080   -0.0630   13.1040 C.ar      1 RCM307      0.0000 
     19 C1        -27.5420    1.1950   13.1490 C.ar      1 RCM307      0.0000 
     20 H         -26.2898    3.5859   13.3088 H         1 RCM307      0.0000 
     21 H         -27.8642    5.6315   13.1476 H         1 RCM307      0.0000 
     22 H         -29.9947    4.4978   12.7802 H         1 RCM307      0.0000 
     23 H         -28.9796    3.6090   13.9290 H         1 RCM307      0.0000 
     24 H         -30.6799    3.1744   10.6424 H         1 RCM307      0.0000 
     25 H         -30.3928    0.8368    9.7481 H         1 RCM307      0.0000 
     26 H         -27.0110   -1.9206   12.1286 H         1 RCM307      0.0000 
     27 H         -26.2787   -0.3428   13.7879 H         1 RCM307      0.0000 
     28 H         -27.2405    1.8766   13.8381 H         1 RCM307      0.0000 
     29 H         -25.8354    4.5307    8.5757 H         1 RCM307      0.0000 
     30 H         -27.1763    3.7091    8.9125 H         1 RCM307      0.0000 
     31 H         -27.2739    5.2185    8.3662 H         1 RCM307      0.0000 
@<TRIPOS>BOND
     1    2    1 2    
     2    3    2 am   
     3    7    2 am   
     4    4    3 1    
     5    5    3 am   
     6   29    4 1    
     7   30    4 1    
     8   31    4 1    
     9    6    5 2    
    10    8    5 1    
    11    8    7 1    
    12   20    7 1    
    13    9    8 1    
    14   21    8 1    
    15   10    9 1    
    16   22    9 1    
    17   23    9 1    
    18   11   10 1    
    19   12   10 2    
    20   14   11 ar   
    21   19   11 ar   
    22   13   12 1    
    23   24   12 1    
    24   14   13 1    
    25   25   13 1    
    26   15   14 ar   
    27   16   15 1    
    28   17   15 ar   
    29   18   17 ar   
    30   26   17 1    
    31   19   18 ar   
    32   27   18 1    
    33   28   19 1    
@<TRIPOS>SUBSTRUCTURE
     1 RCM307      1 GROUP   
@<TRIPOS>SET

