#    Name: 3fr0_AJB_1_INTS_M
#    Modification time : Tue Mar 25 06:17:51 2014

@<TRIPOS>MOLECULE
3fr0_AJB_1_INTS_M
   52     0     9     0     0
SMALL
NO_CHARGES


@<TRIPOS>ATOM
      1 CA         34.6630   21.5995   60.8840 C.3       3 GLC5        0.0000 
      2 CA         35.7760   20.0650   59.7670 C.3       9 GLL5        0.0000 
      3 CA         33.5500   23.1340   62.0010 C.3       6 GLP5        0.0000 
      4 CA         35.9385   17.4990   58.8660 C.3       3 GLC5        0.0000 
      5 CA         36.5390   19.5590   58.7390 C.3       9 GLL5        0.0000 
      6 CA         35.3380   15.4390   58.9930 C.3       6 GLP5        0.0000 
      7 CA         37.6885   18.1250   57.4460 C.3       3 GLC5        0.0000 
      8 CA         38.8380   16.6910   56.1530 C.3       6 GLP5        0.0000 
      9 CA         36.9140   18.8135   55.8550 C.3       3 GLC5        0.0000 
     10 CA         36.2780   19.7340   57.3050 C.3       9 GLL5        0.0000 
     11 CA         37.5500   17.8930   54.4050 C.3       6 GLP5        0.0000 
     12 CA         40.2275   10.5390   63.1440 C.3       3 GLC5        0.0000 
     13 CA         42.2310   10.8640   62.9820 C.3       9 GLL5        0.0000 
     14 CA         38.2240   10.2140   63.3060 C.3       6 GLP5        0.0000 
     15 CA         43.2685   11.6250   64.3565 C.3       3 GLC5        0.0000 
     16 CA         44.3060   12.3860   65.7310 C.3       6 GLP5        0.0000 
     17 CA         43.2315    9.0875   62.5425 C.3       3 GLC5        0.0000 
     18 CA         44.2320    7.3110   62.1030 C.3       6 GLP5        0.0000 
     19 CA         41.5975    9.9350   61.5635 C.3       3 GLC5        0.0000 
     20 CA         40.9640    9.0060   60.1450 C.3       6 GLP5        0.0000 
     21 O          40.9410   18.4845   65.9330 O.2       1 ALC1        0.0000 
     22 O          39.8670   18.1190   65.0650 O.2       7 ALL1        0.0000 
     23 O          42.0150   18.8500   66.8010 O.2       4 ALP1        0.0000 
     24 N          37.6130   17.3965   58.6500 N.am      2 SEC2        0.0000 
     25 N          37.6500   18.8230   59.1470 N.am      8 SEL2        0.0000 
     26 N          37.5760   15.9700   58.1530 N.am      5 SEP2        0.0000 
     27 O          39.3915   17.3145   60.2155 O.2       1 ALC1        0.0000 
     28 O          38.6660   18.1700   61.2500 O.2       7 ALL1        0.0000 
     29 O          40.1170   16.4590   59.1810 O.2       4 ALP1        0.0000 
     30 CA         35.1945   18.9290   62.5670 C.3       3 GLC5        0.0000 
     31 CA         36.4280   19.6340   61.2750 C.3       9 GLL5        0.0000 
     32 CA         33.9610   18.2240   63.8590 C.3       6 GLP5        0.0000 
     33 CA         41.5790   14.2915   59.9070 C.3       3 GLC5        0.0000 
     34 CA         40.7030   13.2730   61.6030 C.3       9 GLL5        0.0000 
     35 CA         42.4550   15.3100   58.2110 C.3       6 GLP5        0.0000 
     36 CA         39.4635   11.7435   62.4545 C.3       3 GLC5        0.0000 
     37 CA         39.1980   13.5325   63.2445 C.3       3 GLC5        0.0000 
     38 CA         37.6930   13.7920   64.8860 C.3       6 GLP5        0.0000 
     39 CA         40.4345   12.2720   60.1540 C.3       3 GLC5        0.0000 
     40 CA         40.1660   11.2710   58.7050 C.3       6 GLP5        0.0000 
     41 CA         42.2373   17.0770   63.4738 C.3       3 GLC5        0.0000 
     42 CA         41.2580   14.8830   63.8320 C.3       9 GLL5        0.0000 
     43 CA         43.3280   18.7020   62.7120 C.3       6 GLP5        0.0000 
     44 CA         37.8760   15.6150   61.9565 C.3       3 GLC5        0.0000 
     45 CA         39.4140   16.8200   63.0470 C.3       9 GLL5        0.0000 
     46 CA         36.2320   14.9690   61.2660 C.3       6 GLP5        0.0000 
     47 CA         37.5025   20.8918   61.2980 C.3       3 GLC5        0.0000 
     48 CA         38.9030   21.9340   62.0750 C.3       6 GLP5        0.0000 
     49 CA         40.9612   18.2157   62.9408 C.3       3 GLC5        0.0000 
     50 CA         42.1630   19.5200   62.2310 C.3       6 GLP5        0.0000 
     51 CA         39.0121   14.8239   64.1637 C.3       3 GLC5        0.0000 
     52 CA         39.6260   15.7020   62.2470 C.3       9 GLL5        0.0000 
@<TRIPOS>BOND
@<TRIPOS>SUBSTRUCTURE
     1 ALC1       21 GROUP        1 X    ALC  0     ROOT ALC X 1
     2 SEC2       24 GROUP        1 X    SEC  0     **** SEC X 2
     3 GLC5        1 GROUP        1 X    GLC  0     **** GLC X 6
     4 ALP1       23 GROUP        1 Y    ALP  0     ROOT ALP Y 8
     5 SEP2       26 GROUP        1 Y    SEP  0     **** SEP Y 9
     6 GLP5        3 GROUP        1 Y    GLP  0     **** GLP Y 13
     7 ALL1       22 GROUP        1 Z    ALL  0     ROOT ALL Z 15
     8 SEL2       25 GROUP        1 Z    SEL  0     **** SEL Z 16
     9 GLL5        2 GROUP        1 Z    GLL  0     **** GLL Z 20
@<TRIPOS>SET

