#    Name: 3fr0_AJB_1_ligand
#    Modification time : Tue Mar 25 06:17:51 2014

@<TRIPOS>MOLECULE
3fr0_AJB_1_ligand
   37    39     1     0     0
SMALL
NO_CHARGES


@<TRIPOS>ATOM
      1 C4         41.0350   16.0210   64.6390 C.ar      1 AJB501      0.0000 
      2 C5         39.6260   15.7020   62.2470 C.ar      1 AJB501      0.0000 
      3 C6         35.7760   20.0650   59.7670 C.2       1 AJB501      0.0000 
      4 C7         44.2660   11.9360   62.0330 C.2       1 AJB501      0.0000 
      5 C8         36.5390   19.5590   58.7390 C.2       1 AJB501      0.0000 
      6 C10        40.1050   17.0030   64.2540 C.ar      1 AJB501      0.0000 
      7 C13        42.4110   12.9830   61.6400 C.2       1 AJB501      0.0000 
      8 C1         36.2780   19.7340   57.3050 C.3       1 AJB501      0.0000 
      9 C2         42.2310   10.8640   62.9820 C.3       1 AJB501      0.0000 
     10 C3         41.2580   14.8830   63.8320 C.ar      1 AJB501      0.0000 
     11 C9         40.5390   14.7150   62.6330 C.ar      1 AJB501      0.0000 
     12 C11        39.4140   16.8200   63.0470 C.ar      1 AJB501      0.0000 
     13 C12        37.6920   18.7990   60.4710 C.2       1 AJB501      0.0000 
     14 C14        38.4480   17.8270   62.5870 C.2       1 AJB501      0.0000 
     15 N15        39.8670   18.1190   65.0650 N.pl3     1 AJB501      0.0000 
     16 N16        44.5520   13.0310   61.3350 N.2       1 AJB501      0.0000 
     17 N17        37.6500   18.8230   59.1470 N.2       1 AJB501      0.0000 
     18 N18        43.3580   13.7030   61.0870 N.2       1 AJB501      0.0000 
     19 N19        38.6660   18.1700   61.2500 N.am      1 AJB501      0.0000 
     20 N20        42.9400   11.8930   62.2500 N.pl3     1 AJB501      0.0000 
     21 O21        37.5970   18.2470   63.3640 O.2       1 AJB501      0.0000 
     22 S22        36.4280   19.6340   61.2750 S.3       1 AJB501      0.0000 
     23 S23        40.7030   13.2730   61.6030 S.3       1 AJB501      0.0000 
     24 H          41.5590   16.1295   65.5155 H         1 AJB501      0.0000 
     25 H          39.1081   15.5969   61.3623 H         1 AJB501      0.0000 
     26 H          35.0078   20.5739   59.8094 H         1 AJB501      0.0000 
     27 H          44.9055   11.2697   62.3404 H         1 AJB501      0.0000 
     28 H          41.9433   14.1812   64.1209 H         1 AJB501      0.0000 
     29 H          40.6383   18.4333   65.6184 H         1 AJB501      0.0000 
     30 H          38.9461   18.5062   65.0214 H         1 AJB501      0.0000 
     31 H          39.5892   17.9483   60.8185 H         1 AJB501      0.0000 
     32 H          36.2759   20.6991   57.0430 H         1 AJB501      0.0000 
     33 H          36.9694   19.2793   56.7435 H         1 AJB501      0.0000 
     34 H          35.3907   19.3564   57.0402 H         1 AJB501      0.0000 
     35 H          42.3495    9.9629   62.5648 H         1 AJB501      0.0000 
     36 H          42.5501   10.7937   63.9271 H         1 AJB501      0.0000 
     37 H          41.2479   11.0437   63.0172 H         1 AJB501      0.0000 
@<TRIPOS>BOND
     1    6    1 ar   
     2   10    1 ar   
     3   24    1 1    
     4   11    2 ar   
     5   12    2 ar   
     6   25    2 1    
     7    5    3 2    
     8   22    3 1    
     9   26    3 1    
    10   16    4 2    
    11   20    4 1    
    12   27    4 1    
    13    8    5 1    
    14   17    5 1    
    15   12    6 ar   
    16   15    6 1    
    17   18    7 2    
    18   20    7 1    
    19   23    7 1    
    20   32    8 1    
    21   33    8 1    
    22   34    8 1    
    23   20    9 1    
    24   35    9 1    
    25   36    9 1    
    26   37    9 1    
    27   11   10 ar   
    28   28   10 1    
    29   23   11 1    
    30   14   12 1    
    31   17   13 2    
    32   19   13 1    
    33   22   13 1    
    34   19   14 am   
    35   21   14 2    
    36   29   15 1    
    37   30   15 1    
    38   18   16 1    
    39   31   19 1    
@<TRIPOS>SUBSTRUCTURE
     1 AJB501      1 GROUP   
@<TRIPOS>SET

