#    Name: 2znk_31U_1_INTS_M
#    Modification time : Tue Mar 25 10:52:06 2014

@<TRIPOS>MOLECULE
2znk_31U_1_INTS_M
   75     0    12     0     0
SMALL
NO_CHARGES


@<TRIPOS>ATOM
      1 O          15.9375  -14.9640   24.1445 O.2       1 ALC1        0.0000 
      2 O          17.1670  -15.5630   23.5770 O.2       9 ALL1        0.0000 
      3 O          14.7080  -14.3650   24.7120 O.2       5 ALP1        0.0000 
      4 CA         18.0535  -13.2130   26.1330 C.3       4 GLC5        0.0000 
      5 CA         19.0080  -14.3400   24.7470 C.3      12 GLL5        0.0000 
      6 CA         17.0990  -12.0860   27.5190 C.3       8 GLP5        0.0000 
      7 CA         18.8690  -11.9420   24.7200 C.3       4 GLC5        0.0000 
      8 CA         20.3150  -13.4790   24.7640 C.3      12 GLL5        0.0000 
      9 CA         17.4230  -10.4050   24.6760 C.3       8 GLP5        0.0000 
     10 CA         22.3075  -12.0675   26.8865 C.3       4 GLC5        0.0000 
     11 CA         20.5960  -12.7320   26.1040 C.3      12 GLL5        0.0000 
     12 CA         24.0190  -11.4030   27.6690 C.3       8 GLP5        0.0000 
     13 CA         20.8850  -12.9865   28.2305 C.3       4 GLC5        0.0000 
     14 CA         21.1740  -13.2410   30.3570 C.3       8 GLP5        0.0000 
     15 CA         19.1555  -11.7980   26.6720 C.3       4 GLC5        0.0000 
     16 CA         17.7150  -10.8640   27.2400 C.3       8 GLP5        0.0000 
     17 N          15.8750  -12.3835   23.9710 N.am      2 SEC2        0.0000 
     18 N          16.9610  -12.9860   22.9290 N.am     10 SEL2        0.0000 
     19 N          14.7890  -11.7810   25.0130 N.am      6 SEP2        0.0000 
     20 CA         17.8855  -11.1445   22.7900 C.3       4 GLC5        0.0000 
     21 CA         18.3480  -11.8840   20.9040 C.3      12 GLL5        0.0000 
     22 CA         19.5635  -15.2065   19.4320 C.3       4 GLC5        0.0000 
     23 CA         19.7940  -13.9670   21.1270 C.3      12 GLL5        0.0000 
     24 CA         19.3330  -16.4460   17.7370 C.3       8 GLP5        0.0000 
     25 O          16.6985   -9.6640   21.2965 O.2       1 ALC1        0.0000 
     26 O          16.2680  -10.7970   20.4240 O.2       9 ALL1        0.0000 
     27 O          17.1290   -8.5310   22.1690 O.2       5 ALP1        0.0000 
     28 CA         13.1800  -11.2510   18.4770 C.3       4 GLC5        0.0000 
     29 CA         14.9230  -10.8510   19.8150 C.3      12 GLL5        0.0000 
     30 CA         11.4370  -11.6510   17.1390 C.3       8 GLP5        0.0000 
     31 CA         15.0665   -8.9690   18.5945 C.3       4 GLC5        0.0000 
     32 CA         15.2100   -7.0870   17.3740 C.3       8 GLP5        0.0000 
     33 CA         10.5635  -12.9705   21.8730 C.3       4 GLC5        0.0000 
     34 CA         12.4270  -11.9640   22.5530 C.3      12 GLL5        0.0000 
     35 CA          8.7000  -13.9770   21.1930 C.3       8 GLP5        0.0000 
     36 OD1         9.2920   -9.4695   25.1430 O.co2     3 ASC3        0.0000 
     37 OD1        10.8290  -10.6870   24.0520 O.co2    11 ASL3        0.0000 
     38 OD1         7.9890   -9.3680   25.6490 O.co2     7 ASP3        0.0000 
     39 OD1         8.9705  -11.6610   25.0295 O.co2     3 ASC3        0.0000 
     40 OD1         7.7270  -11.5490   25.7130 O.co2     7 ASP3        0.0000 
     41 O           8.9705  -11.6610   25.0295 O.2       1 ALC1        0.0000 
     42 O          10.2140  -11.7730   24.3460 O.2       9 ALL1        0.0000 
     43 O           7.7270  -11.5490   25.7130 O.2       5 ALP1        0.0000 
     44 O          10.3065  -13.2675   24.0935 O.2       1 ALC1        0.0000 
     45 O          10.3990  -14.7620   23.8410 O.2       5 ALP1        0.0000 
     46 O           9.2920   -9.4695   25.1430 O.2       1 ALC1        0.0000 
     47 O          10.5950   -9.5710   24.6370 O.2       9 ALL1        0.0000 
     48 O           7.9890   -9.3680   25.6490 O.2       5 ALP1        0.0000 
     49 CA         10.6525   -8.3415   22.2890 C.3       4 GLC5        0.0000 
     50 CA         12.3420   -9.5760   22.3380 C.3      12 GLL5        0.0000 
     51 CA          8.9630   -7.1070   22.2400 C.3       8 GLP5        0.0000 
     52 CA         20.5953  -11.4642   24.0960 C.3       4 GLC5        0.0000 
     53 CA         20.7350   -9.8230   22.7580 C.3       8 GLP5        0.0000 
     54 CA         18.9962  -10.3290   19.1800 C.3       4 GLC5        0.0000 
     55 CA         19.1450   -8.7460   18.0470 C.3       8 GLP5        0.0000 
     56 CA         19.1773  -13.9600   18.6133 C.3       4 GLC5        0.0000 
     57 CA         19.3470  -11.9400   19.7220 C.3      12 GLL5        0.0000 
     58 CA         18.5140  -15.4110   17.3620 C.3       8 GLP5        0.0000 
     59 CA         21.7770  -13.7613   20.1680 C.3       4 GLC5        0.0000 
     60 CA         20.3340  -13.0780   20.0070 C.3      12 GLL5        0.0000 
     61 CA         23.4900  -14.0000   19.7690 C.3       8 GLP5        0.0000 
     62 CA         20.1629  -11.1590   21.4590 C.3       4 GLC5        0.0000 
     63 CA         14.8382  -10.6645   22.7072 C.3       4 GLC5        0.0000 
     64 CA         13.8510  -10.8140   20.9260 C.3      12 GLL5        0.0000 
     65 CA         16.0520   -9.9330   24.1800 C.3       8 GLP5        0.0000 
     66 CA         14.1040  -10.6418   23.4678 C.3       4 GLC5        0.0000 
     67 CA         11.8850  -10.7370   22.9580 C.3      12 GLL5        0.0000 
     68 CA         13.0939  -11.9030   24.1525 C.3       4 GLC5        0.0000 
     69 CA         13.7890  -12.4520   25.8020 C.3       8 GLP5        0.0000 
     70 CA         10.6440  -10.6646   21.2694 C.3       4 GLC5        0.0000 
     71 CA          9.0390  -10.8660   19.9920 C.3       8 GLP5        0.0000 
     72 CA         12.6768   -7.7605   21.6035 C.3       4 GLC5        0.0000 
     73 CA         12.5280   -5.9360   21.3710 C.3       8 GLP5        0.0000 
     74 CA         14.4387   -9.7590   23.0080 C.3       4 GLC5        0.0000 
     75 CA         13.3090   -9.5940   21.3340 C.3      12 GLL5        0.0000 
@<TRIPOS>BOND
@<TRIPOS>SUBSTRUCTURE
     1 ALC1        1 GROUP        1 X    ALC  0     ROOT ALC X 1
     2 SEC2       17 GROUP        1 X    SEC  0     **** SEC X 2
     3 ASC3       36 GROUP        1 X    ASC  0     **** ASC X 3
     4 GLC5        4 GROUP        1 X    GLC  0     **** GLC X 6
     5 ALP1        3 GROUP        1 Y    ALP  0     ROOT ALP Y 8
     6 SEP2       19 GROUP        1 Y    SEP  0     **** SEP Y 9
     7 ASP3       38 GROUP        1 Y    ASP  0     **** ASP Y 10
     8 GLP5        6 GROUP        1 Y    GLP  0     **** GLP Y 13
     9 ALL1        2 GROUP        1 Z    ALL  0     ROOT ALL Z 15
    10 SEL2       18 GROUP        1 Z    SEL  0     **** SEL Z 16
    11 ASL3       37 GROUP        1 Z    ASL  0     **** ASL Z 17
    12 GLL5        5 GROUP        1 Z    GLL  0     **** GLL Z 20
@<TRIPOS>SET

