#    Name: 2znk_31U_1_ligand
#    Modification time : Tue Mar 25 10:52:06 2014

@<TRIPOS>MOLECULE
2znk_31U_1_ligand
   57    58     1     0     0
SMALL
NO_CHARGES


@<TRIPOS>ATOM
      1 N5         17.1670  -15.5630   23.5770 N.4       1 31U3001     0.0000 
      2 C4         18.4100  -14.7700   23.3660 C.3       1 31U3001     0.0000 
      3 C33        19.0080  -14.3400   24.7470 C.3       1 31U3001     0.0000 
      4 C17        20.3150  -13.4790   24.7640 C.3       1 31U3001     0.0000 
      5 C12        21.6110  -14.2630   24.3960 C.3       1 31U3001     0.0000 
      6 C49        20.5960  -12.7320   26.1040 C.3       1 31U3001     0.0000 
      7 C14        18.0040  -13.5240   22.5540 C.2       1 31U3001     0.0000 
      8 O32        16.9610  -12.9860   22.9290 O.2       1 31U3001     0.0000 
      9 N1         18.7000  -13.1080   21.5600 N.am      1 31U3001     0.0000 
     10 C1         18.3480  -11.8840   20.9040 C.3       1 31U3001     0.0000 
     11 C7         16.9190  -11.8930   20.3550 C.2       1 31U3001     0.0000 
     12 O22        16.5590  -12.9630   19.8760 O.2       1 31U3001     0.0000 
     13 C2         19.3470  -11.9400   19.7220 C.3       1 31U3001     0.0000 
     14 C3         20.3340  -13.0780   20.0070 C.3       1 31U3001     0.0000 
     15 C32        19.7940  -13.9670   21.1270 C.3       1 31U3001     0.0000 
     16 N23        16.2680  -10.7970   20.4240 N.am      1 31U3001     0.0000 
     17 C24        14.9230  -10.8510   19.8150 C.3       1 31U3001     0.0000 
     18 C25        13.8510  -10.8140   20.9260 C.ar      1 31U3001     0.0000 
     19 C30        13.3980  -11.9780   21.5430 C.ar      1 31U3001     0.0000 
     20 C29        12.4270  -11.9640   22.5530 C.ar      1 31U3001     0.0000 
     21 C28        11.8850  -10.7370   22.9580 C.ar      1 31U3001     0.0000 
     22 C21        10.8290  -10.6870   24.0520 C.cat     1 31U3001     0.0000 
     23 N46        10.2140  -11.7730   24.3460 N.pl3     1 31U3001     0.0000 
     24 N47        10.5950   -9.5710   24.6370 N.pl3     1 31U3001     0.0000 
     25 C27        12.3420   -9.5760   22.3380 C.ar      1 31U3001     0.0000 
     26 C26        13.3090   -9.5940   21.3340 C.ar      1 31U3001     0.0000 
     27 H          19.1253  -15.3220   22.8272 H         1 31U3001     0.0000 
     28 H          19.1937  -15.2630   25.3463 H         1 31U3001     0.0000 
     29 H          18.2195  -13.7834   25.3075 H         1 31U3001     0.0000 
     30 H          20.2103  -12.6862   23.9891 H         1 31U3001     0.0000 
     31 H          18.5561  -11.0444   21.4661 H         1 31U3001     0.0000 
     32 H          19.8747  -11.0088   19.6636 H         1 31U3001     0.0000 
     33 H          18.8097  -12.1444   18.8173 H         1 31U3001     0.0000 
     34 H          21.2868  -12.6574   20.3083 H         1 31U3001     0.0000 
     35 H          20.4655  -13.6702   19.1084 H         1 31U3001     0.0000 
     36 H          19.4468  -14.8643   20.7121 H         1 31U3001     0.0000 
     37 H          20.5294  -14.0674   21.8666 H         1 31U3001     0.0000 
     38 H          16.5495   -9.9296   20.8290 H         1 31U3001     0.0000 
     39 H          14.7915  -11.7690   19.2471 H         1 31U3001     0.0000 
     40 H          14.7606   -9.9995   19.1584 H         1 31U3001     0.0000 
     41 H          13.7943  -12.8957   21.2444 H         1 31U3001     0.0000 
     42 H          12.1198  -12.8324   22.9862 H         1 31U3001     0.0000 
     43 H           9.5526  -11.7155   25.0938 H         1 31U3001     0.0000 
     44 H          10.4533  -12.5759   23.8000 H         1 31U3001     0.0000 
     45 H           9.8917   -9.5857   25.3478 H         1 31U3001     0.0000 
     46 H          11.1376   -8.7899   24.3279 H         1 31U3001     0.0000 
     47 H          11.9451   -8.6567   22.6366 H         1 31U3001     0.0000 
     48 H          13.6191   -8.7216   20.8997 H         1 31U3001     0.0000 
     49 H          17.1936  -16.0735   24.4364 H         1 31U3001     0.0000 
     50 H          16.3552  -14.9799   23.6074 H         1 31U3001     0.0000 
     51 H          17.0224  -16.2287   22.8450 H         1 31U3001     0.0000 
     52 H          22.4195  -13.6749   24.4175 H         1 31U3001     0.0000 
     53 H          21.7808  -15.0180   25.0294 H         1 31U3001     0.0000 
     54 H          21.5590  -14.6564   23.4781 H         1 31U3001     0.0000 
     55 H          20.6903  -13.3672   26.8706 H         1 31U3001     0.0000 
     56 H          21.4398  -12.1970   26.0611 H         1 31U3001     0.0000 
     57 H          19.8586  -12.0982   26.3376 H         1 31U3001     0.0000 
@<TRIPOS>BOND
     1    2    1 1    
     2   49    1 1    
     3   50    1 1    
     4   51    1 1    
     5    3    2 1    
     6    7    2 1    
     7   27    2 1    
     8    4    3 1    
     9   28    3 1    
    10   29    3 1    
    11    5    4 1    
    12    6    4 1    
    13   30    4 1    
    14   52    5 1    
    15   53    5 1    
    16   54    5 1    
    17   55    6 1    
    18   56    6 1    
    19   57    6 1    
    20    8    7 2    
    21    9    7 am   
    22   10    9 1    
    23   15    9 1    
    24   11   10 1    
    25   13   10 1    
    26   31   10 1    
    27   12   11 2    
    28   16   11 am   
    29   14   13 1    
    30   32   13 1    
    31   33   13 1    
    32   15   14 1    
    33   34   14 1    
    34   35   14 1    
    35   36   15 1    
    36   37   15 1    
    37   17   16 1    
    38   38   16 1    
    39   18   17 1    
    40   39   17 1    
    41   40   17 1    
    42   19   18 ar   
    43   26   18 ar   
    44   20   19 ar   
    45   41   19 1    
    46   21   20 ar   
    47   42   20 1    
    48   22   21 1    
    49   25   21 ar   
    50   23   22 ar   
    51   24   22 ar   
    52   43   23 1    
    53   44   23 1    
    54   45   24 1    
    55   46   24 1    
    56   26   25 ar   
    57   47   25 1    
    58   48   26 1    
@<TRIPOS>SUBSTRUCTURE
     1 31U3001     1 GROUP   
@<TRIPOS>SET

