#    Name: 2ans_2AN_2_INTS_M
#    Modification time : Mon Mar 24 19:31:13 2014

@<TRIPOS>MOLECULE
2ans_2AN_2_INTS_M
   29     0     3     0     0
SMALL
NO_CHARGES


@<TRIPOS>ATOM
      1 CA         35.5640   27.4650    8.9550 C.3       1 GLC5        0.0000 
      2 CA         33.8440   28.4270    9.7740 C.3       3 GLL5        0.0000 
      3 CA         37.2840   26.5030    8.1360 C.3       2 GLP5        0.0000 
      4 CA         35.7420   28.4365   10.8470 C.3       1 GLC5        0.0000 
      5 CA         37.6400   28.4460   11.9200 C.3       2 GLP5        0.0000 
      6 CA         34.9415   26.1405    9.4785 C.3       1 GLC5        0.0000 
      7 CA         33.4290   27.1980   10.1350 C.3       3 GLL5        0.0000 
      8 CA         36.4540   25.0830    8.8220 C.3       2 GLP5        0.0000 
      9 CA         32.0673   32.6043    5.8898 C.3       1 GLC5        0.0000 
     10 CA         31.9220   30.7970    6.9010 C.3       3 GLL5        0.0000 
     11 CA         31.6400   34.1830    4.5500 C.3       2 GLP5        0.0000 
     12 CA         33.8353   28.6107   11.8137 C.3       1 GLC5        0.0000 
     13 CA         34.0340   29.4090   13.6730 C.3       2 GLP5        0.0000 
     14 CA         33.2067   24.9735   10.1777 C.3       1 GLC5        0.0000 
     15 CA         33.5540   23.0280   10.5200 C.3       2 GLP5        0.0000 
     16 CA         30.6193   28.2417   10.0794 C.3       1 GLC5        0.0000 
     17 CA         32.2900   26.6400    9.5360 C.3       3 GLL5        0.0000 
     18 CA         29.3010   28.6730   11.5660 C.3       2 GLP5        0.0000 
     19 CA         27.6565   28.8520    2.3308 C.3       1 GLC5        0.0000 
     20 CA         28.9480   27.6380    3.3390 C.3       3 GLL5        0.0000 
     21 CA         25.9560   29.8070    1.8040 C.3       2 GLP5        0.0000 
     22 CA         30.4085   29.7160    0.9958 C.3       1 GLC5        0.0000 
     23 CA         29.7660   28.1560    2.3760 C.3       3 GLL5        0.0000 
     24 CA         30.5510   30.8270   -0.5610 C.3       2 GLP5        0.0000 
     25 CA         32.3600   30.0430    2.6595 C.3       1 GLC5        0.0000 
     26 CA         30.7660   29.0540    2.7290 C.3       3 GLL5        0.0000 
     27 CA         33.8630   30.8410    1.9250 C.3       2 GLP5        0.0000 
     28 CA         31.2402   27.1107    2.2216 C.3       1 GLC5        0.0000 
     29 CA         32.4190   25.7460    1.6500 C.3       2 GLP5        0.0000 
@<TRIPOS>BOND
@<TRIPOS>SUBSTRUCTURE
     1 GLC5        1 GROUP        1 X    GLC  0     ROOT GLC X 6
     2 GLP5        3 GROUP        1 Y    GLP  0     ROOT GLP Y 13
     3 GLL5        2 GROUP        1 Z    GLL  0     ROOT GLL Z 20
@<TRIPOS>SET

