#    Name: 2ans_2AN_2_ligand
#    Modification time : Mon Mar 24 19:31:13 2014

@<TRIPOS>MOLECULE
2ans_2AN_2_ligand
   33    35     1     0     0
SMALL
NO_CHARGES


@<TRIPOS>ATOM
      1 C1         31.3500   29.5500    7.1430 C.ar      1 2AN202      0.0000 
      2 C2         31.9220   30.7970    6.9010 C.ar      1 2AN202      0.0000 
      3 C3         33.0670   31.2540    7.5580 C.ar      1 2AN202      0.0000 
      4 C4         33.6690   30.4740    8.4790 C.ar      1 2AN202      0.0000 
      5 C5         33.1620   29.1900    8.7970 C.ar      1 2AN202      0.0000 
      6 C6         33.8440   28.4270    9.7740 C.ar      1 2AN202      0.0000 
      7 C7         33.4290   27.1980   10.1350 C.ar      1 2AN202      0.0000 
      8 C8         32.2900   26.6400    9.5360 C.ar      1 2AN202      0.0000 
      9 N          30.1990   29.2170    6.4170 N.pl3     1 2AN202      0.0000 
     10 S          30.1140   26.2630    8.0010 S.o2      1 2AN202      0.0000 
     11 C9         31.5380   27.2880    8.5670 C.ar      1 2AN202      0.0000 
     12 C10        31.9610   28.6570    8.1340 C.ar      1 2AN202      0.0000 
     13 C11        30.1010   28.8990    5.0600 C.ar      1 2AN202      0.0000 
     14 C12        29.0960   27.9890    4.6580 C.ar      1 2AN202      0.0000 
     15 C13        28.9480   27.6380    3.3390 C.ar      1 2AN202      0.0000 
     16 C14        29.7660   28.1560    2.3760 C.ar      1 2AN202      0.0000 
     17 C15        30.7660   29.0540    2.7290 C.ar      1 2AN202      0.0000 
     18 C16        30.9480   29.4360    4.0590 C.ar      1 2AN202      0.0000 
     19 O1         28.8640   26.9680    8.2630 O.co2     1 2AN202      0.0000 
     20 O2         30.3210   25.9870    6.5870 O.co2     1 2AN202      0.0000 
     21 O3         30.1750   25.0100    8.7600 O.co2     1 2AN202      0.0000 
     22 H          31.4719   31.4250    6.1907 H         1 2AN202      0.0000 
     23 H          33.4350   32.1908    7.3235 H         1 2AN202      0.0000 
     24 H          34.5215   30.7938    8.9807 H         1 2AN202      0.0000 
     25 H          34.6915   28.8556   10.2112 H         1 2AN202      0.0000 
     26 H          33.9315   26.6463   10.8499 H         1 2AN202      0.0000 
     27 H          31.9952   25.6778    9.8425 H         1 2AN202      0.0000 
     28 H          29.2728   29.2050    6.9773 H         1 2AN202      0.0000 
     29 H          28.4727   27.5922    5.3815 H         1 2AN202      0.0000 
     30 H          28.1980   26.9648    3.0715 H         1 2AN202      0.0000 
     31 H          29.6507   27.8884    1.3867 H         1 2AN202      0.0000 
     32 H          31.3843   29.4456    1.9992 H         1 2AN202      0.0000 
     33 H          31.6811   30.0949    4.3178 H         1 2AN202      0.0000 
@<TRIPOS>BOND
     1    2    1 ar   
     2    9    1 1    
     3   12    1 ar   
     4    3    2 ar   
     5   22    2 1    
     6    4    3 ar   
     7   23    3 1    
     8    5    4 ar   
     9   24    4 1    
    10    6    5 ar   
    11   12    5 ar   
    12    7    6 ar   
    13   25    6 1    
    14    8    7 ar   
    15   26    7 1    
    16   11    8 ar   
    17   27    8 1    
    18   13    9 1    
    19   28    9 1    
    20   11   10 1    
    21   19   10 ar   
    22   20   10 ar   
    23   21   10 ar   
    24   12   11 ar   
    25   14   13 ar   
    26   18   13 ar   
    27   15   14 ar   
    28   29   14 1    
    29   16   15 ar   
    30   30   15 1    
    31   17   16 ar   
    32   31   16 1    
    33   18   17 ar   
    34   32   17 1    
    35   33   18 1    
@<TRIPOS>SUBSTRUCTURE
     1 2AN202      1 GROUP   
@<TRIPOS>SET

