#    Name: 2cul_FAD_1_INTS_M
#    Modification time : Tue Mar 25 01:15:07 2014

@<TRIPOS>MOLECULE
2cul_FAD_1_INTS_M
  129     0    12     0     0
SMALL
NO_CHARGES


@<TRIPOS>ATOM
      1 NZ         56.1100   33.1310    4.4035 N.4       3 LYC4        0.0000 
      2 NZ         54.6010   33.5630    3.6710 N.4      11 LYL4        0.0000 
      3 NZ         57.9530   32.1790    3.9630 N.4       7 LYP4        0.0000 
      4 N          55.9375   33.0425    3.2715 N.am      2 SEC2        0.0000 
      5 N          54.6010   33.5630    3.6710 N.am     10 SEL2        0.0000 
      6 N          57.2740   32.5220    2.8720 N.am      6 SEP2        0.0000 
      7 N          56.1100   33.1310    4.4035 N.am      2 SEC2        0.0000 
      8 N          57.6190   32.6990    5.1360 N.am      6 SEP2        0.0000 
      9 N          55.6760   37.5020    3.2300 N.am      2 SEC2        0.0000 
     10 N          55.5360   35.8950    3.1980 N.am     10 SEL2        0.0000 
     11 N          55.8160   39.1090    3.2620 N.am      6 SEP2        0.0000 
     12 CA         51.2745   34.6060    6.4770 C.3       4 GLC5        0.0000 
     13 CA         53.2740   34.7920    6.0740 C.3      12 GLL5        0.0000 
     14 CA         49.2750   34.4200    6.8800 C.3       8 GLP5        0.0000 
     15 CA         51.8685   34.1370    4.7310 C.3       4 GLC5        0.0000 
     16 CA         50.4630   33.4820    3.3880 C.3       8 GLP5        0.0000 
     17 CA         53.8050   32.7460    6.0085 C.3       4 GLC5        0.0000 
     18 CA         54.3360   30.7000    5.9430 C.3       8 GLP5        0.0000 
     19 CA         52.8815   36.2680    8.6085 C.3       4 GLC5        0.0000 
     20 CA         53.7060   35.0100    7.5190 C.3      12 GLL5        0.0000 
     21 CA         52.0570   37.5260    9.6980 C.3       8 GLP5        0.0000 
     22 CA         52.5715   35.7400    9.5840 C.3       4 GLC5        0.0000 
     23 CA         53.0860   33.9540    9.4700 C.3      12 GLL5        0.0000 
     24 CA         48.5685   33.1065   13.9465 C.3       4 GLC5        0.0000 
     25 CA         49.8190   32.2130   12.6430 C.3      12 GLL5        0.0000 
     26 CA         47.3180   34.0000   15.2500 C.3       8 GLP5        0.0000 
     27 CA         47.6655   32.2760   12.0520 C.3       4 GLC5        0.0000 
     28 CA         45.5120   32.3390   11.4610 C.3       8 GLP5        0.0000 
     29 O          48.0780   31.1690   14.0935 O.2       1 ALC1        0.0000 
     30 O          48.7930   31.4070   12.8510 O.2       9 ALL1        0.0000 
     31 O          47.3630   30.9310   15.3360 O.2       5 ALP1        0.0000 
     32 N          49.7350   32.9200   15.0395 N.am      2 SEC2        0.0000 
     33 N          50.2950   32.9750   13.6980 N.am     10 SEL2        0.0000 
     34 N          49.1750   32.8650   16.3810 N.am      6 SEP2        0.0000 
     35 CA         49.8910   35.0040   12.9495 C.3       4 GLC5        0.0000 
     36 CA         51.3620   33.8240   13.5100 C.3      12 GLL5        0.0000 
     37 CA         48.4200   36.1840   12.3890 C.3       8 GLP5        0.0000 
     38 CA         51.0330   35.2575   14.6670 C.3       4 GLC5        0.0000 
     39 CA         50.7040   36.6910   15.8240 C.3       8 GLP5        0.0000 
     40 CA         52.8130   35.2055   13.6400 C.3       4 GLC5        0.0000 
     41 CA         54.2640   36.5870   13.7700 C.3       8 GLP5        0.0000 
     42 CA         52.8245   32.7775   13.8620 C.3       4 GLC5        0.0000 
     43 CA         54.2870   31.7310   14.2140 C.3       8 GLP5        0.0000 
     44 CA         51.3235   32.9325   15.3935 C.3       4 GLC5        0.0000 
     45 CA         51.2850   32.0410   17.2770 C.3       8 GLP5        0.0000 
     46 CA         49.3400   33.9120   14.3800 C.3       4 GLC5        0.0000 
     47 N          53.2790   34.0890   13.2080 N.am      2 SEC2        0.0000 
     48 N          52.0260   33.9990   12.3370 N.am     10 SEL2        0.0000 
     49 N          54.5320   34.1790   14.0790 N.am      6 SEP2        0.0000 
     50 N          57.1430   37.2190   -5.6155 N.am      2 SEC2        0.0000 
     51 N          57.9850   36.1460   -6.1390 N.am     10 SEL2        0.0000 
     52 N          56.3010   38.2920   -5.0920 N.am      6 SEP2        0.0000 
     53 N          61.3445   32.0215   -4.5275 N.am      2 SEC2        0.0000 
     54 N          60.1290   32.1540   -5.6840 N.am     10 SEL2        0.0000 
     55 N          62.5600   31.8890   -3.3710 N.am      6 SEP2        0.0000 
     56 CA         58.3245   28.1005   -3.4035 C.3       4 GLC5        0.0000 
     57 CA         56.7620   29.1430   -3.4770 C.3      12 GLL5        0.0000 
     58 CA         59.8870   27.0580   -3.3300 C.3       8 GLP5        0.0000 
     59 CA         56.7560   27.9750   -1.2290 C.3       4 GLC5        0.0000 
     60 CA         55.7010   27.1130   -2.4310 C.3      12 GLL5        0.0000 
     61 CA         57.8110   28.8370   -0.0270 C.3       8 GLP5        0.0000 
     62 CA         56.0400   26.3185   -4.2825 C.3       4 GLC5        0.0000 
     63 CA         56.3790   25.5240   -6.1340 C.3       8 GLP5        0.0000 
     64 CA         57.7940   27.0855   -2.8805 C.3       4 GLC5        0.0000 
     65 CA         57.2495   25.9125   -1.3965 C.3       4 GLC5        0.0000 
     66 CA         58.7980   24.7120   -0.3620 C.3       8 GLP5        0.0000 
     67 CA         54.7540   26.0125   -1.3390 C.3       4 GLC5        0.0000 
     68 CA         53.8070   24.9120   -0.2470 C.3       8 GLP5        0.0000 
     69 CA         55.0245   29.3030   -0.8800 C.3       4 GLC5        0.0000 
     70 CA         53.2320   28.8320   -1.9990 C.3      12 GLL5        0.0000 
     71 CA         56.8170   29.7740    0.2390 C.3       8 GLP5        0.0000 
     72 CA         52.4475   29.0510   -0.2185 C.3       4 GLC5        0.0000 
     73 CA         51.6630   29.2700    1.5620 C.3       8 GLP5        0.0000 
     74 CA         53.5195   26.8720   -1.1230 C.3       4 GLC5        0.0000 
     75 CA         51.3555   28.6660   -2.0375 C.3       4 GLC5        0.0000 
     76 CA         49.4790   28.5000   -2.0760 C.3       8 GLP5        0.0000 
     77 CA         52.1315   30.4315   -1.6040 C.3       4 GLC5        0.0000 
     78 CA         51.0310   32.0310   -1.2090 C.3       8 GLP5        0.0000 
     79 CA         52.7465   31.3795   -2.1445 C.3       4 GLC5        0.0000 
     80 CA         54.4620   30.7280   -3.0800 C.3      12 GLL5        0.0000 
     81 CA         53.7485   36.5895   -2.4215 C.3       4 GLC5        0.0000 
     82 CA         54.4790   34.7050   -2.9100 C.3      12 GLL5        0.0000 
     83 CA         53.0180   38.4740   -1.9330 C.3       8 GLP5        0.0000 
     84 CA         55.9680   32.6320   -0.8935 C.3       4 GLC5        0.0000 
     85 CA         54.9860   34.1890   -1.5480 C.3      12 GLL5        0.0000 
     86 CA         56.9500   31.0750   -0.2390 C.3       8 GLP5        0.0000 
     87 CA         57.0260   35.0300   -1.9520 C.3       4 GLC5        0.0000 
     88 CA         59.0660   35.8710   -2.3560 C.3       8 GLP5        0.0000 
     89 CA         56.4040   36.5235    0.3240 C.3       4 GLC5        0.0000 
     90 CA         54.9810   35.2750   -0.4530 C.3      12 GLL5        0.0000 
     91 CA         57.8270   37.7720    1.1010 C.3       8 GLP5        0.0000 
     92 CA         56.7120   36.1820   -1.5530 C.3       4 GLC5        0.0000 
     93 CA         58.4430   37.0890   -2.6530 C.3       8 GLP5        0.0000 
     94 CA         51.7050   34.8665   -0.2780 C.3       4 GLC5        0.0000 
     95 CA         53.5220   35.5890   -0.0680 C.3      12 GLL5        0.0000 
     96 CA         49.8880   34.1440   -0.4880 C.3       8 GLP5        0.0000 
     97 N          53.1245   39.2195    2.6705 N.am      2 SEC2        0.0000 
     98 N          52.8210   37.8620    2.8860 N.am     10 SEL2        0.0000 
     99 N          53.4280   40.5770    2.4550 N.am      6 SEP2        0.0000 
    100 N          51.7560   38.7425    2.9085 N.am      2 SEC2        0.0000 
    101 N          50.6910   39.6230    2.9310 N.am      6 SEP2        0.0000 
    102 N          50.0260   36.3365    0.8615 N.am      2 SEC2        0.0000 
    103 N          51.1340   36.3240    1.7980 N.am     10 SEL2        0.0000 
    104 N          48.9180   36.3490   -0.0750 N.am      6 SEP2        0.0000 
    105 CA         54.6085   36.5760    6.1608 C.3       4 GLC5        0.0000 
    106 CA         55.7270   38.2510    5.5250 C.3       8 GLP5        0.0000 
    107 CA         54.4423   32.1602    7.1843 C.3       4 GLC5        0.0000 
    108 CA         54.8800   34.1210    7.9760 C.3      12 GLL5        0.0000 
    109 CA         54.1052   32.5000   10.9632 C.3       4 GLC5        0.0000 
    110 CA         54.2170   33.1200    8.8750 C.3      12 GLL5        0.0000 
    111 CA         54.5590   31.4630   12.7540 C.3       8 GLP5        0.0000 
    112 CA         52.7828   32.1303   12.0542 C.3       4 GLC5        0.0000 
    113 CA         50.4700   32.3530   11.3940 C.3      12 GLL5        0.0000 
    114 CA         49.6319   34.4732   12.0279 C.3       4 GLC5        0.0000 
    115 CA         49.4314   33.5007   10.3614 C.3       4 GLC5        0.0000 
    116 CA         48.0190   34.2390    9.0560 C.3       8 GLP5        0.0000 
    117 CA         58.5190   30.3478   -2.8862 C.3       4 GLC5        0.0000 
    118 CA         60.2710   30.8870   -2.0880 C.3       8 GLP5        0.0000 
    119 CA         54.3653   27.4258   -3.8607 C.3       4 GLC5        0.0000 
    120 CA         55.6400   28.5580   -2.8600 C.3      12 GLL5        0.0000 
    121 CA         53.0600   27.0160   -5.0760 C.3       8 GLP5        0.0000 
    122 CA         53.6084   28.4660   -3.8901 C.3       4 GLC5        0.0000 
    123 CA         54.4710   29.3760   -2.6580 C.3      12 GLL5        0.0000 
    124 CA         52.4020   33.9520   -3.1747 C.3       4 GLC5        0.0000 
    125 CA         54.4430   33.6030   -3.9930 C.3      12 GLL5        0.0000 
    126 CA         50.3430   33.7500   -2.8980 C.3       8 GLP5        0.0000 
    127 CA         54.5345   35.6545   -4.9488 C.3       4 GLC5        0.0000 
    128 CA         54.6080   37.1550   -6.4460 C.3       8 GLP5        0.0000 
    129 CA         53.6347   36.9530   -1.0968 C.3       4 GLC5        0.0000 
@<TRIPOS>BOND
@<TRIPOS>SUBSTRUCTURE
     1 ALC1       29 GROUP        1 X    ALC  0     ROOT ALC X 1
     2 SEC2        4 GROUP        1 X    SEC  0     **** SEC X 2
     3 LYC4        1 GROUP        1 X    LYC  0     **** LYC X 4
     4 GLC5       12 GROUP        1 X    GLC  0     **** GLC X 6
     5 ALP1       31 GROUP        1 Y    ALP  0     ROOT ALP Y 8
     6 SEP2        6 GROUP        1 Y    SEP  0     **** SEP Y 9
     7 LYP4        3 GROUP        1 Y    LYP  0     **** LYP Y 11
     8 GLP5       14 GROUP        1 Y    GLP  0     **** GLP Y 13
     9 ALL1       30 GROUP        1 Z    ALL  0     ROOT ALL Z 15
    10 SEL2        5 GROUP        1 Z    SEL  0     **** SEL Z 16
    11 LYL4        2 GROUP        1 Z    LYL  0     **** LYL Z 18
    12 GLL5       13 GROUP        1 Z    GLL  0     **** GLL Z 20
@<TRIPOS>SET

