#    Name: 2cul_FAD_1_ligand
#    Modification time : Tue Mar 25 01:15:08 2014

@<TRIPOS>MOLECULE
2cul_FAD_1_ligand
   84    89     1     0     0
SMALL
NO_CHARGES


@<TRIPOS>ATOM
      1 PA         54.4640   35.0260    3.7490 P.3       1 FAD301      0.0000 
      2 O1A        54.6010   33.5630    3.6710 O.co2     1 FAD301      0.0000 
      3 O2A        55.5360   35.8950    3.1980 O.co2     1 FAD301      0.0000 
      4 O5B        54.2510   35.4560    5.2700 O.3       1 FAD301      0.0000 
      5 C5B        53.2740   34.7920    6.0740 C.3       1 FAD301      0.0000 
      6 C4B        53.7060   35.0100    7.5190 C.3       1 FAD301      0.0000 
      7 O4B        52.5930   34.6650    8.3440 O.3       1 FAD301      0.0000 
      8 C3B        54.8800   34.1210    7.9760 C.3       1 FAD301      0.0000 
      9 O3B        55.8940   34.8680    8.6130 O.3       1 FAD301      0.0000 
     10 C2B        54.2170   33.1200    8.8750 C.3       1 FAD301      0.0000 
     11 O2B        55.0500   32.4940    9.8230 O.3       1 FAD301      0.0000 
     12 C1B        53.0860   33.9540    9.4700 C.3       1 FAD301      0.0000 
     13 N9A        51.9770   33.1860   10.0310 N.pl3     1 FAD301      0.0000 
     14 C8A        51.1770   32.2810    9.3730 C.2       1 FAD301      0.0000 
     15 N7A        50.2530   31.7550   10.1680 N.2       1 FAD301      0.0000 
     16 C5A        50.4700   32.3530   11.3940 C.ar      1 FAD301      0.0000 
     17 C6A        49.8190   32.2130   12.6430 C.ar      1 FAD301      0.0000 
     18 N6A        48.7930   31.4070   12.8510 N.pl3     1 FAD301      0.0000 
     19 N1A        50.2950   32.9750   13.6980 N.ar      1 FAD301      0.0000 
     20 C2A        51.3620   33.8240   13.5100 C.ar      1 FAD301      0.0000 
     21 N3A        52.0260   33.9990   12.3370 N.ar      1 FAD301      0.0000 
     22 C4A        51.5430   33.2420   11.3150 C.ar      1 FAD301      0.0000 
     23 N1         56.8140   34.4880   -5.1640 N.2       1 FAD301      0.0000 
     24 C2         57.9440   35.0010   -5.7590 C.2       1 FAD301      0.0000 
     25 O2         57.9850   36.1460   -6.1390 O.2       1 FAD301      0.0000 
     26 N3         59.0580   34.1620   -5.9150 N.am      1 FAD301      0.0000 
     27 C4         59.1010   32.8440   -5.5140 C.2       1 FAD301      0.0000 
     28 O4         60.1290   32.1540   -5.6840 O.2       1 FAD301      0.0000 
     29 C4X        57.9410   32.3180   -4.9080 C.2       1 FAD301      0.0000 
     30 N5         57.9060   30.9960   -4.4860 N.2       1 FAD301      0.0000 
     31 C5X        56.7720   30.4740   -3.8920 C.ar      1 FAD301      0.0000 
     32 C6         56.7620   29.1430   -3.4770 C.ar      1 FAD301      0.0000 
     33 C7         55.6400   28.5580   -2.8600 C.ar      1 FAD301      0.0000 
     34 C7M        55.7010   27.1130   -2.4310 C.3       1 FAD301      0.0000 
     35 C8         54.4710   29.3760   -2.6580 C.ar      1 FAD301      0.0000 
     36 C8M        53.2320   28.8320   -1.9990 C.3       1 FAD301      0.0000 
     37 C9         54.4620   30.7280   -3.0800 C.ar      1 FAD301      0.0000 
     38 C9A        55.6000   31.3080   -3.7010 C.ar      1 FAD301      0.0000 
     39 N10        55.6370   32.6780   -4.1430 N.pl3     1 FAD301      0.0000 
     40 C10        56.8040   33.1800   -4.7470 C.2       1 FAD301      0.0000 
     41 C1'        54.4430   33.6030   -3.9930 C.3       1 FAD301      0.0000 
     42 C2'        54.4790   34.7050   -2.9100 C.3       1 FAD301      0.0000 
     43 O2'        55.3040   35.7540   -3.3410 O.3       1 FAD301      0.0000 
     44 C3'        54.9860   34.1890   -1.5480 C.3       1 FAD301      0.0000 
     45 O3'        54.1700   33.1240   -1.0630 O.3       1 FAD301      0.0000 
     46 C4'        54.9810   35.2750   -0.4530 C.3       1 FAD301      0.0000 
     47 O4'        55.7250   34.8510    0.6870 O.3       1 FAD301      0.0000 
     48 C5'        53.5220   35.5890   -0.0680 C.3       1 FAD301      0.0000 
     49 O5'        53.5000   36.6350    0.9170 O.3       1 FAD301      0.0000 
     50 P          52.5590   36.5900    2.1920 P.3       1 FAD301      0.0000 
     51 O1P        52.8210   37.8620    2.8860 O.co2     1 FAD301      0.0000 
     52 O2P        51.1340   36.3240    1.7980 O.co2     1 FAD301      0.0000 
     53 O3P        53.0540   35.3600    3.0410 O.3       1 FAD301      0.0000 
     54 H          53.2478   33.7280    5.8861 H         1 FAD301      0.0000 
     55 H          52.2879   35.2161    5.9486 H         1 FAD301      0.0000 
     56 H          53.9733   36.0357    7.6624 H         1 FAD301      0.0000 
     57 H          55.2223   33.5974    7.0942 H         1 FAD301      0.0000 
     58 H          53.7158   32.3964    8.2062 H         1 FAD301      0.0000 
     59 H          53.5016   34.6336   10.1767 H         1 FAD301      0.0000 
     60 H          51.2974   32.0641    8.4146 H         1 FAD301      0.0000 
     61 H          48.4513   30.9142   12.0508 H         1 FAD301      0.0000 
     62 H          48.4513   31.3630   13.7898 H         1 FAD301      0.0000 
     63 H          51.6901   34.3888   14.3600 H         1 FAD301      0.0000 
     64 H          59.9176   34.5785   -6.3722 H         1 FAD301      0.0000 
     65 H          57.6093   28.5578   -3.6257 H         1 FAD301      0.0000 
     66 H          53.6213   31.2985   -2.9356 H         1 FAD301      0.0000 
     67 H          53.5232   32.9801   -3.8160 H         1 FAD301      0.0000 
     68 H          54.2460   34.1021   -4.9817 H         1 FAD301      0.0000 
     69 H          53.4543   35.0525   -2.7659 H         1 FAD301      0.0000 
     70 H          56.0116   33.8551   -1.6658 H         1 FAD301      0.0000 
     71 H          55.4004   36.1757   -0.8900 H         1 FAD301      0.0000 
     72 H          53.0741   34.6666    0.3095 H         1 FAD301      0.0000 
     73 H          52.9948   35.8793   -0.9801 H         1 FAD301      0.0000 
     74 H          55.8730   26.5029   -3.2044 H         1 FAD301      0.0000 
     75 H          56.4294   26.9539   -1.7646 H         1 FAD301      0.0000 
     76 H          54.8457   26.8150   -2.0071 H         1 FAD301      0.0000 
     77 H          53.4160   28.5108   -1.0700 H         1 FAD301      0.0000 
     78 H          52.5124   29.5233   -1.9330 H         1 FAD301      0.0000 
     79 H          52.8504   28.0592   -2.5061 H         1 FAD301      0.0000 
     80 H          56.6973   34.7670    8.0260 H         1 FAD301      0.0000 
     81 H          55.7457   33.1766   10.0468 H         1 FAD301      0.0000 
     82 H          55.5438   35.5238   -4.2841 H         1 FAD301      0.0000 
     83 H          54.3607   33.0779   -0.0824 H         1 FAD301      0.0000 
     84 H          55.4234   35.4488    1.4297 H         1 FAD301      0.0000 
@<TRIPOS>BOND
     1    2    1 ar   
     2    3    1 ar   
     3    4    1 1    
     4   53    1 1    
     5    5    4 1    
     6    6    5 1    
     7   54    5 1    
     8   55    5 1    
     9    7    6 1    
    10    8    6 1    
    11   56    6 1    
    12   12    7 1    
    13    9    8 1    
    14   10    8 1    
    15   57    8 1    
    16   80    9 1    
    17   11   10 1    
    18   12   10 1    
    19   58   10 1    
    20   81   11 1    
    21   13   12 1    
    22   59   12 1    
    23   14   13 1    
    24   22   13 1    
    25   15   14 2    
    26   60   14 1    
    27   16   15 1    
    28   17   16 ar   
    29   22   16 ar   
    30   18   17 1    
    31   19   17 ar   
    32   61   18 1    
    33   62   18 1    
    34   20   19 ar   
    35   21   20 ar   
    36   63   20 1    
    37   22   21 ar   
    38   24   23 1    
    39   40   23 2    
    40   25   24 2    
    41   26   24 am   
    42   27   26 am   
    43   64   26 1    
    44   28   27 2    
    45   29   27 1    
    46   30   29 2    
    47   40   29 1    
    48   31   30 1    
    49   32   31 ar   
    50   38   31 ar   
    51   33   32 ar   
    52   65   32 1    
    53   34   33 1    
    54   35   33 ar   
    55   74   34 1    
    56   75   34 1    
    57   76   34 1    
    58   36   35 1    
    59   37   35 ar   
    60   77   36 1    
    61   78   36 1    
    62   79   36 1    
    63   38   37 ar   
    64   66   37 1    
    65   39   38 1    
    66   40   39 1    
    67   41   39 1    
    68   42   41 1    
    69   67   41 1    
    70   68   41 1    
    71   43   42 1    
    72   44   42 1    
    73   69   42 1    
    74   82   43 1    
    75   45   44 1    
    76   46   44 1    
    77   70   44 1    
    78   83   45 1    
    79   47   46 1    
    80   48   46 1    
    81   71   46 1    
    82   84   47 1    
    83   49   48 1    
    84   72   48 1    
    85   73   48 1    
    86   50   49 1    
    87   51   50 ar   
    88   52   50 ar   
    89   53   50 1    
@<TRIPOS>SUBSTRUCTURE
     1 FAD301      1 GROUP   
@<TRIPOS>SET

