#    Name: 3vw0_DEQ_1_INTS_M
#    Modification time : Tue Mar 25 01:43:27 2014

@<TRIPOS>MOLECULE
3vw0_DEQ_1_INTS_M
   84     0     3     0     0
SMALL
NO_CHARGES


@<TRIPOS>ATOM
      1 CA        -43.3190   -5.7590  -25.7425 C.3       1 GLC5        0.0000 
      2 CA        -42.4180   -3.9820  -24.9520 C.3       3 GLL5        0.0000 
      3 CA        -44.2200   -7.5360  -26.5330 C.3       2 GLP5        0.0000 
      4 CA        -54.9410   -4.1710  -28.9795 C.3       1 GLC5        0.0000 
      5 CA        -53.1930   -4.2210  -27.8770 C.3       3 GLL5        0.0000 
      6 CA        -56.6890   -4.1210  -30.0820 C.3       2 GLP5        0.0000 
      7 CA        -55.3255   -5.7000  -27.9045 C.3       1 GLC5        0.0000 
      8 CA        -53.2450   -5.5400  -27.4660 C.3       3 GLL5        0.0000 
      9 CA        -57.4060   -5.8600  -28.3430 C.3       2 GLP5        0.0000 
     10 CA        -51.2205   -5.3695  -26.7480 C.3       1 GLC5        0.0000 
     11 CA        -49.1960   -5.1990  -26.0300 C.3       2 GLP5        0.0000 
     12 CA        -53.7965   -1.1980  -29.6870 C.3       1 GLC5        0.0000 
     13 CA        -52.1360   -2.4870  -29.3520 C.3       3 GLL5        0.0000 
     14 CA        -55.4570    0.0910  -30.0220 C.3       2 GLP5        0.0000 
     15 CA        -52.6075   -3.8310  -31.0875 C.3       1 GLC5        0.0000 
     16 CA        -53.0790   -5.1750  -32.8230 C.3       2 GLP5        0.0000 
     17 CA        -51.7395    0.0415  -30.8650 C.3       1 GLC5        0.0000 
     18 CA        -50.2220   -0.9840  -29.9560 C.3       3 GLL5        0.0000 
     19 CA        -53.2570    1.0670  -31.7740 C.3       2 GLP5        0.0000 
     20 CA        -47.9580    0.6950  -30.8890 C.3       1 GLC5        0.0000 
     21 CA        -48.7550   -0.8200  -29.6780 C.3       3 GLL5        0.0000 
     22 CA        -47.1610    2.2100  -32.1000 C.3       2 GLP5        0.0000 
     23 CA        -49.5525   -0.2505  -26.7485 C.3       1 GLC5        0.0000 
     24 CA        -48.4720   -0.5920  -28.2150 C.3       3 GLL5        0.0000 
     25 CA        -50.6330    0.0910  -25.2820 C.3       2 GLP5        0.0000 
     26 CA        -48.3890   -2.3170  -26.9350 C.3       1 GLC5        0.0000 
     27 CA        -48.3060   -4.0420  -25.6550 C.3       2 GLP5        0.0000 
     28 CA        -48.3635    0.9325  -25.8355 C.3       1 GLC5        0.0000 
     29 CA        -46.8700    0.7210  -26.8770 C.3       3 GLL5        0.0000 
     30 CA        -49.8570    1.1440  -24.7940 C.3       2 GLP5        0.0000 
     31 CA        -44.5900    1.7880  -24.7805 C.3       1 GLC5        0.0000 
     32 CA        -45.4290    0.8090  -26.4480 C.3       3 GLL5        0.0000 
     33 CA        -43.7510    2.7670  -23.1130 C.3       2 GLP5        0.0000 
     34 CA        -43.9725    0.8840  -24.2290 C.3       1 GLC5        0.0000 
     35 CA        -44.1940   -0.9990  -25.3450 C.3       3 GLL5        0.0000 
     36 CA        -45.0155   -1.5450  -23.9320 C.3       1 GLC5        0.0000 
     37 CA        -45.8370   -2.0910  -22.5190 C.3       2 GLP5        0.0000 
     38 CA        -44.2815   -5.3240  -27.2790 C.3       1 GLC5        0.0000 
     39 CA        -44.1680   -3.6190  -26.5890 C.3       3 GLL5        0.0000 
     40 CA        -44.3950   -7.0290  -27.9690 C.3       2 GLP5        0.0000 
     41 CA        -45.0100   -3.5590  -24.6980 C.3       1 GLC5        0.0000 
     42 CA        -45.8520   -3.4990  -22.8070 C.3       2 GLP5        0.0000 
     43 CA        -46.2370   -3.8305  -26.1220 C.3       1 GLC5        0.0000 
     44 CA        -55.1015   -1.6975  -26.2195 C.3       1 GLC5        0.0000 
     45 CA        -54.1140   -3.2390  -27.2250 C.3       3 GLL5        0.0000 
     46 CA        -56.0890   -0.1560  -25.2140 C.3       2 GLP5        0.0000 
     47 CA        -55.7045   -3.8015  -27.9610 C.3       1 GLC5        0.0000 
     48 CA        -57.2950   -4.3640  -28.6970 C.3       2 GLP5        0.0000 
     49 CA        -42.5095    1.4892  -23.5885 C.3       1 GLC5        0.0000 
     50 CA        -41.7490    0.0060  -24.5050 C.3       3 GLL5        0.0000 
     51 CA        -38.9695    1.5560  -22.9582 C.3       1 GLC5        0.0000 
     52 CA        -40.0550   -0.4850  -22.8940 C.3       3 GLL5        0.0000 
     53 CA        -37.5180    3.1460  -22.6580 C.3       2 GLP5        0.0000 
     54 CA        -39.2730   -1.8550  -24.5297 C.3       1 GLC5        0.0000 
     55 CA        -38.3680   -2.5620  -26.0820 C.3       2 GLP5        0.0000 
     56 CA        -40.3135   -0.2957  -21.3244 C.3       1 GLC5        0.0000 
     57 CA        -40.3010   -1.8110  -23.0610 C.3       3 GLL5        0.0000 
     58 CA        -40.2660    0.3310  -19.4890 C.3       2 GLP5        0.0000 
     59 CA        -40.0018   -2.1703  -25.1878 C.3       1 GLC5        0.0000 
     60 CA        -41.2700   -2.2280  -23.9380 C.3       3 GLL5        0.0000 
     61 CA        -40.1590   -3.1640  -25.3025 C.3       1 GLC5        0.0000 
     62 CA        -41.4820   -3.5500  -24.0940 C.3       3 GLL5        0.0000 
     63 CA        -43.7022   -4.6152  -23.8485 C.3       1 GLC5        0.0000 
     64 CA        -44.8530   -5.8060  -22.6100 C.3       2 GLP5        0.0000 
     65 CA        -52.2828   -5.3035  -31.0192 C.3       1 GLC5        0.0000 
     66 CA        -51.5280   -6.1200  -28.9950 C.3       3 GLL5        0.0000 
     67 CA        -50.2949   -5.9562  -27.9601 C.3       1 GLC5        0.0000 
     68 CA        -51.4450   -4.7440  -29.4360 C.3       3 GLL5        0.0000 
     69 CA        -48.6400   -5.9570  -27.2960 C.3       2 GLP5        0.0000 
     70 CA        -51.6790   -6.0098  -31.4418 C.3       1 GLC5        0.0000 
     71 CA        -50.7210   -7.0440  -29.5710 C.3       3 GLL5        0.0000 
     72 CA        -49.4595   -6.4008  -28.6783 C.3       1 GLC5        0.0000 
     73 CA        -49.8370   -6.6450  -30.5500 C.3       3 GLL5        0.0000 
     74 CA        -51.6100   -5.0207  -31.7585 C.3       1 GLC5        0.0000 
     75 CA        -49.7330   -5.3410  -30.9750 C.3       3 GLL5        0.0000 
     76 CA        -49.3905   -5.4117  -28.9950 C.3       1 GLC5        0.0000 
     77 CA        -50.5490   -4.3920  -30.4130 C.3       3 GLL5        0.0000 
     78 CA        -49.6698    1.0410  -29.0720 C.3       1 GLC5        0.0000 
     79 CA        -49.8510    2.9840  -28.3270 C.3       2 GLP5        0.0000 
     80 CA        -48.5795    1.5719  -27.9149 C.3       1 GLC5        0.0000 
     81 CA        -46.9293    2.3585  -26.4213 C.3       1 GLC5        0.0000 
     82 CA        -47.7090    3.9520  -26.1800 C.3       2 GLP5        0.0000 
     83 CA        -43.5375    1.4303  -27.3677 C.3       1 GLC5        0.0000 
     84 CA        -42.0130    2.6970  -28.1760 C.3       2 GLP5        0.0000 
@<TRIPOS>BOND
@<TRIPOS>SUBSTRUCTURE
     1 GLC5        1 GROUP        1 X    GLC  0     ROOT GLC X 6
     2 GLP5        3 GROUP        1 Y    GLP  0     ROOT GLP Y 13
     3 GLL5        2 GROUP        1 Z    GLL  0     ROOT GLL Z 20
@<TRIPOS>SET

