#    Name: 3vw0_DEQ_1_ligand
#    Modification time : Tue Mar 25 01:43:27 2014

@<TRIPOS>MOLECULE
3vw0_DEQ_1_ligand
   74    77     1     0     0
SMALL
NO_CHARGES


@<TRIPOS>ATOM
      1 C1        -41.7490    0.0060  -24.5050 C.ar      1 DEQ301      0.0000 
      2 C2        -40.7870    0.4170  -23.6230 C.ar      1 DEQ301      0.0000 
      3 C3        -40.0550   -0.4850  -22.8940 C.ar      1 DEQ301      0.0000 
      4 C4        -40.3010   -1.8110  -23.0610 C.ar      1 DEQ301      0.0000 
      5 C5        -42.0010   -1.3290  -24.6490 C.ar      1 DEQ301      0.0000 
      6 C6        -41.2700   -2.2280  -23.9380 C.ar      1 DEQ301      0.0000 
      7 C7        -41.4820   -3.5500  -24.0940 C.ar      1 DEQ301      0.0000 
      8 C8        -42.4180   -3.9820  -24.9520 C.ar      1 DEQ301      0.0000 
      9 C9        -43.1530   -3.0830  -25.6510 C.ar      1 DEQ301      0.0000 
     10 N1        -42.9540   -1.7120  -25.5740 N.pl3     1 DEQ301      0.0000 
     11 C10       -51.5280   -6.1200  -28.9950 C.ar      1 DEQ301      0.0000 
     12 C11       -51.4450   -4.7440  -29.4360 C.ar      1 DEQ301      0.0000 
     13 N2        -52.2910   -3.8290  -28.8710 N.pl3     1 DEQ301      0.0000 
     14 C12       -53.1930   -4.2210  -27.8770 C.ar      1 DEQ301      0.0000 
     15 C13       -53.2450   -5.5400  -27.4660 C.ar      1 DEQ301      0.0000 
     16 C14       -52.4130   -6.4790  -28.0330 C.ar      1 DEQ301      0.0000 
     17 C15       -50.7210   -7.0440  -29.5710 C.ar      1 DEQ301      0.0000 
     18 C16       -49.8370   -6.6450  -30.5500 C.ar      1 DEQ301      0.0000 
     19 C17       -49.7330   -5.3410  -30.9750 C.ar      1 DEQ301      0.0000 
     20 C18       -50.5490   -4.3920  -30.4130 C.ar      1 DEQ301      0.0000 
     21 C19       -52.1360   -2.4870  -29.3520 C.3       1 DEQ301      0.0000 
     22 C20       -50.6390   -2.3220  -29.4360 C.3       1 DEQ301      0.0000 
     23 C21       -50.2220   -0.9840  -29.9560 C.3       1 DEQ301      0.0000 
     24 C22       -48.7550   -0.8200  -29.6780 C.3       1 DEQ301      0.0000 
     25 C23       -48.4720   -0.5920  -28.2150 C.3       1 DEQ301      0.0000 
     26 C24       -47.0200   -0.2110  -28.0420 C.3       1 DEQ301      0.0000 
     27 C25       -46.8700    0.7210  -26.8770 C.3       1 DEQ301      0.0000 
     28 C26       -45.4290    0.8090  -26.4480 C.3       1 DEQ301      0.0000 
     29 C27       -44.6950   -0.4820  -26.6710 C.3       1 DEQ301      0.0000 
     30 C28       -44.1940   -0.9990  -25.3450 C.3       1 DEQ301      0.0000 
     31 C30       -44.1680   -3.6190  -26.5890 C.3       1 DEQ301      0.0000 
     32 C29       -54.1140   -3.2390  -27.2250 C.3       1 DEQ301      0.0000 
     33 N4        -40.7140   -4.5280  -23.3260 N.pl3     1 DEQ301      0.0000 
     34 N3        -52.4420   -7.8910  -27.6340 N.pl3     1 DEQ301      0.0000 
     35 H         -42.2790    0.6991  -25.0562 H         1 DEQ301      0.0000 
     36 H         -40.6054    1.4384  -23.5014 H         1 DEQ301      0.0000 
     37 H         -39.3361   -0.1588  -22.2361 H         1 DEQ301      0.0000 
     38 H         -39.7572   -2.5151  -22.5260 H         1 DEQ301      0.0000 
     39 H         -42.5839   -5.0001  -25.0848 H         1 DEQ301      0.0000 
     40 H         -53.9137   -5.8204  -26.7282 H         1 DEQ301      0.0000 
     41 H         -50.7599   -8.0338  -29.2881 H         1 DEQ301      0.0000 
     42 H         -49.2147   -7.3706  -30.9911 H         1 DEQ301      0.0000 
     43 H         -49.0548   -5.0834  -31.7016 H         1 DEQ301      0.0000 
     44 H         -50.4881   -3.4070  -30.7275 H         1 DEQ301      0.0000 
     45 H         -52.5261   -1.7664  -28.6616 H         1 DEQ301      0.0000 
     46 H         -52.5542   -2.3614  -30.3305 H         1 DEQ301      0.0000 
     47 H         -50.2271   -3.1144  -30.0864 H         1 DEQ301      0.0000 
     48 H         -50.2044   -2.4787  -28.4325 H         1 DEQ301      0.0000 
     49 H         -50.7775   -0.2027  -29.4527 H         1 DEQ301      0.0000 
     50 H         -50.3985   -0.9311  -31.0230 H         1 DEQ301      0.0000 
     51 H         -48.3662    0.0301  -30.2580 H         1 DEQ301      0.0000 
     52 H         -48.2169   -1.7187  -30.0143 H         1 DEQ301      0.0000 
     53 H         -48.6771   -1.5013  -27.6574 H         1 DEQ301      0.0000 
     54 H         -49.1038    0.2086  -27.8413 H         1 DEQ301      0.0000 
     55 H         -46.6643    0.2748  -28.9508 H         1 DEQ301      0.0000 
     56 H         -46.4291   -1.1113  -27.8722 H         1 DEQ301      0.0000 
     57 H         -47.4759    0.3627  -26.0399 H         1 DEQ301      0.0000 
     58 H         -47.2265    1.7168  -27.1553 H         1 DEQ301      0.0000 
     59 H         -45.3841    1.0753  -25.3825 H         1 DEQ301      0.0000 
     60 H         -44.9325    1.6130  -27.0095 H         1 DEQ301      0.0000 
     61 H         -43.8527   -0.3155  -27.3364 H         1 DEQ301      0.0000 
     62 H         -45.3644   -1.2131  -27.1153 H         1 DEQ301      0.0000 
     63 H         -44.0429   -0.1532  -24.6750 H         1 DEQ301      0.0000 
     64 H         -44.9513   -1.6552  -24.9174 H         1 DEQ301      0.0000 
     65 H         -40.0255   -4.1560  -22.7034 H         1 DEQ301      0.0000 
     66 H         -40.9400   -5.4889  -23.4862 H         1 DEQ301      0.0000 
     67 H         -53.1302   -8.1418  -26.9532 H         1 DEQ301      0.0000 
     68 H         -51.7712   -8.4869  -28.0756 H         1 DEQ301      0.0000 
     69 H         -43.7542   -4.1925  -27.2960 H         1 DEQ301      0.0000 
     70 H         -44.8493   -4.1797  -26.1183 H         1 DEQ301      0.0000 
     71 H         -44.6635   -2.8877  -27.0577 H         1 DEQ301      0.0000 
     72 H         -53.6112   -2.5092  -26.7618 H         1 DEQ301      0.0000 
     73 H         -54.7206   -2.8014  -27.8888 H         1 DEQ301      0.0000 
     74 H         -54.6962   -3.6750  -26.5388 H         1 DEQ301      0.0000 
@<TRIPOS>BOND
     1    2    1 ar   
     2    5    1 ar   
     3   35    1 1    
     4    3    2 ar   
     5   36    2 1    
     6    4    3 ar   
     7   37    3 1    
     8    6    4 ar   
     9   38    4 1    
    10    6    5 ar   
    11   10    5 ar   
    12    7    6 ar   
    13    8    7 ar   
    14   33    7 1    
    15    9    8 ar   
    16   39    8 1    
    17   10    9 ar   
    18   31    9 1    
    19   30   10 1    
    20   12   11 ar   
    21   16   11 ar   
    22   17   11 ar   
    23   13   12 ar   
    24   20   12 ar   
    25   14   13 ar   
    26   21   13 1    
    27   15   14 ar   
    28   32   14 1    
    29   16   15 ar   
    30   40   15 1    
    31   34   16 1    
    32   18   17 ar   
    33   41   17 1    
    34   19   18 ar   
    35   42   18 1    
    36   20   19 ar   
    37   43   19 1    
    38   44   20 1    
    39   22   21 1    
    40   45   21 1    
    41   46   21 1    
    42   23   22 1    
    43   47   22 1    
    44   48   22 1    
    45   24   23 1    
    46   49   23 1    
    47   50   23 1    
    48   25   24 1    
    49   51   24 1    
    50   52   24 1    
    51   26   25 1    
    52   53   25 1    
    53   54   25 1    
    54   27   26 1    
    55   55   26 1    
    56   56   26 1    
    57   28   27 1    
    58   57   27 1    
    59   58   27 1    
    60   29   28 1    
    61   59   28 1    
    62   60   28 1    
    63   30   29 1    
    64   61   29 1    
    65   62   29 1    
    66   63   30 1    
    67   64   30 1    
    68   69   31 1    
    69   70   31 1    
    70   71   31 1    
    71   72   32 1    
    72   73   32 1    
    73   74   32 1    
    74   65   33 1    
    75   66   33 1    
    76   67   34 1    
    77   68   34 1    
@<TRIPOS>SUBSTRUCTURE
     1 DEQ301      1 GROUP   
@<TRIPOS>SET

