#    Name: 3wcz_NAP_1_INTS_M
#    Modification time : Tue Mar 25 02:29:32 2014

@<TRIPOS>MOLECULE
3wcz_NAP_1_INTS_M
  113     0    12     0     0
SMALL
NO_CHARGES


@<TRIPOS>ATOM
      1 N          17.9935   11.5620    7.1575 N.am      2 SEC2        0.0000 
      2 N          16.6840   11.7820    6.7020 N.am     10 SEL2        0.0000 
      3 N          19.3030   11.3420    7.6130 N.am      6 SEP2        0.0000 
      4 NZ         13.1425   11.8945    5.1940 N.4       3 LYC4        0.0000 
      5 NZ         14.1790   11.8420    6.1210 N.4      11 LYL4        0.0000 
      6 NZ         12.0080   11.3010    3.1130 N.4       7 LYP4        0.0000 
      7 N          13.5070   13.1645    6.9120 N.am      2 SEC2        0.0000 
      8 N          14.1790   11.8420    6.1210 N.am     10 SEL2        0.0000 
      9 N          12.8350   14.4870    7.7030 N.am      6 SEP2        0.0000 
     10 N          13.1425   11.8945    5.1940 N.am      2 SEC2        0.0000 
     11 N          12.1060   11.9470    4.2670 N.am      6 SEP2        0.0000 
     12 CA         18.6025   11.1265    3.5305 C.3       4 GLC5        0.0000 
     13 CA         17.0100   12.3000    3.7160 C.3      12 GLL5        0.0000 
     14 CA         20.1950    9.9530    3.3450 C.3       8 GLP5        0.0000 
     15 CA         15.3055   13.9435    2.3110 C.3       4 GLC5        0.0000 
     16 CA         17.1050   13.1970    2.4910 C.3      12 GLL5        0.0000 
     17 CA         13.5060   14.6900    2.1310 C.3       8 GLP5        0.0000 
     18 CA         17.4885   11.2735    0.8545 C.3       4 GLC5        0.0000 
     19 CA         18.2170   12.9190    1.5540 C.3      12 GLL5        0.0000 
     20 CA         16.7600    9.6280    0.1550 C.3       8 GLP5        0.0000 
     21 CA         16.5595   15.9905    2.3560 C.3       4 GLC5        0.0000 
     22 CA         18.3990   15.1020    2.3270 C.3      12 GLL5        0.0000 
     23 CA         14.7200   16.8790    2.3850 C.3       8 GLP5        0.0000 
     24 N          20.6535   16.4400    6.4985 N.am      2 SEC2        0.0000 
     25 N          19.9420   16.6380    5.1850 N.am     10 SEL2        0.0000 
     26 N          21.3650   16.2420    7.8120 N.am      6 SEP2        0.0000 
     27 O          20.4550   18.9950    7.2180 O.2       1 ALC1        0.0000 
     28 O          20.0660   19.6520    6.0310 O.2       9 ALL1        0.0000 
     29 O          20.8440   18.3380    8.4050 O.2       5 ALP1        0.0000 
     30 CA         16.4960   18.1815    2.6500 C.3       4 GLC5        0.0000 
     31 CA         18.2720   19.4840    2.9150 C.3      12 GLL5        0.0000 
     32 CA         20.2055   19.1365    2.7240 C.3       4 GLC5        0.0000 
     33 CA         22.1390   18.7890    2.5330 C.3       8 GLP5        0.0000 
     34 CA         16.7700   17.0985    2.9015 C.3       4 GLC5        0.0000 
     35 CA         18.8200   17.3180    3.4180 C.3      12 GLL5        0.0000 
     36 NZ         13.2940    9.3435    3.9085 N.4       3 LYC4        0.0000 
     37 NZ         13.8800    8.4820    4.9060 N.4      11 LYL4        0.0000 
     38 N          12.7270    8.3555    5.7430 N.am      2 SEC2        0.0000 
     39 N          13.8800    8.4820    4.9060 N.am     10 SEL2        0.0000 
     40 N          11.5740    8.2290    6.5800 N.am      6 SEP2        0.0000 
     41 N          13.2940    9.3435    3.9085 N.am      2 SEC2        0.0000 
     42 N          12.7080   10.2050    2.9110 N.am      6 SEP2        0.0000 
     43 N          13.9460    8.8930    8.0495 N.am      2 SEC2        0.0000 
     44 N          15.1300    8.5430    7.0340 N.am     10 SEL2        0.0000 
     45 N          12.7620    9.2430    9.0650 N.am      6 SEP2        0.0000 
     46 CA         14.3055    9.4215    7.9020 C.3       4 GLC5        0.0000 
     47 CA         16.2360    8.7250    7.8530 C.3      12 GLL5        0.0000 
     48 CA         12.3750   10.1180    7.9510 C.3       8 GLP5        0.0000 
     49 CA         15.2740   10.2055    8.6630 C.3       4 GLC5        0.0000 
     50 CA         14.3120   11.6860    9.4730 C.3       8 GLP5        0.0000 
     51 CA         17.5865    7.6715   10.1970 C.3       4 GLC5        0.0000 
     52 CA         16.7830    7.4560    8.5200 C.3      12 GLL5        0.0000 
     53 CA         18.3900    7.8870   11.8740 C.3       8 GLP5        0.0000 
     54 N          19.0450    5.4655    6.4150 N.am      2 SEC2        0.0000 
     55 N          18.2450    6.5770    6.7990 N.am     10 SEL2        0.0000 
     56 N          19.8450    4.3540    6.0310 N.am      6 SEP2        0.0000 
     57 CA         17.2515    3.2130    8.1095 C.3       4 GLC5        0.0000 
     58 CA         17.1750    5.2100    8.4870 C.3      12 GLL5        0.0000 
     59 CA         17.3280    1.2160    7.7320 C.3       8 GLP5        0.0000 
     60 N          19.8685    5.4590    8.5375 N.am      2 SEC2        0.0000 
     61 N          18.3650    5.2460    9.2230 N.am     10 SEL2        0.0000 
     62 N          21.3720    5.6720    7.8520 N.am      6 SEP2        0.0000 
     63 O          18.3530    4.5195   10.3880 O.2       1 ALC1        0.0000 
     64 O          18.3650    5.2460    9.2230 O.2       9 ALL1        0.0000 
     65 O          18.3410    3.7930   11.5530 O.2       5 ALP1        0.0000 
     66 CA         14.4070    6.1645   10.1915 C.3       4 GLC5        0.0000 
     67 CA         15.9760    5.4650    9.3740 C.3      12 GLL5        0.0000 
     68 CA         12.8380    6.8640   11.0090 C.3       8 GLP5        0.0000 
     69 NZ         21.5955   13.7885   -1.8035 N.4       3 LYC4        0.0000 
     70 NZ         22.2660   14.4870   -0.3000 N.4      11 LYL4        0.0000 
     71 NZ         20.9250   13.0900   -3.3070 N.4       7 LYP4        0.0000 
     72 NZ         22.7330   15.8415   -0.4460 N.4       3 LYC4        0.0000 
     73 NZ         22.9620   18.1550    0.2890 N.4       7 LYP4        0.0000 
     74 N          22.7330   15.8415   -0.4460 N.am      2 SEC2        0.0000 
     75 N          22.2660   14.4870   -0.3000 N.am     10 SEL2        0.0000 
     76 N          23.2000   17.1960   -0.5920 N.am      6 SEP2        0.0000 
     77 NZ         22.3110   16.4795    1.7900 N.4       3 LYC4        0.0000 
     78 NZ         22.1260   15.1160    2.0870 N.4      11 LYL4        0.0000 
     79 N          22.9755   14.8805    3.0750 N.am      2 SEC2        0.0000 
     80 N          22.1260   15.1160    2.0870 N.am     10 SEL2        0.0000 
     81 N          23.8250   14.6450    4.0630 N.am      6 SEP2        0.0000 
     82 N          22.3110   16.4795    1.7900 N.am      2 SEC2        0.0000 
     83 N          22.4960   17.8430    1.4930 N.am      6 SEP2        0.0000 
     84 NZ         21.4600   11.4505    1.2265 N.4       3 LYC4        0.0000 
     85 NZ         22.0250   12.6940    1.4850 N.4      11 LYL4        0.0000 
     86 NZ         20.8950   10.2070    0.9680 N.4       7 LYP4        0.0000 
     87 N          21.4600   11.4505    1.2265 N.am      2 SEC2        0.0000 
     88 N          22.0250   12.6940    1.4850 N.am     10 SEL2        0.0000 
     89 N          20.8950   10.2070    0.9680 N.am      6 SEP2        0.0000 
     90 N          23.2300   12.3010    2.2050 N.am      2 SEC2        0.0000 
     91 N          24.4350   11.9080    2.9250 N.am      6 SEP2        0.0000 
     92 CA         16.3113   11.2367    2.1013 C.3       4 GLC5        0.0000 
     93 CA         15.5650    9.7250    1.0990 C.3       8 GLP5        0.0000 
     94 CA         16.6013   14.0053    4.7363 C.3       4 GLC5        0.0000 
     95 CA         16.1450   15.2620    6.3690 C.3       8 GLP5        0.0000 
     96 CA         19.4562   11.6817    2.5438 C.3       4 GLC5        0.0000 
     97 CA         20.6379   18.3335    3.3034 C.3       4 GLC5        0.0000 
     98 CA         19.4510   17.7580    4.5670 C.3      12 GLL5        0.0000 
     99 CA         18.0310    4.7603    6.5575 C.3       4 GLC5        0.0000 
    100 CA         17.0930    6.3350    7.5810 C.3      12 GLL5        0.0000 
    101 CA         18.9280    3.7480    5.0810 C.3       8 GLP5        0.0000 
    102 CA         18.1261    8.4529    6.8264 C.3       4 GLC5        0.0000 
    103 CA         19.4510    9.6930    5.7690 C.3       8 GLP5        0.0000 
    104 CA         18.8528    6.8234    8.6899 C.3       4 GLC5        0.0000 
    105 CA         20.6490    7.5940    9.1110 C.3       8 GLP5        0.0000 
    106 CA         17.4827    6.6122   10.4023 C.3       4 GLC5        0.0000 
    107 CA         13.2072    5.2193   10.2662 C.3       4 GLC5        0.0000 
    108 CA         14.1840    3.8430    9.6950 C.3      12 GLL5        0.0000 
    109 CA         11.0245    4.7797    6.7640 C.3       4 GLC5        0.0000 
    110 CA         12.7760    4.8560    7.5140 C.3      12 GLL5        0.0000 
    111 CA          9.5320    5.2480    5.6570 C.3       8 GLP5        0.0000 
    112 CA         13.0462    5.8541    9.4567 C.3       4 GLC5        0.0000 
    113 CA         12.2580    3.7670    8.2280 C.3      12 GLL5        0.0000 
@<TRIPOS>BOND
@<TRIPOS>SUBSTRUCTURE
     1 ALC1       27 GROUP        1 X    ALC  0     ROOT ALC X 1
     2 SEC2        1 GROUP        1 X    SEC  0     **** SEC X 2
     3 LYC4        4 GROUP        1 X    LYC  0     **** LYC X 4
     4 GLC5       12 GROUP        1 X    GLC  0     **** GLC X 6
     5 ALP1       29 GROUP        1 Y    ALP  0     ROOT ALP Y 8
     6 SEP2        3 GROUP        1 Y    SEP  0     **** SEP Y 9
     7 LYP4        6 GROUP        1 Y    LYP  0     **** LYP Y 11
     8 GLP5       14 GROUP        1 Y    GLP  0     **** GLP Y 13
     9 ALL1       28 GROUP        1 Z    ALL  0     ROOT ALL Z 15
    10 SEL2        2 GROUP        1 Z    SEL  0     **** SEL Z 16
    11 LYL4        5 GROUP        1 Z    LYL  0     **** LYL Z 18
    12 GLL5       13 GROUP        1 Z    GLL  0     **** GLL Z 20
@<TRIPOS>SET

