#    Name: 3wcz_NAP_1_ligand
#    Modification time : Tue Mar 25 02:29:32 2014

@<TRIPOS>MOLECULE
3wcz_NAP_1_ligand
   73    77     1     0     0
SMALL
NO_CHARGES


@<TRIPOS>ATOM
      1 PA         15.5680   11.6480    5.7520 P.3       1 NAP401      0.0000 
      2 O1A        16.6840   11.7820    6.7020 O.co2     1 NAP401      0.0000 
      3 O2A        14.1790   11.8420    6.1210 O.co2     1 NAP401      0.0000 
      4 O5B        15.8070   12.4150    4.4140 O.3       1 NAP401      0.0000 
      5 C5B        17.0100   12.3000    3.7160 C.3       1 NAP401      0.0000 
      6 C4B        17.1050   13.1970    2.4910 C.3       1 NAP401      0.0000 
      7 O4B        17.2350   14.5690    2.9110 O.3       1 NAP401      0.0000 
      8 C3B        18.2170   12.9190    1.5540 C.3       1 NAP401      0.0000 
      9 O3B        17.7240   13.1300    0.2530 O.3       1 NAP401      0.0000 
     10 C2B        19.2180   13.9020    1.9310 C.3       1 NAP401      0.0000 
     11 O2B        20.1320   14.2280    0.9030 O.3       1 NAP401      0.0000 
     12 C1B        18.3990   15.1020    2.3270 C.3       1 NAP401      0.0000 
     13 N9A        18.9730   15.9900    3.3160 N.pl3     1 NAP401      0.0000 
     14 C8A        19.6490   15.6070    4.4190 C.2       1 NAP401      0.0000 
     15 N7A        19.9420   16.6380    5.1850 N.2       1 NAP401      0.0000 
     16 C5A        19.4510   17.7580    4.5670 C.ar      1 NAP401      0.0000 
     17 C6A        19.4560   19.1180    4.8920 C.ar      1 NAP401      0.0000 
     18 N6A        20.0660   19.6520    6.0310 N.pl3     1 NAP401      0.0000 
     19 N1A        18.8570   19.9470    4.0190 N.ar      1 NAP401      0.0000 
     20 C2A        18.2720   19.4840    2.9150 C.ar      1 NAP401      0.0000 
     21 N3A        18.2360   18.1840    2.5760 N.ar      1 NAP401      0.0000 
     22 C4A        18.8200   17.3180    3.4180 C.ar      1 NAP401      0.0000 
     23 O3         15.7110   10.1570    5.1330 O.3       1 NAP401      0.0000 
     24 PN         15.2510    8.6660    5.4540 P.3       1 NAP401      0.0000 
     25 O1N        16.3570    7.8140    4.9490 O.co2     1 NAP401      0.0000 
     26 O2N        13.8800    8.4820    4.9060 O.co2     1 NAP401      0.0000 
     27 O5D        15.1300    8.5430    7.0340 O.3       1 NAP401      0.0000 
     28 C5D        16.2360    8.7250    7.8530 C.3       1 NAP401      0.0000 
     29 C4D        16.7830    7.4560    8.5200 C.3       1 NAP401      0.0000 
     30 O4D        15.8350    6.8900    9.4060 O.3       1 NAP401      0.0000 
     31 C3D        17.0930    6.3350    7.5810 C.3       1 NAP401      0.0000 
     32 O3D        18.2450    6.5770    6.7990 O.3       1 NAP401      0.0000 
     33 C2D        17.1750    5.2100    8.4870 C.3       1 NAP401      0.0000 
     34 O2D        18.3650    5.2460    9.2230 O.3       1 NAP401      0.0000 
     35 C1D        15.9760    5.4650    9.3740 C.3       1 NAP401      0.0000 
     36 N1N        14.6850    4.8780    8.9960 N.pl3     1 NAP401      0.0000 
     37 C2N        14.1840    3.8430    9.6950 C.ar      1 NAP401      0.0000 
     38 C3N        12.9690    3.3060    9.3520 C.ar      1 NAP401      0.0000 
     39 C7N        12.4650    2.2020   10.2020 C.2       1 NAP401      0.0000 
     40 O7N        12.8540    2.0270   11.3820 O.2       1 NAP401      0.0000 
     41 N7N        11.4510    1.4730    9.6910 N.am      1 NAP401      0.0000 
     42 C4N        12.2580    3.7670    8.2280 C.ar      1 NAP401      0.0000 
     43 C5N        12.7760    4.8560    7.5140 C.ar      1 NAP401      0.0000 
     44 C6N        13.9920    5.3770    7.9380 C.ar      1 NAP401      0.0000 
     45 P2B        21.7190   14.1180    1.0930 P.3       1 NAP401      0.0000 
     46 O1X        22.2660   14.4870   -0.3000 O.co2     1 NAP401      0.0000 
     47 O2X        22.1260   15.1160    2.0870 O.co2     1 NAP401      0.0000 
     48 O3X        22.0250   12.6940    1.4850 O.co2     1 NAP401      0.0000 
     49 H          17.1905   11.2522    3.3664 H         1 NAP401      0.0000 
     50 H          17.8917   12.5388    4.3629 H         1 NAP401      0.0000 
     51 H          16.1525   13.1060    1.9354 H         1 NAP401      0.0000 
     52 H          18.5660   11.9400    1.7239 H         1 NAP401      0.0000 
     53 H          19.7194   13.5619    2.8345 H         1 NAP401      0.0000 
     54 H          18.1266   15.6454    1.4322 H         1 NAP401      0.0000 
     55 H          19.8867   14.6647    4.6126 H         1 NAP401      0.0000 
     56 H          19.9746   20.6398    6.1570 H         1 NAP401      0.0000 
     57 H          20.5414   19.0003    6.6220 H         1 NAP401      0.0000 
     58 H          17.8012   20.1857    2.2555 H         1 NAP401      0.0000 
     59 H          16.0292    9.4544    8.6851 H         1 NAP401      0.0000 
     60 H          17.0999    9.1872    7.2987 H         1 NAP401      0.0000 
     61 H          17.6889    7.7040    9.0630 H         1 NAP401      0.0000 
     62 H          16.1945    6.2053    6.9633 H         1 NAP401      0.0000 
     63 H          17.0064    4.3091    7.9620 H         1 NAP401      0.0000 
     64 H          16.2471    5.1414   10.3936 H         1 NAP401      0.0000 
     65 H          14.7088    3.4417   10.4973 H         1 NAP401      0.0000 
     66 H          11.1203    1.7507    8.7890 H         1 NAP401      0.0000 
     67 H          11.1203    0.7198   10.2597 H         1 NAP401      0.0000 
     68 H          11.3948    3.3213    7.9449 H         1 NAP401      0.0000 
     69 H          12.2813    5.2418    6.7247 H         1 NAP401      0.0000 
     70 H          14.3861    6.1987    7.4058 H         1 NAP401      0.0000 
     71 H          18.4927   13.5183   -0.2551 H         1 NAP401      0.0000 
     72 H          17.9062    7.0221    5.9701 H         1 NAP401      0.0000 
     73 H          18.1919    4.6713   10.0229 H         1 NAP401      0.0000 
@<TRIPOS>BOND
     1    2    1 ar   
     2    3    1 ar   
     3    4    1 1    
     4   23    1 1    
     5    5    4 1    
     6    6    5 1    
     7   49    5 1    
     8   50    5 1    
     9    7    6 1    
    10    8    6 1    
    11   51    6 1    
    12   12    7 1    
    13    9    8 1    
    14   10    8 1    
    15   52    8 1    
    16   71    9 1    
    17   11   10 1    
    18   12   10 1    
    19   53   10 1    
    20   45   11 1    
    21   13   12 1    
    22   54   12 1    
    23   14   13 1    
    24   22   13 1    
    25   15   14 2    
    26   55   14 1    
    27   16   15 1    
    28   17   16 ar   
    29   22   16 ar   
    30   18   17 1    
    31   19   17 ar   
    32   56   18 1    
    33   57   18 1    
    34   20   19 ar   
    35   21   20 ar   
    36   58   20 1    
    37   22   21 ar   
    38   24   23 1    
    39   25   24 ar   
    40   26   24 ar   
    41   27   24 1    
    42   28   27 1    
    43   29   28 1    
    44   59   28 1    
    45   60   28 1    
    46   30   29 1    
    47   31   29 1    
    48   61   29 1    
    49   35   30 1    
    50   32   31 1    
    51   33   31 1    
    52   62   31 1    
    53   72   32 1    
    54   34   33 1    
    55   35   33 1    
    56   63   33 1    
    57   73   34 1    
    58   36   35 1    
    59   64   35 1    
    60   37   36 ar   
    61   44   36 ar   
    62   38   37 ar   
    63   65   37 1    
    64   39   38 1    
    65   42   38 ar   
    66   40   39 2    
    67   41   39 am   
    68   66   41 1    
    69   67   41 1    
    70   43   42 ar   
    71   68   42 1    
    72   44   43 ar   
    73   69   43 1    
    74   70   44 1    
    75   46   45 ar   
    76   47   45 ar   
    77   48   45 ar   
@<TRIPOS>SUBSTRUCTURE
     1 NAP401      1 GROUP   
@<TRIPOS>SET

