#    Name: 3f90_FMN_2_INTS_M
#    Modification time : Tue Mar 25 03:26:57 2014

@<TRIPOS>MOLECULE
3f90_FMN_2_INTS_M
   76     0     9     0     0
SMALL
NO_CHARGES


@<TRIPOS>ATOM
      1 N         -38.7055  -17.6360    6.6700 N.am      2 SEC2        0.0000 
      2 N         -39.2920  -16.1620    6.8110 N.am      8 SEL2        0.0000 
      3 N         -38.1190  -19.1100    6.5290 N.am      5 SEP2        0.0000 
      4 N         -39.5770  -18.3360    6.4750 N.am      2 SEC2        0.0000 
      5 N         -41.0350  -17.5620    6.4210 N.am      8 SEL2        0.0000 
      6 N         -42.3230  -18.0245    5.7010 N.am      2 SEC2        0.0000 
      7 N         -43.6110  -18.4870    4.9810 N.am      5 SEP2        0.0000 
      8 O         -42.6710  -16.3435    7.9725 O.2       1 ALC1        0.0000 
      9 O         -41.4510  -15.8070    7.7730 O.2       7 ALL1        0.0000 
     10 O         -43.8910  -16.8800    8.1720 O.2       4 ALP1        0.0000 
     11 N         -40.1965  -12.0250    8.3820 N.am      2 SEC2        0.0000 
     12 N         -39.2030  -13.1260    8.8630 N.am      8 SEL2        0.0000 
     13 N         -41.1900  -10.9240    7.9010 N.am      5 SEP2        0.0000 
     14 CA        -34.3055   -8.4580    9.1965 C.3       3 GLC5        0.0000 
     15 CA        -35.6660   -9.8410    9.6180 C.3       9 GLL5        0.0000 
     16 CA        -32.9450   -7.0750    8.7750 C.3       6 GLP5        0.0000 
     17 CA        -35.8900  -10.0825    7.4960 C.3       3 GLC5        0.0000 
     18 CA        -36.1140  -10.3240    5.3740 C.3       6 GLP5        0.0000 
     19 CA        -32.2085  -11.2770    7.9195 C.3       3 GLC5        0.0000 
     20 CA        -33.7770  -11.6610    8.3910 C.3       9 GLL5        0.0000 
     21 CA        -30.6400  -10.8930    7.4480 C.3       6 GLP5        0.0000 
     22 CA        -32.4420  -11.9655   10.0270 C.3       3 GLC5        0.0000 
     23 CA        -31.1070  -12.2700   11.6630 C.3       6 GLP5        0.0000 
     24 CA        -34.2760  -11.1570    6.8330 C.3       3 GLC5        0.0000 
     25 CA        -34.7750  -10.6530    5.2750 C.3       6 GLP5        0.0000 
     26 CA        -36.5600  -17.2695    7.5690 C.3       3 GLC5        0.0000 
     27 CA        -36.5380  -15.6170    6.6970 C.3       9 GLL5        0.0000 
     28 CA        -36.5820  -18.9220    8.4410 C.3       6 GLP5        0.0000 
     29 CA        -36.7315  -15.6600    8.7180 C.3       3 GLC5        0.0000 
     30 CA        -36.9250  -15.7030   10.7390 C.3       6 GLP5        0.0000 
     31 O         -38.2050  -14.2395    4.6735 O.2       1 ALC1        0.0000 
     32 O         -37.4430  -15.2250    4.5150 O.2       7 ALL1        0.0000 
     33 O         -38.9670  -13.2540    4.8320 O.2       4 ALP1        0.0000 
     34 CA        -36.0595  -17.7405    1.5635 C.3       3 GLC5        0.0000 
     35 CA        -35.4500  -16.4900    3.1530 C.3       9 GLL5        0.0000 
     36 CA        -36.6690  -18.9910   -0.0260 C.3       6 GLP5        0.0000 
     37 N         -33.4170  -17.7605    2.1240 N.am      2 SEC2        0.0000 
     38 N         -34.7040  -17.5980    2.6970 N.am      8 SEL2        0.0000 
     39 N         -32.1300  -17.9230    1.5510 N.am      5 SEP2        0.0000 
     40 O         -35.2150  -18.4860    1.8300 O.2       1 ALC1        0.0000 
     41 O         -34.7040  -17.5980    2.6970 O.2       7 ALL1        0.0000 
     42 O         -35.7260  -19.3740    0.9630 O.2       4 ALP1        0.0000 
     43 CA        -34.0620  -16.5535    0.8685 C.3       3 GLC5        0.0000 
     44 CA        -34.9980  -15.2490    2.4010 C.3       9 GLL5        0.0000 
     45 CA        -33.1260  -17.8580   -0.6640 C.3       6 GLP5        0.0000 
     46 CA        -36.5730  -14.7815    1.3010 C.3       3 GLC5        0.0000 
     47 CA        -38.1480  -14.3140    0.2010 C.3       6 GLP5        0.0000 
     48 CA        -35.0130  -13.3335    2.7000 C.3       3 GLC5        0.0000 
     49 CA        -35.0280  -11.4180    2.9990 C.3       6 GLP5        0.0000 
     50 N         -32.4835  -13.3020   -0.1665 N.am      2 SEC2        0.0000 
     51 N         -33.0800  -14.6850    0.0300 N.am      8 SEL2        0.0000 
     52 N         -31.8870  -11.9190   -0.3630 N.am      5 SEP2        0.0000 
     53 N         -32.0705  -14.4565    0.7800 N.am      2 SEC2        0.0000 
     54 N         -31.0610  -14.2280    1.5300 N.am      5 SEP2        0.0000 
     55 N         -32.6055  -15.4775   -1.1155 N.am      2 SEC2        0.0000 
     56 N         -32.1310  -16.2700   -2.2610 N.am      5 SEP2        0.0000 
     57 N         -34.6005  -12.0930   -0.7270 N.am      2 SEC2        0.0000 
     58 N         -34.9870  -13.1000    0.1670 N.am      8 SEL2        0.0000 
     59 N         -34.2140  -11.0860   -1.6210 N.am      5 SEP2        0.0000 
     60 N         -33.4370  -12.5095   -0.0980 N.am      2 SEC2        0.0000 
     61 N         -36.3935  -13.0330    0.0700 N.am      2 SEC2        0.0000 
     62 N         -37.8000  -12.9660   -0.0270 N.am      5 SEP2        0.0000 
     63 N         -34.4990  -14.4925   -2.5535 N.am      2 SEC2        0.0000 
     64 N         -35.0190  -14.9600   -1.4520 N.am      8 SEL2        0.0000 
     65 N         -33.9790  -14.0250   -3.6550 N.am      5 SEP2        0.0000 
     66 N         -34.9105  -15.9495   -2.3065 N.am      2 SEC2        0.0000 
     67 N         -34.8020  -16.9390   -3.1610 N.am      5 SEP2        0.0000 
     68 N         -36.2390  -15.6290   -1.8925 N.am      2 SEC2        0.0000 
     69 N         -37.4590  -16.2980   -2.3330 N.am      5 SEP2        0.0000 
     70 CA        -38.8418  -11.5160    7.3960 C.3       3 GLC5        0.0000 
     71 CA        -37.8880  -12.7440    8.6920 C.3       9 GLL5        0.0000 
     72 CA        -40.0300  -10.8590    5.7840 C.3       6 GLP5        0.0000 
     73 CA        -37.4052  -17.0130    5.0870 C.3       3 GLC5        0.0000 
     74 CA        -38.4240  -18.5790    4.2040 C.3       6 GLP5        0.0000 
     75 CA        -36.8937  -17.4905    4.0553 C.3       3 GLC5        0.0000 
     76 CA        -35.2770  -16.3140    4.6600 C.3       9 GLL5        0.0000 
@<TRIPOS>BOND
@<TRIPOS>SUBSTRUCTURE
     1 ALC1        8 GROUP        1 X    ALC  0     ROOT ALC X 1
     2 SEC2        1 GROUP        1 X    SEC  0     **** SEC X 2
     3 GLC5       14 GROUP        1 X    GLC  0     **** GLC X 6
     4 ALP1       10 GROUP        1 Y    ALP  0     ROOT ALP Y 8
     5 SEP2        3 GROUP        1 Y    SEP  0     **** SEP Y 9
     6 GLP5       16 GROUP        1 Y    GLP  0     **** GLP Y 13
     7 ALL1        9 GROUP        1 Z    ALL  0     ROOT ALL Z 15
     8 SEL2        2 GROUP        1 Z    SEL  0     **** SEL Z 16
     9 GLL5       15 GROUP        1 Z    GLL  0     **** GLL Z 20
@<TRIPOS>SET

