#    Name: 3f90_FMN_2_ligand
#    Modification time : Tue Mar 25 03:26:57 2014

@<TRIPOS>MOLECULE
3f90_FMN_2_ligand
   50    52     1     0     0
SMALL
NO_CHARGES


@<TRIPOS>ATOM
      1 N1        -39.2920  -16.1620    6.8110 N.2       1 FMN150      0.0000 
      2 C2        -40.6070  -16.5540    6.9800 C.2       1 FMN150      0.0000 
      3 O2        -41.0350  -17.5620    6.4210 O.2       1 FMN150      0.0000 
      4 N3        -41.4510  -15.8070    7.7730 N.am      1 FMN150      0.0000 
      5 C4        -41.0020  -14.6680    8.4110 C.2       1 FMN150      0.0000 
      6 O4        -41.6900  -14.1750    9.3050 O.2       1 FMN150      0.0000 
      7 C4A       -39.6760  -14.2680    8.2410 C.2       1 FMN150      0.0000 
      8 N5        -39.2030  -13.1260    8.8630 N.2       1 FMN150      0.0000 
      9 C5A       -37.8880  -12.7440    8.6920 C.ar      1 FMN150      0.0000 
     10 C6        -37.4190  -11.6020    9.3240 C.ar      1 FMN150      0.0000 
     11 C7        -36.1000  -11.2020    9.1560 C.ar      1 FMN150      0.0000 
     12 C7M       -35.6660   -9.8410    9.6180 C.3       1 FMN150      0.0000 
     13 C8        -35.2480  -11.9510    8.3570 C.ar      1 FMN150      0.0000 
     14 C8M       -33.7770  -11.6610    8.3910 C.3       1 FMN150      0.0000 
     15 C9        -35.7190  -13.0980    7.7270 C.ar      1 FMN150      0.0000 
     16 C9A       -37.0390  -13.4950    7.8910 C.ar      1 FMN150      0.0000 
     17 N10       -37.5090  -14.6300    7.2660 N.pl3     1 FMN150      0.0000 
     18 C10       -38.8230  -15.0200    7.4390 C.2       1 FMN150      0.0000 
     19 C1'       -36.5380  -15.6170    6.6970 C.3       1 FMN150      0.0000 
     20 C2'       -36.2350  -15.2770    5.2430 C.3       1 FMN150      0.0000 
     21 O2'       -37.4430  -15.2250    4.5150 O.3       1 FMN150      0.0000 
     22 C3'       -35.2770  -16.3140    4.6600 C.3       1 FMN150      0.0000 
     23 O3'       -33.9590  -15.9210    4.9670 O.3       1 FMN150      0.0000 
     24 C4'       -35.4500  -16.4900    3.1530 C.3       1 FMN150      0.0000 
     25 O4'       -34.7040  -17.5980    2.6970 O.3       1 FMN150      0.0000 
     26 C5'       -34.9980  -15.2490    2.4010 C.3       1 FMN150      0.0000 
     27 O5'       -35.2460  -15.4740    1.0340 O.3       1 FMN150      0.0000 
     28 P         -34.5730  -14.5290   -0.0790 P.3       1 FMN150      0.0000 
     29 O1P       -33.0800  -14.6850    0.0300 O.co2     1 FMN150      0.0000 
     30 O2P       -34.9870  -13.1000    0.1670 O.co2     1 FMN150      0.0000 
     31 O3P       -35.0190  -14.9600   -1.4520 O.co2     1 FMN150      0.0000 
     32 H         -42.4388  -16.1041    7.8930 H         1 FMN150      0.0000 
     33 H         -38.0511  -11.0479    9.9205 H         1 FMN150      0.0000 
     34 H         -35.0842  -13.6549    7.1360 H         1 FMN150      0.0000 
     35 H         -36.9565  -16.6221    6.7453 H         1 FMN150      0.0000 
     36 H         -35.6087  -15.5963    7.2660 H         1 FMN150      0.0000 
     37 H         -35.7267  -14.3152    5.2349 H         1 FMN150      0.0000 
     38 H         -35.5085  -17.2718    5.1370 H         1 FMN150      0.0000 
     39 H         -36.5110  -16.6283    2.9536 H         1 FMN150      0.0000 
     40 H         -33.9396  -15.0976    2.6121 H         1 FMN150      0.0000 
     41 H         -35.5585  -14.3996    2.7909 H         1 FMN150      0.0000 
     42 H         -34.6951   -9.6805    9.4402 H         1 FMN150      0.0000 
     43 H         -36.1728   -9.1130    9.1563 H         1 FMN150      0.0000 
     44 H         -35.8080   -9.7195   10.6004 H         1 FMN150      0.0000 
     45 H         -33.3947  -11.7871    9.3064 H         1 FMN150      0.0000 
     46 H         -33.2660  -12.2603    7.7748 H         1 FMN150      0.0000 
     47 H         -33.5775  -10.7202    8.1170 H         1 FMN150      0.0000 
     48 H         -37.6442  -14.2503    4.4170 H         1 FMN150      0.0000 
     49 H         -33.3877  -16.6940    4.6911 H         1 FMN150      0.0000 
     50 H         -35.3265  -18.0992    2.0959 H         1 FMN150      0.0000 
@<TRIPOS>BOND
     1    2    1 1    
     2   18    1 2    
     3    3    2 2    
     4    4    2 am   
     5    5    4 am   
     6   32    4 1    
     7    6    5 2    
     8    7    5 1    
     9    8    7 2    
    10   18    7 1    
    11    9    8 1    
    12   10    9 ar   
    13   16    9 ar   
    14   11   10 ar   
    15   33   10 1    
    16   12   11 1    
    17   13   11 ar   
    18   42   12 1    
    19   43   12 1    
    20   44   12 1    
    21   14   13 1    
    22   15   13 ar   
    23   45   14 1    
    24   46   14 1    
    25   47   14 1    
    26   16   15 ar   
    27   34   15 1    
    28   17   16 1    
    29   18   17 1    
    30   19   17 1    
    31   20   19 1    
    32   35   19 1    
    33   36   19 1    
    34   21   20 1    
    35   22   20 1    
    36   37   20 1    
    37   48   21 1    
    38   23   22 1    
    39   24   22 1    
    40   38   22 1    
    41   49   23 1    
    42   25   24 1    
    43   26   24 1    
    44   39   24 1    
    45   50   25 1    
    46   27   26 1    
    47   40   26 1    
    48   41   26 1    
    49   28   27 1    
    50   29   28 ar   
    51   30   28 ar   
    52   31   28 ar   
@<TRIPOS>SUBSTRUCTURE
     1 FMN150      1 GROUP   
@<TRIPOS>SET

