#    Name: 2FJN_1_CAVITY_N1_6.mol2
#    Modification time : Mon Mar 10 12:47:55 2014

@<TRIPOS>MOLECULE
2FJN_1_CAVITY_N1_6.mol2
   95     0     4     0     0
SMALL
NO_CHARGES


@<TRIPOS>ATOM
      1 CA         37.1493   41.8047   52.0495 C.3       3 GLY6        0.0000 
      2 CA         37.5268   41.2026   50.7285 C.3       3 GLY6        0.0000 
      3 N          35.8853   40.9971   52.0563 N.2       1 ALA2        0.0000 
      4 O          37.6907   38.1722   52.1567 O.2       1 ALA2        0.0000 
      5 O          36.9767   39.2836   51.4461 O.2       1 ALA2        0.0000 
      6 N          36.2628   40.3950   50.7354 N.2       1 ALA2        0.0000 
      7 N          35.5489   41.5064   50.0247 N.2       1 ALA2        0.0000 
      8 N          38.0682   37.5700   50.8358 N.2       1 ALA2        0.0000 
      9 N          37.3543   38.6815   50.1251 N.2       1 ALA2        0.0000 
     10 N          36.6403   39.7929   49.4144 N.2       1 ALA2        0.0000 
     11 CA         35.9264   40.9043   48.7038 C.3       3 GLY6        0.0000 
     12 N          39.1597   35.8565   50.2255 N.2       1 ALA2        0.0000 
     13 N          38.4457   36.9679   49.5148 N.2       1 ALA2        0.0000 
     14 CA         37.7318   38.0793   48.8042 C.3       3 GLY6        0.0000 
     15 CA         37.0179   39.1907   48.0935 C.3       3 GLY6        0.0000 
     16 CA         39.5372   35.2544   48.9046 C.3       3 GLY6        0.0000 
     17 CA         33.1522   42.5053   53.9944 C.3       3 GLY6        0.0000 
     18 CA         32.4383   43.6167   53.2837 C.3       3 GLY6        0.0000 
     19 N          33.5298   41.9031   52.6734 N.2       1 ALA2        0.0000 
     20 N          33.9073   41.3010   51.3525 N.2       1 ALA2        0.0000 
     21 N          35.7127   38.4760   51.4529 N.2       1 ALA2        0.0000 
     22 N          34.9988   39.5874   50.7422 N.2       1 ALA2        0.0000 
     23 N          34.2848   40.6988   50.0316 N.2       1 ALA2        0.0000 
     24 DU         37.5181   35.6510   51.5533 H         4 CUB7        0.0000 
     25 DU         36.8042   36.7625   50.8426 H         4 CUB7        0.0000 
     26 DU         36.0902   37.8739   50.1320 H         4 CUB7        0.0000 
     27 DU         35.3763   38.9853   49.4213 H         4 CUB7        0.0000 
     28 O          34.6624   40.0967   48.7106 O.2       1 ALA2        0.0000 
     29 DU         37.8956   35.0489   50.2324 H         4 CUB7        0.0000 
     30 CA         37.1817   36.1603   49.5217 C.3       3 GLY6        0.0000 
     31 CA         36.4678   37.2717   48.8110 C.3       3 GLY6        0.0000 
     32 CA         35.7539   38.3832   48.1003 C.3       3 GLY6        0.0000 
     33 CA         35.0399   39.4946   47.3897 C.3       3 GLY6        0.0000 
     34 CA         38.2732   34.4468   48.9114 C.3       3 GLY6        0.0000 
     35 CA         37.5593   35.5582   48.2008 C.3       3 GLY6        0.0000 
     36 CA         36.8453   36.6696   47.4901 C.3       3 GLY6        0.0000 
     37 CA         36.1314   37.7810   46.7794 C.3       3 GLY6        0.0000 
     38 NZ         38.6507   33.8446   47.5905 N.2       2 LYS4        0.0000 
     39 CA         37.9368   34.9560   46.8798 C.3       3 GLY6        0.0000 
     40 CA         30.7967   43.4112   54.6115 C.3       3 GLY6        0.0000 
     41 N          31.8882   41.6977   54.0012 N.2       1 ALA2        0.0000 
     42 CA         31.1743   42.8091   53.2906 C.3       3 GLY6        0.0000 
     43 CA         30.4603   43.9205   52.5799 C.3       3 GLY6        0.0000 
     44 N          32.2657   41.0955   52.6803 N.2       1 ALA2        0.0000 
     45 N          31.5518   42.2070   51.9696 N.2       1 ALA2        0.0000 
     46 N          33.3572   39.3820   52.0700 N.2       1 ALA2        0.0000 
     47 N          32.6433   40.4934   51.3594 N.2       1 ALA2        0.0000 
     48 N          35.1626   36.5570   52.1704 N.2       1 ALA2        0.0000 
     49 N          34.4487   37.6684   51.4598 N.2       1 ALA2        0.0000 
     50 N          33.7347   38.7798   50.7491 N.2       1 ALA2        0.0000 
     51 N          33.0208   39.8913   50.0384 N.2       1 ALA2        0.0000 
     52 DU         35.5401   35.9549   50.8495 H         4 CUB7        0.0000 
     53 O          34.8262   37.0663   50.1388 O.2       1 ALA2        0.0000 
     54 DU         34.1123   38.1777   49.4281 H         4 CUB7        0.0000 
     55 O          33.3984   39.2891   48.7175 O.2       1 ALA2        0.0000 
     56 DU         35.2038   36.4642   48.8179 H         4 CUB7        0.0000 
     57 CA         34.4898   37.5756   48.1072 C.3       3 GLY6        0.0000 
     58 DU         37.0092   33.6392   48.9183 H         4 CUB7        0.0000 
     59 DU         36.2952   34.7506   48.2076 H         4 CUB7        0.0000 
     60 CA         35.5813   35.8620   47.4969 C.3       3 GLY6        0.0000 
     61 O          34.8674   36.9734   46.7863 O.2       1 ALA2        0.0000 
     62 NZ         37.3867   33.0371   47.5973 N.2       2 LYS4        0.0000 
     63 NZ         36.6728   34.1485   46.8867 N.2       2 LYS4        0.0000 
     64 CA         35.9588   35.2599   46.1760 C.3       3 GLY6        0.0000 
     65 CA         36.3364   34.6577   44.8550 C.3       3 GLY6        0.0000 
     66 O          30.6242   40.8901   54.0081 O.2       1 ALA2        0.0000 
     67 O          31.0017   40.2880   52.6872 O.2       1 ALA2        0.0000 
     68 O          30.2878   41.3994   51.9765 O.2       1 ALA2        0.0000 
     69 O          32.0932   38.5744   52.0769 O.2       1 ALA2        0.0000 
     70 O          31.3792   39.6858   51.3662 O.2       1 ALA2        0.0000 
     71 N          30.6653   40.7972   50.6555 N.2       1 ALA2        0.0000 
     72 O          31.7568   39.0837   50.0453 O.2       1 ALA2        0.0000 
     73 O          34.2761   35.1473   50.8564 O.2       1 ALA2        0.0000 
     74 O          33.5622   36.2587   50.1457 O.2       1 ALA2        0.0000 
     75 O          32.8483   37.3701   49.4350 O.2       1 ALA2        0.0000 
     76 O          32.1343   38.4815   48.7243 O.2       1 ALA2        0.0000 
     77 DU         34.6537   34.5452   49.5354 H         4 CUB7        0.0000 
     78 O          33.9397   35.6566   48.8247 O.2       1 ALA2        0.0000 
     79 O          33.2258   36.7680   48.1141 O.2       1 ALA2        0.0000 
     80 O          32.5119   37.8794   47.4034 O.2       1 ALA2        0.0000 
     81 DU         35.7451   32.8316   48.9251 H         4 CUB7        0.0000 
     82 DU         35.0312   33.9430   48.2145 H         4 CUB7        0.0000 
     83 DU         34.3173   35.0544   47.5038 H         4 CUB7        0.0000 
     84 O          33.6033   36.1659   46.7931 O.2       1 ALA2        0.0000 
     85 NZ         35.4087   33.3409   46.8935 N.2       2 LYS4        0.0000 
     86 N          34.6948   34.4523   46.1828 N.2       1 ALA2        0.0000 
     87 O          33.9809   35.5637   45.4722 O.2       1 ALA2        0.0000 
     88 CA         29.4013   39.9897   50.6624 C.3       3 GLY6        0.0000 
     89 O          33.0121   34.3397   50.8632 O.2       1 ALA2        0.0000 
     90 O          33.3896   33.7376   49.5423 O.2       1 ALA2        0.0000 
     91 O          32.6757   34.8490   48.8316 O.2       1 ALA2        0.0000 
     92 O          31.9618   35.9604   48.1209 O.2       1 ALA2        0.0000 
     93 N          33.7672   33.1354   48.2213 N.2       1 ALA2        0.0000 
     94 N          33.0532   34.2469   47.5106 N.2       1 ALA2        0.0000 
     95 O          32.3393   35.3583   46.8000 O.2       1 ALA2        0.0000 
@<TRIPOS>BOND
@<TRIPOS>SUBSTRUCTURE
     1 ALA2        3 GROUP   
     2 LYS4       38 GROUP   
     3 GLY6        1 GROUP   
     4 CUB7       24 GROUP   
@<TRIPOS>SET

