#    Name: 2fjn_073_1_INTS_M
#    Modification time : Tue Mar 25 12:48:34 2014

@<TRIPOS>MOLECULE
2fjn_073_1_INTS_M
  110     0     9     0     0
SMALL
NO_CHARGES


@<TRIPOS>ATOM
      1 CA         36.0980   48.6835   57.9030 C.3       3 GLC5        0.0000 
      2 CA         36.8440   50.4060   57.7730 C.3       9 GLL5        0.0000 
      3 CA         35.3520   46.9610   58.0330 C.3       6 GLP5        0.0000 
      4 CA         36.8870   50.7200   54.1765 C.3       3 GLC5        0.0000 
      5 CA         36.4750   48.6790   54.8840 C.3       9 GLL5        0.0000 
      6 CA         37.2990   52.7610   53.4690 C.3       6 GLP5        0.0000 
      7 CA         33.5845   49.0265   54.8560 C.3       3 GLC5        0.0000 
      8 CA         35.4220   47.8160   54.4770 C.3       9 GLL5        0.0000 
      9 CA         31.7470   50.2370   55.2350 C.3       6 GLP5        0.0000 
     10 CA         35.1655   46.1360   55.7540 C.3       3 GLC5        0.0000 
     11 CA         35.7190   46.5820   53.8770 C.3       9 GLL5        0.0000 
     12 CA         34.6120   45.6900   57.6310 C.3       6 GLP5        0.0000 
     13 N          41.1670   42.0360   52.9855 N.am      1 SEC2        0.0000 
     14 N          40.2240   43.0710   53.6930 N.am      7 SEL2        0.0000 
     15 N          42.1100   41.0010   52.2780 N.am      4 SEP2        0.0000 
     16 CA         39.9070   41.3750   53.7810 C.3       3 GLC5        0.0000 
     17 CA         39.7500   43.0520   54.9640 C.3       9 GLL5        0.0000 
     18 CA         40.0640   39.6980   52.5980 C.3       6 GLP5        0.0000 
     19 CA         42.1860   42.1155   55.3465 C.3       3 GLC5        0.0000 
     20 CA         40.2170   42.5070   56.1320 C.3       9 GLL5        0.0000 
     21 CA         44.1550   41.7240   54.5610 C.3       6 GLP5        0.0000 
     22 CA         37.7575   42.3745   59.0130 C.3       3 GLC5        0.0000 
     23 CA         38.2480   43.3880   57.3020 C.3       9 GLL5        0.0000 
     24 CA         37.2670   41.3610   60.7240 C.3       6 GLP5        0.0000 
     25 CA         38.1605   41.4920   58.4980 C.3       3 GLC5        0.0000 
     26 CA         39.4760   42.6660   57.3190 C.3       9 GLL5        0.0000 
     27 CA         36.8450   40.3180   59.6770 C.3       6 GLP5        0.0000 
     28 CA         35.9085   44.2395   48.1955 C.3       3 GLC5        0.0000 
     29 CA         36.1640   45.4420   49.6660 C.3       9 GLL5        0.0000 
     30 CA         35.6530   43.0370   46.7250 C.3       6 GLP5        0.0000 
     31 CA         35.3450   45.1350   47.2645 C.3       3 GLC5        0.0000 
     32 CA         35.2650   46.1260   48.8360 C.3       9 GLL5        0.0000 
     33 CA         35.4250   44.1440   45.6930 C.3       6 GLP5        0.0000 
     34 CA         33.6785   45.1355   48.1970 C.3       3 GLC5        0.0000 
     35 CA         32.0920   44.1450   47.5580 C.3       6 GLP5        0.0000 
     36 CA         33.5830   47.7595   49.7745 C.3       3 GLC5        0.0000 
     37 CA         34.1320   48.2590   48.0370 C.3       9 GLL5        0.0000 
     38 CA         33.0340   47.2600   51.5120 C.3       6 GLP5        0.0000 
     39 CA         32.5010   47.0510   49.4545 C.3       3 GLC5        0.0000 
     40 CA         33.0980   47.4290   47.9410 C.3       9 GLL5        0.0000 
     41 CA         31.9040   46.6730   50.9680 C.3       6 GLP5        0.0000 
     42 CA         32.5345   46.8965   46.2490 C.3       3 GLC5        0.0000 
     43 CA         31.9710   46.3640   44.5570 C.3       6 GLP5        0.0000 
     44 CA         32.5950   45.7870   47.7495 C.3       3 GLC5        0.0000 
     45 NZ         35.2370   51.1400   46.7195 N.4       2 LYC4        0.0000 
     46 NZ         35.8200   49.7490   46.4460 N.4       8 LYL4        0.0000 
     47 NZ         33.6030   52.9730   46.3150 N.4       5 LYP4        0.0000 
     48 N          36.6825   50.6005   45.7995 N.am      1 SEC2        0.0000 
     49 N          35.8200   49.7490   46.4460 N.am      7 SEL2        0.0000 
     50 N          37.5450   51.4520   45.1530 N.am      4 SEP2        0.0000 
     51 N          37.1410   49.3390   46.3545 N.am      1 SEC2        0.0000 
     52 N          38.4620   48.9290   46.2630 N.am      4 SEP2        0.0000 
     53 N          35.2370   51.1400   46.7195 N.am      1 SEC2        0.0000 
     54 N          34.6540   52.5310   46.9930 N.am      4 SEP2        0.0000 
     55 N          35.6065   46.6990   44.4985 N.am      1 SEC2        0.0000 
     56 N          35.0700   47.4950   45.6640 N.am      7 SEL2        0.0000 
     57 N          36.1430   45.9030   43.3330 N.am      4 SEP2        0.0000 
     58 N          34.2195   46.7570   45.0080 N.am      1 SEC2        0.0000 
     59 N          33.3690   46.0190   44.3520 N.am      4 SEP2        0.0000 
     60 NZ         33.1885   50.7805   45.5800 N.4       2 LYC4        0.0000 
     61 NZ         33.4700   49.4130   45.6190 N.4       8 LYL4        0.0000 
     62 N          32.6450   48.9545   44.5290 N.am      1 SEC2        0.0000 
     63 N          33.4700   49.4130   45.6190 N.am      7 SEL2        0.0000 
     64 N          31.8200   48.4960   43.4390 N.am      4 SEP2        0.0000 
     65 N          33.1885   50.7805   45.5800 N.am      1 SEC2        0.0000 
     66 N          32.9070   52.1480   45.5410 N.am      4 SEP2        0.0000 
     67 CA         35.0630   50.5800   50.0165 C.3       3 GLC5        0.0000 
     68 CA         33.7430   49.4000   48.6400 C.3       9 GLL5        0.0000 
     69 CA         36.3830   51.7600   51.3930 C.3       6 GLP5        0.0000 
     70 CA         32.7115   51.1615   49.0625 C.3       3 GLC5        0.0000 
     71 CA         31.6800   52.9230   49.4850 C.3       6 GLP5        0.0000 
     72 CA         33.3625   48.9870   50.3070 C.3       3 GLC5        0.0000 
     73 CA         32.9820   48.5740   51.9740 C.3       6 GLP5        0.0000 
     74 CA         36.4875   40.3685   53.0205 C.3       3 GLC5        0.0000 
     75 CA         36.7110   39.7940   50.9520 C.3       9 GLL5        0.0000 
     76 CA         36.2640   40.9430   55.0890 C.3       6 GLP5        0.0000 
     77 CA         35.8188   47.5546   56.3312 C.3       3 GLC5        0.0000 
     78 CA         39.4133   45.8140   51.5690 C.3       3 GLC5        0.0000 
     79 CA         37.5430   44.7870   52.9750 C.3       9 GLL5        0.0000 
     80 CA         41.1030   46.5660   50.8960 C.3       6 GLP5        0.0000 
     81 CA         38.1238   41.8612   55.3185 C.3       3 GLC5        0.0000 
     82 CA         37.2048   42.4045   55.2895 C.3       3 GLC5        0.0000 
     83 CA         38.5120   43.7890   54.8920 C.3       9 GLL5        0.0000 
     84 CA         36.3128   44.6778   57.1630 C.3       3 GLC5        0.0000 
     85 CA         37.7790   43.9430   56.0880 C.3       9 GLL5        0.0000 
     86 CA         37.5630   41.9850   56.1997 C.3       3 GLC5        0.0000 
     87 CA         37.3863   46.2340   48.6675 C.3       3 GLC5        0.0000 
     88 CA         36.9670   46.1260   50.5980 C.3       9 GLL5        0.0000 
     89 CA         38.2070   46.6840   47.2030 C.3       6 GLP5        0.0000 
     90 CA         37.8289   44.1874   49.5924 C.3       3 GLC5        0.0000 
     91 CA         38.8580   42.7880   48.8250 C.3       6 GLP5        0.0000 
     92 CA         36.4361   47.1154   47.8285 C.3       3 GLC5        0.0000 
     93 CA         36.3905   49.8280   50.8215 C.3       3 GLC5        0.0000 
     94 CA         35.9470   48.2480   49.8340 C.3       9 GLL5        0.0000 
     95 CA         37.3025   47.2900   48.7265 C.3       3 GLC5        0.0000 
     96 CA         37.4530   42.5562   50.2308 C.3       3 GLC5        0.0000 
     97 CA         36.5200   42.6230   52.0140 C.3       9 GLL5        0.0000 
     98 CA         36.1256   41.7941   53.4600 C.3       3 GLC5        0.0000 
     99 CA         35.5760   42.0260   51.2590 C.3       9 GLL5        0.0000 
    100 CA         34.4410   39.7895   47.0405 C.3       3 GLC5        0.0000 
    101 CA         35.0430   40.5340   49.3070 C.3       9 GLL5        0.0000 
    102 CA         33.7420   39.6440   45.1360 C.3       6 GLP5        0.0000 
    103 CA         35.4878   41.5162   47.9830 C.3       3 GLC5        0.0000 
    104 CA         35.2370   39.3360   48.5830 C.3       9 GLL5        0.0000 
    105 CA         37.8320   38.2130   48.1050 C.3       3 GLC5        0.0000 
    106 CA         36.1600   38.3640   49.0310 C.3       9 GLL5        0.0000 
    107 CA         39.1330   37.9510   46.5860 C.3       6 GLP5        0.0000 
    108 CA         38.4353   39.4440   51.5913 C.3       3 GLC5        0.0000 
    109 CA         36.9020   38.5860   50.2170 C.3       9 GLL5        0.0000 
    110 CA         37.4587   41.5062   49.6253 C.3       3 GLC5        0.0000 
@<TRIPOS>BOND
@<TRIPOS>SUBSTRUCTURE
     1 SEC2       13 GROUP        1 X    SEC  0     ROOT SEC X 2
     2 LYC4       45 GROUP        1 X    LYC  0     **** LYC X 4
     3 GLC5        1 GROUP        1 X    GLC  0     **** GLC X 6
     4 SEP2       15 GROUP        1 Y    SEP  0     ROOT SEP Y 9
     5 LYP4       47 GROUP        1 Y    LYP  0     **** LYP Y 11
     6 GLP5        3 GROUP        1 Y    GLP  0     **** GLP Y 13
     7 SEL2       14 GROUP        1 Z    SEL  0     ROOT SEL Z 16
     8 LYL4       46 GROUP        1 Z    LYL  0     **** LYL Z 18
     9 GLL5        2 GROUP        1 Z    GLL  0     **** GLL Z 20
@<TRIPOS>SET

