#    Name: 2fjn_073_1_ligand
#    Modification time : Tue Mar 25 12:48:34 2014

@<TRIPOS>MOLECULE
2fjn_073_1_ligand
   69    73     1     0     0
SMALL
NO_CHARGES


@<TRIPOS>ATOM
      1 O71        35.2030   50.6020   55.2820 O.2       1 073401      0.0000 
      2 C65        36.1970   49.9800   55.5170 C.2       1 073401      0.0000 
      3 O66        37.1310   50.4100   56.3590 O.3       1 073401      0.0000 
      4 C67        36.8440   50.4060   57.7730 C.3       1 073401      0.0000 
      5 C58        36.4750   48.6790   54.8840 C.ar      1 073401      0.0000 
      6 C57        37.8230   48.2820   54.6800 C.ar      1 073401      0.0000 
      7 C56        38.1130   47.0450   54.0780 C.ar      1 073401      0.0000 
      8 C59        35.4220   47.8160   54.4770 C.ar      1 073401      0.0000 
      9 C60        35.7190   46.5820   53.8770 C.ar      1 073401      0.0000 
     10 C55        37.0700   46.1540   53.6550 C.ar      1 073401      0.0000 
     11 C11        37.5430   44.7870   52.9750 C.3       1 073401      0.0000 
     12 N12        38.4510   44.1510   53.4780 N.pl3     1 073401      0.0000 
     13 N23        39.5180   43.6990   52.7490 N.2       1 073401      0.0000 
     14 N22        40.2240   43.0710   53.6930 N.2       1 073401      0.0000 
     15 C18        39.7500   43.0520   54.9640 C.ar      1 073401      0.0000 
     16 C17        40.2170   42.5070   56.1320 C.ar      1 073401      0.0000 
     17 C19        38.5120   43.7890   54.8920 C.ar      1 073401      0.0000 
     18 C20        37.7790   43.9430   56.0880 C.ar      1 073401      0.0000 
     19 C21        38.2480   43.3880   57.3020 C.ar      1 073401      0.0000 
     20 C16        39.4760   42.6660   57.3190 C.ar      1 073401      0.0000 
     21 C13        37.9040   45.3370   51.5090 C.3       1 073401      0.0000 
     22 C2         36.9670   46.1260   50.5980 C.ar      1 073401      0.0000 
     23 C3         36.1640   45.4420   49.6660 C.ar      1 073401      0.0000 
     24 C4         35.2650   46.1260   48.8360 C.ar      1 073401      0.0000 
     25 C5         35.1320   47.5430   48.9060 C.ar      1 073401      0.0000 
     26 C28        34.1320   48.2590   48.0370 C.3       1 073401      0.0000 
     27 F30        33.0980   47.4290   47.9410 F         1 073401      0.0000 
     28 P31        34.6650   48.7380   46.3330 P.3       1 073401      0.0000 
     29 O34        35.8200   49.7490   46.4460 O.co2     1 073401      0.0000 
     30 O33        35.0700   47.4950   45.6640 O.co2     1 073401      0.0000 
     31 O32        33.4700   49.4130   45.6190 O.co2     1 073401      0.0000 
     32 F29        33.7430   49.4000   48.6400 F         1 073401      0.0000 
     33 C6         35.9470   48.2480   49.8340 C.ar      1 073401      0.0000 
     34 C1         36.8490   47.5440   50.6660 C.ar      1 073401      0.0000 
     35 C37        36.2770   43.9060   52.7920 C.3       1 073401      0.0000 
     36 C38        36.5200   42.6230   52.0140 C.2       1 073401      0.0000 
     37 C41        35.5760   42.0260   51.2590 C.2       1 073401      0.0000 
     38 C43        35.7730   40.7760   50.4910 C.ar      1 073401      0.0000 
     39 C49        35.0430   40.5340   49.3070 C.ar      1 073401      0.0000 
     40 C48        35.2370   39.3360   48.5830 C.ar      1 073401      0.0000 
     41 C47        36.1600   38.3640   49.0310 C.ar      1 073401      0.0000 
     42 C46        36.9020   38.5860   50.2170 C.ar      1 073401      0.0000 
     43 C45        36.7110   39.7940   50.9520 C.ar      1 073401      0.0000 
     44 H          38.5808   48.9021   54.9740 H         1 073401      0.0000 
     45 H          39.0910   46.7603   53.9317 H         1 073401      0.0000 
     46 H          34.4527   48.1000   54.6241 H         1 073401      0.0000 
     47 H          34.9530   45.9560   53.5828 H         1 073401      0.0000 
     48 H          41.0990   41.9836   56.1588 H         1 073401      0.0000 
     49 H          36.8944   44.4639   56.0788 H         1 073401      0.0000 
     50 H          37.7150   43.5014   58.1596 H         1 073401      0.0000 
     51 H          39.8126   42.2667   58.1952 H         1 073401      0.0000 
     52 H          38.2939   44.4240   50.9263 H         1 073401      0.0000 
     53 H          38.8770   45.9383   51.6381 H         1 073401      0.0000 
     54 H          36.2407   44.4139   49.5940 H         1 073401      0.0000 
     55 H          34.6877   45.6059   48.1624 H         1 073401      0.0000 
     56 H          35.8786   49.2639   49.8974 H         1 073401      0.0000 
     57 H          37.4331   48.0625   51.3347 H         1 073401      0.0000 
     58 H          35.5109   44.5077   52.2783 H         1 073401      0.0000 
     59 H          35.8815   43.6611   53.7902 H         1 073401      0.0000 
     60 H          37.4829   42.2424   52.1144 H         1 073401      0.0000 
     61 H          34.6073   42.4402   51.1756 H         1 073401      0.0000 
     62 H          34.3709   41.2282   48.9714 H         1 073401      0.0000 
     63 H          34.7025   39.1701   47.7236 H         1 073401      0.0000 
     64 H          36.2928   37.5024   48.5014 H         1 073401      0.0000 
     65 H          37.5666   37.8929   50.5459 H         1 073401      0.0000 
     66 H          37.2388   39.9617   51.8036 H         1 073401      0.0000 
     67 H          37.6154   50.7482   58.3095 H         1 073401      0.0000 
     68 H          36.0558   50.9805   57.9936 H         1 073401      0.0000 
     69 H          36.6392   49.4862   58.1078 H         1 073401      0.0000 
@<TRIPOS>BOND
     1    2    1 2    
     2    3    2 1    
     3    5    2 1    
     4    4    3 1    
     5   67    4 1    
     6   68    4 1    
     7   69    4 1    
     8    6    5 ar   
     9    8    5 ar   
    10    7    6 ar   
    11   44    6 1    
    12   10    7 ar   
    13   45    7 1    
    14    9    8 ar   
    15   46    8 1    
    16   10    9 ar   
    17   47    9 1    
    18   11   10 1    
    19   12   11 1    
    20   21   11 1    
    21   35   11 1    
    22   13   12 1    
    23   17   12 1    
    24   14   13 2    
    25   15   14 1    
    26   16   15 ar   
    27   17   15 ar   
    28   20   16 ar   
    29   48   16 1    
    30   18   17 ar   
    31   19   18 ar   
    32   49   18 1    
    33   20   19 ar   
    34   50   19 1    
    35   51   20 1    
    36   22   21 1    
    37   52   21 1    
    38   53   21 1    
    39   23   22 ar   
    40   34   22 ar   
    41   24   23 ar   
    42   54   23 1    
    43   25   24 ar   
    44   55   24 1    
    45   26   25 1    
    46   33   25 ar   
    47   27   26 1    
    48   28   26 1    
    49   32   26 1    
    50   29   28 ar   
    51   30   28 ar   
    52   31   28 ar   
    53   34   33 ar   
    54   56   33 1    
    55   57   34 1    
    56   36   35 1    
    57   58   35 1    
    58   59   35 1    
    59   37   36 2    
    60   60   36 1    
    61   38   37 1    
    62   61   37 1    
    63   39   38 ar   
    64   43   38 ar   
    65   40   39 ar   
    66   62   39 1    
    67   41   40 ar   
    68   63   40 1    
    69   42   41 ar   
    70   64   41 1    
    71   43   42 ar   
    72   65   42 1    
    73   66   43 1    
@<TRIPOS>SUBSTRUCTURE
     1 073401      1 GROUP   
@<TRIPOS>SET

