#    Name: 3PWS_1_CAVITY_N1_6.mol2
#    Modification time : Mon Mar 10 15:43:23 2014

@<TRIPOS>MOLECULE
3PWS_1_CAVITY_N1_6.mol2
   71     0     7     0     0
SMALL
NO_CHARGES


@<TRIPOS>ATOM
      1 OG          2.2966    9.8919   52.5895 O.2       1 SER1        0.0000 
      2 O           3.0506    9.7736   51.2981 O.2       2 ALA2        0.0000 
      3 CA         -0.4955   10.2675   54.4095 C.3       6 GLY6        0.0000 
      4 OG          0.2584   10.1492   53.1182 O.2       1 SER1        0.0000 
      5 OG          1.0124   10.0309   51.8269 O.2       1 SER1        0.0000 
      6 O           1.7664    9.9126   50.5356 O.2       2 ALA2        0.0000 
      7 O          -1.7797   10.4065   53.6470 O.2       2 ALA2        0.0000 
      8 OG         -1.0258   10.2881   52.3556 O.2       1 SER1        0.0000 
      9 O          -0.2718   10.1698   51.0643 O.2       2 ALA2        0.0000 
     10 OG         -4.5719   10.7820   55.4670 O.2       1 SER1        0.0000 
     11 O          -3.8179   10.6637   54.1757 O.2       2 ALA2        0.0000 
     12 CA         -3.0640   10.5454   52.8844 C.3       6 GLY6        0.0000 
     13 CA         -2.3100   10.4271   51.5931 C.3       6 GLY6        0.0000 
     14 CA         -5.8561   10.9210   54.7045 C.3       6 GLY6        0.0000 
     15 OG         -5.1021   10.8027   53.4131 O.2       1 SER1        0.0000 
     16 OG         -4.3482   10.6843   52.1218 O.2       1 SER1        0.0000 
     17 DU         -3.5942   10.5660   50.8305 H         7 CUB7        0.0000 
     18 OG         -5.6324   10.8233   51.3593 O.2       1 SER1        0.0000 
     19 OG         -6.9166   10.9622   50.5967 O.2       1 SER1        0.0000 
     20 OG          2.4764   11.3808   52.5580 O.2       1 SER1        0.0000 
     21 DU          3.2304   11.2625   51.2667 H         7 CUB7        0.0000 
     22 CA         -0.3158   11.7564   54.3781 C.3       6 GLY6        0.0000 
     23 OG          0.4382   11.6381   53.0868 O.2       1 SER1        0.0000 
     24 OG          1.1922   11.5197   51.7954 O.2       1 SER1        0.0000 
     25 DU          1.9462   11.4014   50.5041 H         7 CUB7        0.0000 
     26 CA         -2.3540   12.0136   54.9068 C.3       6 GLY6        0.0000 
     27 CA         -1.6000   11.8953   53.6155 C.3       6 GLY6        0.0000 
     28 DU         -0.8460   11.7770   52.3242 H         7 CUB7        0.0000 
     29 DU         -0.0920   11.6587   51.0329 H         7 CUB7        0.0000 
     30 CA         -3.6382   12.1526   54.1443 C.3       6 GLY6        0.0000 
     31 CA         -2.8842   12.0343   52.8529 C.3       6 GLY6        0.0000 
     32 N          -2.1302   11.9159   51.5616 N.2       2 ALA2        0.0000 
     33 DU         -1.3762   11.7976   50.2703 H         7 CUB7        0.0000 
     34 OG         -4.1684   12.1732   52.0904 O.2       1 SER1        0.0000 
     35 CA          4.6944   12.6124   51.9978 C.3       6 GLY6        0.0000 
     36 CA          2.6562   12.8697   52.5265 C.3       6 GLY6        0.0000 
     37 CA          3.4101   12.7513   51.2352 C.3       6 GLY6        0.0000 
     38 CA         -0.1360   13.2452   54.3466 C.3       6 GLY6        0.0000 
     39 O           0.6180   13.1269   53.0553 O.2       2 ALA2        0.0000 
     40 CA          1.3720   13.0086   51.7640 C.3       6 GLY6        0.0000 
     41 CA         -1.4202   13.3842   53.5840 C.3       6 GLY6        0.0000 
     42 CA         -0.6662   13.2659   52.2927 C.3       6 GLY6        0.0000 
     43 DU          0.0877   13.1475   51.0014 H         7 CUB7        0.0000 
     44 N          -1.9504   13.4048   51.5302 N.2       2 ALA2        0.0000 
     45 N          -1.1965   13.2865   50.2388 N.2       2 ALA2        0.0000 
     46 N           0.7977   14.6158   53.0238 N.2       2 ALA2        0.0000 
     47 CA          1.5517   14.4975   51.7325 C.3       6 GLY6        0.0000 
     48 CA         -0.4865   14.7547   52.2613 C.3       6 GLY6        0.0000 
     49 DU          0.2675   14.6364   50.9699 H         7 CUB7        0.0000 
     50 N          -1.0167   14.7753   50.2074 N.2       2 ALA2        0.0000 
     51 N           0.9775   16.1046   52.9924 N.2       2 ALA2        0.0000 
     52 CA         -5.6414    6.3361   53.5075 C.3       6 GLY6        0.0000 
     53 NZ         -7.6796    6.5933   54.0363 N.2       4 LYS4        0.0000 
     54 CA         -6.9256    6.4750   52.7450 C.3       6 GLY6        0.0000 
     55 CA         -6.2157    7.9433   54.7674 C.3       6 GLY6        0.0000 
     56 OG         -7.4999    8.0822   54.0048 O.2       1 SER1        0.0000 
     57 CA         -6.7459    7.9639   52.7135 C.3       6 GLY6        0.0000 
     58 OG         -8.7841    8.2211   53.2423 O.2       1 SER1        0.0000 
     59 NZ         -7.8594    5.1045   54.0677 N.2       4 LYS4        0.0000 
     60 O           2.8709    8.2848   51.3296 O.2       2 ALA2        0.0000 
     61 OG          0.0787    8.6603   53.1497 O.2       1 SER1        0.0000 
     62 OG         -0.4515    8.6810   51.0958 O.2       1 SER1        0.0000 
     63 CA         -2.4897    8.9382   51.6245 C.3       6 GLY6        0.0000 
     64 N          -6.0359    9.4321   54.7359 N.2       2 ALA2        0.0000 
     65 CA         -5.2819    9.3138   53.4446 C.3       6 GLY6        0.0000 
     66 CA         -4.5279    9.1955   52.1533 C.3       6 GLY6        0.0000 
     67 CZ         -7.3201    9.5711   53.9734 C.ar      5 PHE5        0.0000 
     68 OG         -6.5661    9.4527   52.6820 O.2       1 SER1        0.0000 
     69 CA         -5.8121    9.3344   51.3907 C.3       6 GLY6        0.0000 
     70 CZ         -8.6043    9.7100   53.2108 C.ar      5 PHE5        0.0000 
     71 OD1        -7.8503    9.5917   51.9195 O.3       3 ASP3        0.0000 
@<TRIPOS>BOND
@<TRIPOS>SUBSTRUCTURE
     1 SER1        1 GROUP   
     2 ALA2        2 GROUP   
     3 ASP3       71 GROUP   
     4 LYS4       53 GROUP   
     5 PHE5       67 GROUP   
     6 GLY6        3 GROUP   
     7 CUB7       17 GROUP   
@<TRIPOS>SET

