#    Name: 3pws_A2P_1_INTS_M
#    Modification time : Tue Mar 25 08:39:09 2014

@<TRIPOS>MOLECULE
3pws_A2P_1_INTS_M
   54     0    12     0     0
SMALL
NO_CHARGES


@<TRIPOS>ATOM
      1 N           2.5315    9.7925   54.3020 N.am      2 SEC2        0.0000 
      2 N           2.2610    9.0050   53.3400 N.am     10 SEL2        0.0000 
      3 N           2.8020   10.5800   55.2640 N.am      6 SEP2        0.0000 
      4 N          -0.8855    7.2865   53.4485 N.am      2 SEC2        0.0000 
      5 N           0.0530    7.9390   53.9760 N.am     10 SEL2        0.0000 
      6 N          -1.8240    6.6340   52.9210 N.am      6 SEP2        0.0000 
      7 N          -1.2600    8.0300   54.7190 N.am      2 SEC2        0.0000 
      8 N          -2.5730    8.1210   55.4620 N.am      6 SEP2        0.0000 
      9 N           1.0575    7.3695   54.6320 N.am      2 SEC2        0.0000 
     10 N           2.0620    6.8000   55.2880 N.am      6 SEP2        0.0000 
     11 NZ          1.0605    8.1925   50.2495 N.4       3 LYC4        0.0000 
     12 NZ          0.3940    8.8330   51.6360 N.4      11 LYL4        0.0000 
     13 NZ          1.6010    6.2550   49.1140 N.4       7 LYP4        0.0000 
     14 N           0.7885    7.3410   50.9735 N.am      2 SEC2        0.0000 
     15 N           0.3940    8.8330   51.6360 N.am     10 SEL2        0.0000 
     16 N           1.1830    5.8490   50.3110 N.am      6 SEP2        0.0000 
     17 N           1.0605    8.1925   50.2495 N.am      2 SEC2        0.0000 
     18 N           1.7270    7.5520   48.8630 N.am      6 SEP2        0.0000 
     19 N           4.8600   16.2410   51.7415 N.am      2 SEC2        0.0000 
     20 N           4.2840   15.8810   50.4960 N.am     10 SEL2        0.0000 
     21 N           5.4360   16.6010   52.9870 N.am      6 SEP2        0.0000 
     22 N           5.3795   16.0250   49.4655 N.am      2 SEC2        0.0000 
     23 N           6.4750   16.1690   48.4350 N.am      6 SEP2        0.0000 
     24 CA         -1.3795   14.8360   52.7970 C.3       4 GLC5        0.0000 
     25 CA          0.4040   13.8060   52.4280 C.3      12 GLL5        0.0000 
     26 CA         -3.1630   15.8660   53.1660 C.3       8 GLP5        0.0000 
     27 O           2.1480   11.6085   54.7385 O.2       1 ALC1        0.0000 
     28 O           1.4940   12.6370   54.2130 O.2       9 ALL1        0.0000 
     29 O           2.8020   10.5800   55.2640 O.2       5 ALP1        0.0000 
     30 CA         -0.9835   13.1995   54.7990 C.3       4 GLC5        0.0000 
     31 CA         -1.2310   12.2310   53.0060 C.3      12 GLL5        0.0000 
     32 CA         -0.7360   14.1680   56.5920 C.3       8 GLP5        0.0000 
     33 CA         -2.4850   13.5160   53.5500 C.3       4 GLC5        0.0000 
     34 CA         -3.7390   14.8010   54.0940 C.3       8 GLP5        0.0000 
     35 CA         -6.4525   11.7840   53.6435 C.3       4 GLC5        0.0000 
     36 CA         -5.5980   10.1030   52.7830 C.3      12 GLL5        0.0000 
     37 CA         -7.3070   13.4650   54.5040 C.3       8 GLP5        0.0000 
     38 CA         -3.4870   10.1680   56.1260 C.3       4 GLC5        0.0000 
     39 CA         -4.9250   10.6810   54.9560 C.3      12 GLL5        0.0000 
     40 CA         -2.0490    9.6550   57.2960 C.3       8 GLP5        0.0000 
     41 CA         -4.1330    8.8780   54.8695 C.3       4 GLC5        0.0000 
     42 CA         -3.3410    7.0750   54.7830 C.3       8 GLP5        0.0000 
     43 CA         -5.9815   10.3915   56.5175 C.3       4 GLC5        0.0000 
     44 CA         -7.0380   10.1020   58.0790 C.3       8 GLP5        0.0000 
     45 CA         -4.3320   12.7410   54.5250 C.3       4 GLC5        0.0000 
     46 CA         -6.1160   12.0730   54.7300 C.3       4 GLC5        0.0000 
     47 CA         -3.6130   12.9825   53.6290 C.3       4 GLC5        0.0000 
     48 CA         -3.4870   11.1640   53.1640 C.3      12 GLL5        0.0000 
     49 CA          0.0083   13.6652   54.6140 C.3       4 GLC5        0.0000 
     50 CA          2.5204   13.9901   53.0419 C.3       4 GLC5        0.0000 
     51 CA          4.1770   14.7010   53.7940 C.3       8 GLP5        0.0000 
     52 CA         -3.6785    8.9367   53.0575 C.3       4 GLC5        0.0000 
     53 CA         -4.4080   10.6190   52.2810 C.3      12 GLL5        0.0000 
     54 CA         -3.1120    7.1110   53.2670 C.3       8 GLP5        0.0000 
@<TRIPOS>BOND
@<TRIPOS>SUBSTRUCTURE
     1 ALC1       27 GROUP        1 X    ALC  0     ROOT ALC X 1
     2 SEC2        1 GROUP        1 X    SEC  0     **** SEC X 2
     3 LYC4       11 GROUP        1 X    LYC  0     **** LYC X 4
     4 GLC5       24 GROUP        1 X    GLC  0     **** GLC X 6
     5 ALP1       29 GROUP        1 Y    ALP  0     ROOT ALP Y 8
     6 SEP2        3 GROUP        1 Y    SEP  0     **** SEP Y 9
     7 LYP4       13 GROUP        1 Y    LYP  0     **** LYP Y 11
     8 GLP5       26 GROUP        1 Y    GLP  0     **** GLP Y 13
     9 ALL1       28 GROUP        1 Z    ALL  0     ROOT ALL Z 15
    10 SEL2        2 GROUP        1 Z    SEL  0     **** SEL Z 16
    11 LYL4       12 GROUP        1 Z    LYL  0     **** LYL Z 18
    12 GLL5       25 GROUP        1 Z    GLL  0     **** GLL Z 20
@<TRIPOS>SET

