#    Name: 3pws_A2P_1_ligand
#    Modification time : Tue Mar 25 08:39:09 2014

@<TRIPOS>MOLECULE
3pws_A2P_1_ligand
   38    40     1     0     0
SMALL
NO_CHARGES


@<TRIPOS>ATOM
      1 P1          0.7730    8.9310   53.0960 P.3       1 A2P369      0.0000 
      2 O1P         2.2610    9.0050   53.3400 O.co2     1 A2P369      0.0000 
      3 O2P         0.0530    7.9390   53.9760 O.co2     1 A2P369      0.0000 
      4 O3P         0.3940    8.8330   51.6360 O.co2     1 A2P369      0.0000 
      5 P2          3.1340   15.0820   49.9340 P.3       1 A2P369      0.0000 
      6 O4P         3.4850   13.6450   49.6260 O.co2     1 A2P369      0.0000 
      7 O5P         2.3690   15.7800   48.8360 O.co2     1 A2P369      0.0000 
      8 O6P         4.2840   15.8810   50.4960 O.co2     1 A2P369      0.0000 
      9 O5'         2.0770   14.9950   51.1550 O.3       1 A2P369      0.0000 
     10 C5'         0.8490   14.2730   51.0430 C.3       1 A2P369      0.0000 
     11 C4'         0.4040   13.8060   52.4280 C.3       1 A2P369      0.0000 
     12 O4'        -1.0010   13.5260   52.4410 O.3       1 A2P369      0.0000 
     13 C3'         1.1010   12.5190   52.8440 C.3       1 A2P369      0.0000 
     14 O3'         1.4940   12.6370   54.2130 O.3       1 A2P369      0.0000 
     15 C2'         0.0350   11.4510   52.7050 C.3       1 A2P369      0.0000 
     16 O2'         0.2190   10.3600   53.6070 O.3       1 A2P369      0.0000 
     17 C1'        -1.2310   12.2310   53.0060 C.3       1 A2P369      0.0000 
     18 N9         -2.4410   11.5830   52.4430 N.pl3     1 A2P369      0.0000 
     19 C8         -2.6830   11.3190   51.1490 C.2       1 A2P369      0.0000 
     20 N7         -3.8920   10.7220   51.0390 N.2       1 A2P369      0.0000 
     21 C5         -4.4080   10.6190   52.2810 C.ar      1 A2P369      0.0000 
     22 C6         -5.5980   10.1030   52.7830 C.ar      1 A2P369      0.0000 
     23 N6         -6.5130    9.5640   51.9420 N.pl3     1 A2P369      0.0000 
     24 N1         -5.8300   10.1460   54.1170 N.ar      1 A2P369      0.0000 
     25 C2         -4.9250   10.6810   54.9560 C.ar      1 A2P369      0.0000 
     26 N3         -3.7650   11.1840   54.4970 N.ar      1 A2P369      0.0000 
     27 C4         -3.4870   11.1640   53.1640 C.ar      1 A2P369      0.0000 
     28 H           0.9551   13.3865   50.4091 H         1 A2P369      0.0000 
     29 H           0.0491   14.8938   50.6262 H         1 A2P369      0.0000 
     30 H           0.6458   14.5667   53.1507 H         1 A2P369      0.0000 
     31 H           1.8875   12.3238   52.1877 H         1 A2P369      0.0000 
     32 H          -0.0033   11.1586   51.6771 H         1 A2P369      0.0000 
     33 H          -1.3125   12.3087   54.0827 H         1 A2P369      0.0000 
     34 H          -2.0902   11.5214   50.4080 H         1 A2P369      0.0000 
     35 H          -6.2530    9.5220   50.9773 H         1 A2P369      0.0000 
     36 H          -7.3674    9.2558   52.3603 H         1 A2P369      0.0000 
     37 H          -5.1274   10.7064   55.9867 H         1 A2P369      0.0000 
     38 H           1.9268   11.7631   54.4341 H         1 A2P369      0.0000 
@<TRIPOS>BOND
     1    2    1 ar   
     2    3    1 ar   
     3    4    1 ar   
     4   16    1 1    
     5    6    5 ar   
     6    7    5 ar   
     7    8    5 ar   
     8    9    5 1    
     9   10    9 1    
    10   11   10 1    
    11   28   10 1    
    12   29   10 1    
    13   12   11 1    
    14   13   11 1    
    15   30   11 1    
    16   17   12 1    
    17   14   13 1    
    18   15   13 1    
    19   31   13 1    
    20   38   14 1    
    21   16   15 1    
    22   17   15 1    
    23   32   15 1    
    24   18   17 1    
    25   33   17 1    
    26   19   18 1    
    27   27   18 1    
    28   20   19 2    
    29   34   19 1    
    30   21   20 1    
    31   22   21 ar   
    32   27   21 ar   
    33   23   22 1    
    34   24   22 ar   
    35   35   23 1    
    36   36   23 1    
    37   25   24 ar   
    38   26   25 ar   
    39   37   25 1    
    40   27   26 ar   
@<TRIPOS>SUBSTRUCTURE
     1 A2P369      1 GROUP   
@<TRIPOS>SET

