#    Name: 2jdi_ANP_4_INTS_M
#    Modification time : Tue Mar 25 20:35:18 2014

@<TRIPOS>MOLECULE
2jdi_ANP_4_INTS_M
   92     0    15     0     0
SMALL
NO_CHARGES


@<TRIPOS>ATOM
      1 NZ         57.5730   65.5445  100.7035 N.4       3 LYC4        0.0000 
      2 NZ         57.1040   66.4100  101.7500 N.4      13 LYL4        0.0000 
      3 NZ         59.2280   65.2290   99.4470 N.4       8 LYP4        0.0000 
      4 NZ         58.3005   65.6785  102.1235 N.4       3 LYC4        0.0000 
      5 NZ         60.5420   65.6580  102.9080 N.4       8 LYP4        0.0000 
      6 N          57.5730   65.5445  100.7035 N.am      2 SEC2        0.0000 
      7 N          57.1040   66.4100  101.7500 N.am     12 SEL2        0.0000 
      8 N          58.0420   64.6790   99.6570 N.am      7 SEP2        0.0000 
      9 N          58.3005   65.6785  102.1235 N.am      2 SEC2        0.0000 
     10 N          59.4970   64.9470  102.4970 N.am      7 SEP2        0.0000 
     11 NZ         59.3150   67.8045  102.6180 N.4       3 LYC4        0.0000 
     12 NZ         58.1540   68.6190  102.3070 N.4      13 LYL4        0.0000 
     13 Zn         58.7440   69.4890  102.0575 Zn        4 ZIC7        0.0000 
     14 Zn         58.1540   68.6190  102.3070 Zn       14 ZIL7        0.0000 
     15 Zn         59.3340   70.3590  101.8080 Zn        9 ZIP7        0.0000 
     16 N          59.3150   67.8045  102.6180 N.am      2 SEC2        0.0000 
     17 N          58.1540   68.6190  102.3070 N.am     12 SEL2        0.0000 
     18 N          60.4760   66.9900  102.9290 N.am      7 SEP2        0.0000 
     19 NZ         55.0130   69.3900  101.3495 N.4       3 LYC4        0.0000 
     20 NZ         55.6420   68.4610  102.1760 N.4      13 LYL4        0.0000 
     21 NZ         54.3840   70.3190  100.5230 N.4       8 LYP4        0.0000 
     22 N          55.0130   69.3900  101.3495 N.am      2 SEC2        0.0000 
     23 N          55.6420   68.4610  102.1760 N.am     12 SEL2        0.0000 
     24 N          54.3840   70.3190  100.5230 N.am      7 SEP2        0.0000 
     25 NZ         55.3175   70.2190   99.4800 N.4       3 LYC4        0.0000 
     26 NZ         56.2510   70.1190   98.4370 N.4      13 LYL4        0.0000 
     27 N          55.7515   68.9855   97.3150 N.am      2 SEC2        0.0000 
     28 N          56.2510   70.1190   98.4370 N.am     12 SEL2        0.0000 
     29 N          55.2520   67.8520   96.1930 N.am      7 SEP2        0.0000 
     30 N          56.3975   70.1745   96.9790 N.am      2 SEC2        0.0000 
     31 N          56.5440   70.2300   95.5210 N.am      7 SEP2        0.0000 
     32 N          56.6695   71.3070   97.8560 N.am      2 SEC2        0.0000 
     33 N          57.0880   72.4950   97.2750 N.am      7 SEP2        0.0000 
     34 N          55.3175   70.2190   99.4800 N.am      2 SEC2        0.0000 
     35 NZ         56.3385   70.3750  100.2180 N.4       3 LYC4        0.0000 
     36 NZ         58.2930   70.4310   99.9130 N.4      13 LYL4        0.0000 
     37 Zn         58.8135   70.3950  100.8605 Zn        4 ZIC7        0.0000 
     38 Zn         58.2930   70.4310   99.9130 Zn       14 ZIL7        0.0000 
     39 N          58.8175   71.7980   99.4260 N.am      2 SEC2        0.0000 
     40 N          58.2930   70.4310   99.9130 N.am     12 SEL2        0.0000 
     41 N          59.3420   73.1650   98.9390 N.am      7 SEP2        0.0000 
     42 NZ         60.1115   67.5820   98.8725 N.4       3 LYC4        0.0000 
     43 NZ         60.8570   68.6130   98.2250 N.4      13 LYL4        0.0000 
     44 N          60.1115   67.5820   98.8725 N.am      2 SEC2        0.0000 
     45 N          60.8570   68.6130   98.2250 N.am     12 SEL2        0.0000 
     46 N          59.3660   66.5510   99.5200 N.am      7 SEP2        0.0000 
     47 N          60.6845   71.9315   97.1325 N.am      2 SEC2        0.0000 
     48 N          59.8790   70.7770   97.1330 N.am     12 SEL2        0.0000 
     49 N          61.4900   73.0860   97.1320 N.am      7 SEP2        0.0000 
     50 N          57.4460   69.5410   96.7030 N.am      2 SEC2        0.0000 
     51 N          58.3480   68.8520   97.8850 N.am     12 SEL2        0.0000 
     52 CA         60.6520   66.0130   97.4375 C.3       5 GLC5        0.0000 
     53 CA         59.6690   67.0930   95.9250 C.3      15 GLL5        0.0000 
     54 CA         61.6350   64.9330   98.9500 C.3      10 GLP5        0.0000 
     55 CA         57.9845   66.5560   96.6805 C.3       5 GLC5        0.0000 
     56 CA         56.3000   66.0190   97.4360 C.3      10 GLP5        0.0000 
     57 CA         59.9675   64.4950   94.8905 C.3       5 GLC5        0.0000 
     58 CA         60.4300   66.4930   94.7510 C.3      15 GLL5        0.0000 
     59 CA         59.5050   62.4970   95.0300 C.3      10 GLP5        0.0000 
     60 CA         62.2240   69.0705   94.8015 C.3       5 GLC5        0.0000 
     61 CA         61.8220   67.0860   94.5300 C.3      15 GLL5        0.0000 
     62 CA         62.6260   71.0550   95.0730 C.3      10 GLP5        0.0000 
     63 CA         63.8780   67.3445   94.3910 C.3       5 GLC5        0.0000 
     64 CA         65.9340   67.6030   94.2520 C.3      10 GLP5        0.0000 
     65 CA         63.6770   67.1130   92.2870 C.3       5 GLC5        0.0000 
     66 CA         62.0250   66.8760   93.0490 C.3      15 GLL5        0.0000 
     67 CA         65.3290   67.3500   91.5250 C.3      10 GLP5        0.0000 
     68 O          63.2130   64.5230   93.3765 O.2       1 ALC1        0.0000 
     69 O          62.4380   65.5210   92.8110 O.2      11 ALL1        0.0000 
     70 O          63.9880   63.5250   93.9420 O.2       6 ALP1        0.0000 
     71 CA         59.6445   65.1145   92.6130 C.3       5 GLC5        0.0000 
     72 CA         60.6330   67.1070   92.4870 C.3      15 GLL5        0.0000 
     73 CA         58.6560   63.1220   92.7390 C.3      10 GLP5        0.0000 
     74 CA         59.3410   67.2400   90.9840 C.3       5 GLC5        0.0000 
     75 CA         58.0490   67.3730   89.4810 C.3      10 GLP5        0.0000 
     76 CA         63.0935   71.7640   90.2460 C.3       5 GLC5        0.0000 
     77 CA         61.1840   71.5510   90.2770 C.3      15 GLL5        0.0000 
     78 CA         65.0030   71.9770   90.2150 C.3      10 GLP5        0.0000 
     79 CA         60.4685   70.4455   88.3790 C.3       5 GLC5        0.0000 
     80 CA         62.0760   69.6890   89.1130 C.3      15 GLL5        0.0000 
     81 CA         58.8610   71.2020   87.6450 C.3      10 GLP5        0.0000 
     82 CA         63.5395   70.8330   89.6640 C.3       5 GLC5        0.0000 
     83 CA         63.5335   68.4565   89.5845 C.3       5 GLC5        0.0000 
     84 CA         64.9910   67.2240   90.0560 C.3      10 GLP5        0.0000 
     85 CA         63.1950   69.9525   87.7520 C.3       5 GLC5        0.0000 
     86 CA         64.3140   70.2160   86.3910 C.3      10 GLP5        0.0000 
     87 CA         61.7220   65.5057   96.2287 C.3       5 GLC5        0.0000 
     88 CA         62.3180   64.2220   97.8170 C.3      10 GLP5        0.0000 
     89 CA         61.8010   72.0397   92.1418 C.3       5 GLC5        0.0000 
     90 CA         60.7360   70.6260   91.3380 C.3      15 GLL5        0.0000 
     91 CA         62.6420   72.9910   93.4760 C.3      10 GLP5        0.0000 
     92 CA         59.9105   71.1453   89.2262 C.3       5 GLC5        0.0000 
@<TRIPOS>BOND
@<TRIPOS>SUBSTRUCTURE
     1 ALC1       68 GROUP        1 X    ALC  0     ROOT ALC X 1
     2 SEC2        6 GROUP        1 X    SEC  0     **** SEC X 2
     3 LYC4        1 GROUP        1 X    LYC  0     **** LYC X 4
     4 ZIC7       13 GROUP        1 X    ZIC  0     **** ZIC X 5
     5 GLC5       52 GROUP        1 X    GLC  0     **** GLC X 6
     6 ALP1       70 GROUP        1 Y    ALP  0     ROOT ALP Y 8
     7 SEP2        8 GROUP        1 Y    SEP  0     **** SEP Y 9
     8 LYP4        3 GROUP        1 Y    LYP  0     **** LYP Y 11
     9 ZIP7       15 GROUP        1 Y    ZIP  0     **** ZIP Y 12
    10 GLP5       54 GROUP        1 Y    GLP  0     **** GLP Y 13
    11 ALL1       69 GROUP        1 Z    ALL  0     ROOT ALL Z 15
    12 SEL2        7 GROUP        1 Z    SEL  0     **** SEL Z 16
    13 LYL4        2 GROUP        1 Z    LYL  0     **** LYL Z 18
    14 ZIL7       14 GROUP        1 Z    ZIL  0     **** ZIL Z 19
    15 GLL5       53 GROUP        1 Z    GLL  0     **** GLL Z 20
@<TRIPOS>SET

