#    Name: 2jdi_ANP_4_ligand
#    Modification time : Tue Mar 25 20:35:18 2014

@<TRIPOS>MOLECULE
2jdi_ANP_4_ligand
   43    45     1     0     0
SMALL
NO_CHARGES


@<TRIPOS>ATOM
      1 PG         56.9710   67.9140  101.7000 P.3       1 ANP1480     0.0000 
      2 O1G        57.1040   66.4100  101.7500 O.co2     1 ANP1480     0.0000 
      3 O2G        58.1540   68.6190  102.3070 O.co2     1 ANP1480     0.0000 
      4 O3G        55.6420   68.4610  102.1760 O.co2     1 ANP1480     0.0000 
      5 PB         57.4800   69.5020   99.0730 P.3       1 ANP1480     0.0000 
      6 O1B        56.2510   70.1190   98.4370 O.co2     1 ANP1480     0.0000 
      7 O2B        58.2930   70.4310   99.9130 O.co2     1 ANP1480     0.0000 
      8 N3B        57.0030   68.1140   99.9800 N.4       1 ANP1480     0.0000 
      9 PA         59.8090   69.2830   97.3690 P.3       1 ANP1480     0.0000 
     10 O1A        60.8570   68.6130   98.2250 O.co2     1 ANP1480     0.0000 
     11 O2A        59.8790   70.7770   97.1330 O.co2     1 ANP1480     0.0000 
     12 O3A        58.3480   68.8520   97.8850 O.3       1 ANP1480     0.0000 
     13 O5'        59.8330   68.5140   95.9620 O.3       1 ANP1480     0.0000 
     14 C5'        59.6690   67.0930   95.9250 C.3       1 ANP1480     0.0000 
     15 C4'        60.4300   66.4930   94.7510 C.3       1 ANP1480     0.0000 
     16 O4'        59.7200   66.7180   93.5200 O.3       1 ANP1480     0.0000 
     17 C3'        61.8220   67.0860   94.5300 C.3       1 ANP1480     0.0000 
     18 O3'        62.8240   66.4300   95.2970 O.3       1 ANP1480     0.0000 
     19 C2'        62.0250   66.8760   93.0490 C.3       1 ANP1480     0.0000 
     20 O2'        62.4380   65.5210   92.8110 O.3       1 ANP1480     0.0000 
     21 C1'        60.6330   67.1070   92.4870 C.3       1 ANP1480     0.0000 
     22 N9         60.5440   68.5730   92.2300 N.pl3     1 ANP1480     0.0000 
     23 C8         59.9760   69.5000   93.0300 C.2       1 ANP1480     0.0000 
     24 N7         60.0850   70.7470   92.5070 N.2       1 ANP1480     0.0000 
     25 C5         60.7360   70.6260   91.3380 C.ar      1 ANP1480     0.0000 
     26 C6         61.1840   71.5510   90.2770 C.ar      1 ANP1480     0.0000 
     27 N6         60.9380   72.8850   90.3670 N.pl3     1 ANP1480     0.0000 
     28 N1         61.8270   71.0110   89.2190 N.ar      1 ANP1480     0.0000 
     29 C2         62.0760   69.6890   89.1130 C.ar      1 ANP1480     0.0000 
     30 N3         61.7020   68.7890   90.0420 N.ar      1 ANP1480     0.0000 
     31 C4         61.0410   69.1940   91.1580 C.ar      1 ANP1480     0.0000 
     32 H          58.6104   66.8117   95.8195 H         1 ANP1480     0.0000 
     33 H          60.0422   66.6198   96.8457 H         1 ANP1480     0.0000 
     34 H          60.5482   65.4258   94.9088 H         1 ANP1480     0.0000 
     35 H          61.7570   68.1359   94.7076 H         1 ANP1480     0.0000 
     36 H          62.6754   67.5986   92.6783 H         1 ANP1480     0.0000 
     37 H          60.5251   66.5604   91.6069 H         1 ANP1480     0.0000 
     38 H          59.5358   69.2996   93.8882 H         1 ANP1480     0.0000 
     39 H          60.4095   73.1823   91.1622 H         1 ANP1480     0.0000 
     40 H          61.3073   73.4512   89.6301 H         1 ANP1480     0.0000 
     41 H          62.5948   69.3410   88.2502 H         1 ANP1480     0.0000 
     42 H          62.4274   66.3303   96.2095 H         1 ANP1480     0.0000 
     43 H          62.7599   65.1892   93.6977 H         1 ANP1480     0.0000 
@<TRIPOS>BOND
     1    2    1 ar   
     2    3    1 ar   
     3    4    1 ar   
     4    8    1 1    
     5    6    5 ar   
     6    7    5 ar   
     7    8    5 1    
     8   12    5 1    
     9   10    9 ar   
    10   11    9 ar   
    11   12    9 1    
    12   13    9 1    
    13   14   13 1    
    14   15   14 1    
    15   32   14 1    
    16   33   14 1    
    17   16   15 1    
    18   17   15 1    
    19   34   15 1    
    20   21   16 1    
    21   18   17 1    
    22   19   17 1    
    23   35   17 1    
    24   42   18 1    
    25   20   19 1    
    26   21   19 1    
    27   36   19 1    
    28   43   20 1    
    29   22   21 1    
    30   37   21 1    
    31   23   22 1    
    32   31   22 1    
    33   24   23 2    
    34   38   23 1    
    35   25   24 1    
    36   26   25 ar   
    37   31   25 ar   
    38   27   26 1    
    39   28   26 ar   
    40   39   27 1    
    41   40   27 1    
    42   29   28 ar   
    43   30   29 ar   
    44   41   29 1    
    45   31   30 ar   
@<TRIPOS>SUBSTRUCTURE
     1 ANP1480     1 GROUP   
@<TRIPOS>SET

