#    Name: 4kto_FAD_3_INTS_M
#    Modification time : Tue Mar 25 08:56:57 2014

@<TRIPOS>MOLECULE
4kto_FAD_3_INTS_M
  123     0    12     0     0
SMALL
NO_CHARGES


@<TRIPOS>ATOM
      1 N          52.1180   43.5815  108.7595 N.am      2 SEC2        0.0000 
      2 N          53.6750   43.5510  108.6570 N.am     10 SEL2        0.0000 
      3 N          50.5610   43.6120  108.8620 N.am      6 SEP2        0.0000 
      4 N          53.0330   43.8980  107.6980 N.am      2 SEC2        0.0000 
      5 N          52.3910   44.2450  106.7390 N.am      6 SEP2        0.0000 
      6 NZ         56.1160   41.7220  110.6740 N.4       3 LYC4        0.0000 
      7 NZ         55.8910   42.5870  109.6240 N.4      11 LYL4        0.0000 
      8 NZ         55.2130   40.6870  112.4020 N.4       7 LYP4        0.0000 
      9 N          56.1160   41.7220  110.6740 N.am      2 SEC2        0.0000 
     10 N          55.8910   42.5870  109.6240 N.am     10 SEL2        0.0000 
     11 N          56.3410   40.8570  111.7240 N.am      6 SEP2        0.0000 
     12 N          55.1110   42.1325  111.0470 N.am      2 SEC2        0.0000 
     13 N          54.3310   41.6780  112.4700 N.am      6 SEP2        0.0000 
     14 CA         57.6755   46.0110  108.6410 C.3       4 GLC5        0.0000 
     15 CA         57.3240   44.1030  107.6230 C.3      12 GLL5        0.0000 
     16 CA         58.0270   47.9190  109.6590 C.3       8 GLP5        0.0000 
     17 CA         58.6290   44.2450  104.2065 C.3       4 GLC5        0.0000 
     18 CA         57.6860   44.3860  106.1700 C.3      12 GLL5        0.0000 
     19 CA         59.5720   44.1040  102.2430 C.3       8 GLP5        0.0000 
     20 CA         59.6680   45.4195  105.9650 C.3       4 GLC5        0.0000 
     21 CA         61.6500   46.4530  105.7600 C.3       8 GLP5        0.0000 
     22 O          58.7430   47.1975  105.4945 O.2       1 ALC1        0.0000 
     23 O          58.0490   46.3550  104.8700 O.2       9 ALL1        0.0000 
     24 O          59.4370   48.0400  106.1190 O.2       5 ALP1        0.0000 
     25 CA         55.5185   45.9745  102.6385 C.3       4 GLC5        0.0000 
     26 CA         55.9690   45.2270  104.7030 C.3      12 GLL5        0.0000 
     27 CA         55.0680   46.7220  100.5740 C.3       8 GLP5        0.0000 
     28 N          54.5885   46.9415  103.6700 N.am      2 SEC2        0.0000 
     29 N          55.8130   46.1530  103.6280 N.am     10 SEL2        0.0000 
     30 N          53.3640   47.7300  103.7120 N.am      6 SEP2        0.0000 
     31 O          56.2920   47.2675  103.0220 O.2       1 ALC1        0.0000 
     32 O          55.8130   46.1530  103.6280 O.2       9 ALL1        0.0000 
     33 O          56.7710   48.3820  102.4160 O.2       5 ALP1        0.0000 
     34 CA         58.0335   43.9955  103.2285 C.3       4 GLC5        0.0000 
     35 CA         56.4950   43.8870  104.2140 C.3      12 GLL5        0.0000 
     36 CA         55.1180   40.1235  100.6280 C.3       4 GLC5        0.0000 
     37 CA         53.4950   41.1120  101.3580 C.3      12 GLL5        0.0000 
     38 CA         56.7410   39.1350   99.8980 C.3       8 GLP5        0.0000 
     39 N          53.8925   41.2740   98.6800 N.am      2 SEC2        0.0000 
     40 N          54.1650   41.4030  100.2110 N.am     10 SEL2        0.0000 
     41 N          53.6200   41.1450   97.1490 N.am      6 SEP2        0.0000 
     42 CA         55.9915   40.6730  100.0520 C.3       4 GLC5        0.0000 
     43 CA         55.2420   42.2110  100.2060 C.3      12 GLL5        0.0000 
     44 CA         56.3005   43.1435   98.6550 C.3       4 GLC5        0.0000 
     45 CA         57.3590   44.0760   97.1040 C.3       8 GLP5        0.0000 
     46 CA         57.2105   42.2530  100.8915 C.3       4 GLC5        0.0000 
     47 CA         59.1790   42.2950  101.5770 C.3       8 GLP5        0.0000 
     48 CA         57.1705   42.4385  102.0570 C.3       4 GLC5        0.0000 
     49 CA         55.1620   42.5820  102.5370 C.3      12 GLL5        0.0000 
     50 N          47.4860   48.4040  113.8390 N.am      2 SEC2        0.0000 
     51 N          47.2810   49.6880  114.2330 N.am     10 SEL2        0.0000 
     52 N          47.6910   47.1200  113.4450 N.am      6 SEP2        0.0000 
     53 N          44.2500   47.9865  115.1370 N.am      2 SEC2        0.0000 
     54 N          45.1930   48.8870  114.3420 N.am     10 SEL2        0.0000 
     55 N          43.3070   47.0860  115.9320 N.am      6 SEP2        0.0000 
     56 N          45.3970   47.3850  114.6160 N.am      2 SEC2        0.0000 
     57 N          45.6010   45.8830  114.8900 N.am      6 SEP2        0.0000 
     58 N          46.4420   48.0035  113.8935 N.am      2 SEC2        0.0000 
     59 O          44.3940   51.0215  116.0530 O.2       1 ALC1        0.0000 
     60 O          45.4790   50.9690  115.1110 O.2       9 ALL1        0.0000 
     61 O          43.3090   51.0740  116.9950 O.2       5 ALP1        0.0000 
     62 N          46.5930   53.4005  117.2500 N.am      2 SEC2        0.0000 
     63 N          45.7740   53.0630  115.8940 N.am     10 SEL2        0.0000 
     64 N          47.4120   53.7380  118.6060 N.am      6 SEP2        0.0000 
     65 N          48.5130   54.2485  115.9495 N.am      2 SEC2        0.0000 
     66 N          48.5270   52.9810  115.2750 N.am     10 SEL2        0.0000 
     67 N          48.4990   55.5160  116.6240 N.am      6 SEP2        0.0000 
     68 CA         49.0375   54.9160  116.3505 C.3       4 GLC5        0.0000 
     69 CA         50.6840   53.9390  115.2410 C.3      12 GLL5        0.0000 
     70 CA         47.3910   55.8930  117.4600 C.3       8 GLP5        0.0000 
     71 CA         51.9225   56.8180  114.8770 C.3       4 GLC5        0.0000 
     72 CA         52.8840   55.0680  115.2650 C.3      12 GLL5        0.0000 
     73 CA         50.9610   58.5680  114.4890 C.3       8 GLP5        0.0000 
     74 CA         54.0060   55.8450  116.6810 C.3       4 GLC5        0.0000 
     75 CA         55.1280   56.6220  118.0970 C.3       8 GLP5        0.0000 
     76 CA         55.3770   50.7835  113.4875 C.3       4 GLC5        0.0000 
     77 CA         54.0510   52.4570  113.9710 C.3      12 GLL5        0.0000 
     78 CA         56.7030   49.1100  113.0040 C.3       8 GLP5        0.0000 
     79 CA         55.8250   53.7430  114.0820 C.3       4 GLC5        0.0000 
     80 CA         57.5990   55.0290  114.1930 C.3       8 GLP5        0.0000 
     81 CA         54.2635   51.0460  115.4480 C.3       4 GLC5        0.0000 
     82 CA         54.4760   49.6350  116.9250 C.3       8 GLP5        0.0000 
     83 CA         48.9960   47.7765  114.0130 C.3       4 GLC5        0.0000 
     84 CA         49.9720   49.2850  113.5020 C.3      12 GLL5        0.0000 
     85 CA         48.0200   46.2680  114.5240 C.3       8 GLP5        0.0000 
     86 CA         50.5870   49.3790  115.0880 C.3       4 GLC5        0.0000 
     87 CA         51.2020   49.4730  116.6740 C.3       8 GLP5        0.0000 
     88 CA         50.7705   51.2615  110.8230 C.3       4 GLC5        0.0000 
     89 CA         50.3500   49.4640  112.0340 C.3      12 GLL5        0.0000 
     90 CA         51.1910   53.0590  109.6120 C.3       8 GLP5        0.0000 
     91 CA         53.1395   49.2560  109.8840 C.3       4 GLC5        0.0000 
     92 CA         51.4210   47.9010  110.2950 C.3      12 GLL5        0.0000 
     93 CA         54.8580   50.6110  109.4730 C.3       8 GLP5        0.0000 
     94 CA         50.9170   44.9865  110.8155 C.3       4 GLC5        0.0000 
     95 CA         51.6630   46.4100  110.3780 C.3      12 GLL5        0.0000 
     96 CA         50.1710   43.5630  111.2530 C.3       8 GLP5        0.0000 
     97 CA         50.9145   45.0185  108.9200 C.3       4 GLC5        0.0000 
     98 CA         50.1660   43.6270  107.4620 C.3       8 GLP5        0.0000 
     99 NZ         53.8660   42.8740  112.0430 N.4       3 LYC4        0.0000 
    100 NZ         53.4010   44.0700  111.6160 N.4      11 LYL4        0.0000 
    101 N          53.8660   42.8740  112.0430 N.am      2 SEC2        0.0000 
    102 N          53.4010   44.0700  111.6160 N.am     10 SEL2        0.0000 
    103 N          55.6810   47.4425  111.9070 N.am      2 SEC2        0.0000 
    104 N          54.4420   46.4230  112.0980 N.am     10 SEL2        0.0000 
    105 N          56.9200   48.4620  111.7160 N.am      6 SEP2        0.0000 
    106 CA         58.4345   42.7558  106.8342 C.3       4 GLC5        0.0000 
    107 CA         59.3640   41.2670  106.7720 C.3       8 GLP5        0.0000 
    108 CA         55.1517   46.8833  105.6145 C.3       4 GLC5        0.0000 
    109 CA         57.0640   45.6720  105.6490 C.3      12 GLL5        0.0000 
    110 CA         53.7870   48.3170  106.0530 C.3       8 GLP5        0.0000 
    111 CA         53.0011   43.2428  102.3779 C.3       4 GLC5        0.0000 
    112 CA         53.9820   41.7100  102.6230 C.3      12 GLL5        0.0000 
    113 CA         51.5520   44.4890  102.4920 C.3       8 GLP5        0.0000 
    114 CA         50.6580   50.8612  115.6698 C.3       4 GLC5        0.0000 
    115 CA         50.3900   51.6270  114.3590 C.3      12 GLL5        0.0000 
    116 CA         53.2735   54.8858  113.6225 C.3       4 GLC5        0.0000 
    117 CA         52.0360   53.8650  114.9410 C.3      12 GLL5        0.0000 
    118 CA         54.0870   55.3050  112.1420 C.3       8 GLP5        0.0000 
    119 CA         51.8660   53.8385  117.1550 C.3       4 GLC5        0.0000 
    120 CA         51.6100   53.1920  119.1320 C.3       8 GLP5        0.0000 
    121 CA         51.6872   50.7800  115.4340 C.3       4 GLC5        0.0000 
    122 CA         52.5940   52.6200  114.3240 C.3      12 GLL5        0.0000 
    123 CA         53.7048   53.9218  113.1448 C.3       4 GLC5        0.0000 
@<TRIPOS>BOND
@<TRIPOS>SUBSTRUCTURE
     1 ALC1       22 GROUP        1 X    ALC  0     ROOT ALC X 1
     2 SEC2        1 GROUP        1 X    SEC  0     **** SEC X 2
     3 LYC4        6 GROUP        1 X    LYC  0     **** LYC X 4
     4 GLC5       14 GROUP        1 X    GLC  0     **** GLC X 6
     5 ALP1       24 GROUP        1 Y    ALP  0     ROOT ALP Y 8
     6 SEP2        3 GROUP        1 Y    SEP  0     **** SEP Y 9
     7 LYP4        8 GROUP        1 Y    LYP  0     **** LYP Y 11
     8 GLP5       16 GROUP        1 Y    GLP  0     **** GLP Y 13
     9 ALL1       23 GROUP        1 Z    ALL  0     ROOT ALL Z 15
    10 SEL2        2 GROUP        1 Z    SEL  0     **** SEL Z 16
    11 LYL4        7 GROUP        1 Z    LYL  0     **** LYL Z 18
    12 GLL5       15 GROUP        1 Z    GLL  0     **** GLL Z 20
@<TRIPOS>SET

