#    Name: 4kto_FAD_3_ligand
#    Modification time : Tue Mar 25 08:56:58 2014

@<TRIPOS>MOLECULE
4kto_FAD_3_ligand
   84    89     1     0     0
SMALL
NO_CHARGES


@<TRIPOS>ATOM
      1 PA         55.1160   43.7630  109.0620 P.3       1 FAD401      0.0000 
      2 O1A        53.6750   43.5510  108.6570 O.co2     1 FAD401      0.0000 
      3 O2A        55.8910   42.5870  109.6240 O.co2     1 FAD401      0.0000 
      4 O5B        55.9350   44.3810  107.8130 O.3       1 FAD401      0.0000 
      5 C5B        57.3240   44.1030  107.6230 C.3       1 FAD401      0.0000 
      6 C4B        57.6860   44.3860  106.1700 C.3       1 FAD401      0.0000 
      7 O4B        57.2040   43.3280  105.3300 O.3       1 FAD401      0.0000 
      8 C3B        57.0640   45.6720  105.6490 C.3       1 FAD401      0.0000 
      9 O3B        58.0490   46.3550  104.8700 O.3       1 FAD401      0.0000 
     10 C2B        55.9690   45.2270  104.7030 C.3       1 FAD401      0.0000 
     11 O2B        55.8130   46.1530  103.6280 O.3       1 FAD401      0.0000 
     12 C1B        56.4950   43.8870  104.2140 C.3       1 FAD401      0.0000 
     13 N9A        55.3960   42.9880  103.7890 N.pl3     1 FAD401      0.0000 
     14 C8A        54.4740   42.4460  104.6120 C.2       1 FAD401      0.0000 
     15 N7A        53.6070   41.6690  103.9190 N.2       1 FAD401      0.0000 
     16 C5A        53.9820   41.7100  102.6230 C.ar      1 FAD401      0.0000 
     17 C6A        53.4950   41.1120  101.3580 C.ar      1 FAD401      0.0000 
     18 N6A        52.4080   40.2980  101.3830 N.pl3     1 FAD401      0.0000 
     19 N1A        54.1650   41.4030  100.2110 N.ar      1 FAD401      0.0000 
     20 C2A        55.2420   42.2110  100.2060 C.ar      1 FAD401      0.0000 
     21 N3A        55.7380   42.7870  101.3200 N.ar      1 FAD401      0.0000 
     22 C4A        55.1620   42.5820  102.5370 C.ar      1 FAD401      0.0000 
     23 N1         47.2810   49.6880  114.2330 N.2       1 FAD401      0.0000 
     24 C2         45.9720   49.8400  114.5610 C.2       1 FAD401      0.0000 
     25 O2         45.1930   48.8870  114.3420 O.2       1 FAD401      0.0000 
     26 N3         45.4790   50.9690  115.1110 N.am      1 FAD401      0.0000 
     27 C4         46.2460   52.0310  115.3770 C.2       1 FAD401      0.0000 
     28 O4         45.7740   53.0630  115.8940 O.2       1 FAD401      0.0000 
     29 C4X        47.6820   51.9560  115.0340 C.2       1 FAD401      0.0000 
     30 N5         48.5270   52.9810  115.2750 N.2       1 FAD401      0.0000 
     31 C5X        49.8380   52.8720  114.9720 C.ar      1 FAD401      0.0000 
     32 C6         50.6840   53.9390  115.2410 C.ar      1 FAD401      0.0000 
     33 C7         52.0360   53.8650  114.9410 C.ar      1 FAD401      0.0000 
     34 C7M        52.8840   55.0680  115.2650 C.3       1 FAD401      0.0000 
     35 C8         52.5940   52.6200  114.3240 C.ar      1 FAD401      0.0000 
     36 C8M        54.0510   52.4570  113.9710 C.3       1 FAD401      0.0000 
     37 C9         51.7510   51.5540  114.0640 C.ar      1 FAD401      0.0000 
     38 C9A        50.3900   51.6270  114.3590 C.ar      1 FAD401      0.0000 
     39 N10        49.5180   50.5430  114.1000 N.pl3     1 FAD401      0.0000 
     40 C10        48.1610   50.6870  114.4380 C.2       1 FAD401      0.0000 
     41 C1'        49.9720   49.2850  113.5020 C.3       1 FAD401      0.0000 
     42 C2'        50.3500   49.4640  112.0340 C.3       1 FAD401      0.0000 
     43 O2'        49.2100   49.3970  111.1660 O.3       1 FAD401      0.0000 
     44 C3'        51.3890   48.3920  111.7380 C.3       1 FAD401      0.0000 
     45 O3'        52.6790   48.9040  112.0950 O.3       1 FAD401      0.0000 
     46 C4'        51.4210   47.9010  110.2950 C.3       1 FAD401      0.0000 
     47 O4'        50.1730   48.1310  109.6290 O.3       1 FAD401      0.0000 
     48 C5'        51.6630   46.4100  110.3780 C.3       1 FAD401      0.0000 
     49 O5'        53.0040   46.0940  110.0580 O.3       1 FAD401      0.0000 
     50 P          53.9870   45.3650  111.1080 P.3       1 FAD401      0.0000 
     51 O1P        53.4010   44.0700  111.6160 O.co2     1 FAD401      0.0000 
     52 O2P        54.4420   46.4230  112.0980 O.co2     1 FAD401      0.0000 
     53 O3P        55.2060   44.9920  110.1160 O.3       1 FAD401      0.0000 
     54 H          57.5606   43.0573  107.8316 H         1 FAD401      0.0000 
     55 H          57.9539   44.7322  108.2558 H         1 FAD401      0.0000 
     56 H          58.7585   44.4706  106.0845 H         1 FAD401      0.0000 
     57 H          56.6719   46.2246  106.4241 H         1 FAD401      0.0000 
     58 H          55.0901   45.0574  105.2627 H         1 FAD401      0.0000 
     59 H          57.1681   44.0732  103.3992 H         1 FAD401      0.0000 
     60 H          54.4344   42.5927  105.5803 H         1 FAD401      0.0000 
     61 H          51.9976   40.1394  102.2810 H         1 FAD401      0.0000 
     62 H          52.1141   39.9292  100.5012 H         1 FAD401      0.0000 
     63 H          55.7262   42.4052   99.2781 H         1 FAD401      0.0000 
     64 H          44.4439   51.0102  115.3388 H         1 FAD401      0.0000 
     65 H          50.3012   54.7990  115.6701 H         1 FAD401      0.0000 
     66 H          52.1317   50.6873  113.6443 H         1 FAD401      0.0000 
     67 H          49.1844   48.5202  113.5629 H         1 FAD401      0.0000 
     68 H          50.8498   48.8956  114.0376 H         1 FAD401      0.0000 
     69 H          50.8569   50.4291  111.9569 H         1 FAD401      0.0000 
     70 H          51.1638   47.5261  112.3812 H         1 FAD401      0.0000 
     71 H          52.2450   48.3492  109.7975 H         1 FAD401      0.0000 
     72 H          50.9518   45.9146  109.6928 H         1 FAD401      0.0000 
     73 H          51.3985   46.0821  111.3994 H         1 FAD401      0.0000 
     74 H          53.8422   54.9246  115.0173 H         1 FAD401      0.0000 
     75 H          52.5738   55.8835  114.7764 H         1 FAD401      0.0000 
     76 H          52.8629   55.2853  116.2409 H         1 FAD401      0.0000 
     77 H          54.6400   52.5461  114.7742 H         1 FAD401      0.0000 
     78 H          54.2376   51.5608  113.5686 H         1 FAD401      0.0000 
     79 H          54.3519   53.1438  113.3093 H         1 FAD401      0.0000 
     80 H          58.7858   46.5664  105.5123 H         1 FAD401      0.0000 
     81 H          56.5984   46.7677  103.7001 H         1 FAD401      0.0000 
     82 H          49.5907   49.3204  110.2445 H         1 FAD401      0.0000 
     83 H          53.2868   48.1102  112.0756 H         1 FAD401      0.0000 
     84 H          50.4165   48.5887  108.7739 H         1 FAD401      0.0000 
@<TRIPOS>BOND
     1    2    1 ar   
     2    3    1 ar   
     3    4    1 1    
     4   53    1 1    
     5    5    4 1    
     6    6    5 1    
     7   54    5 1    
     8   55    5 1    
     9    7    6 1    
    10    8    6 1    
    11   56    6 1    
    12   12    7 1    
    13    9    8 1    
    14   10    8 1    
    15   57    8 1    
    16   80    9 1    
    17   11   10 1    
    18   12   10 1    
    19   58   10 1    
    20   81   11 1    
    21   13   12 1    
    22   59   12 1    
    23   14   13 1    
    24   22   13 1    
    25   15   14 2    
    26   60   14 1    
    27   16   15 1    
    28   17   16 ar   
    29   22   16 ar   
    30   18   17 1    
    31   19   17 ar   
    32   61   18 1    
    33   62   18 1    
    34   20   19 ar   
    35   21   20 ar   
    36   63   20 1    
    37   22   21 ar   
    38   24   23 1    
    39   40   23 2    
    40   25   24 2    
    41   26   24 am   
    42   27   26 am   
    43   64   26 1    
    44   28   27 2    
    45   29   27 1    
    46   30   29 2    
    47   40   29 1    
    48   31   30 1    
    49   32   31 ar   
    50   38   31 ar   
    51   33   32 ar   
    52   65   32 1    
    53   34   33 1    
    54   35   33 ar   
    55   74   34 1    
    56   75   34 1    
    57   76   34 1    
    58   36   35 1    
    59   37   35 ar   
    60   77   36 1    
    61   78   36 1    
    62   79   36 1    
    63   38   37 ar   
    64   66   37 1    
    65   39   38 1    
    66   40   39 1    
    67   41   39 1    
    68   42   41 1    
    69   67   41 1    
    70   68   41 1    
    71   43   42 1    
    72   44   42 1    
    73   69   42 1    
    74   82   43 1    
    75   45   44 1    
    76   46   44 1    
    77   70   44 1    
    78   83   45 1    
    79   47   46 1    
    80   48   46 1    
    81   71   46 1    
    82   84   47 1    
    83   49   48 1    
    84   72   48 1    
    85   73   48 1    
    86   50   49 1    
    87   51   50 ar   
    88   52   50 ar   
    89   53   50 1    
@<TRIPOS>SUBSTRUCTURE
     1 FAD401      1 GROUP   
@<TRIPOS>SET

