#    Name: 1pq6_965_3_INTS_M
#    Modification time : Mon Mar 24 22:05:06 2014

@<TRIPOS>MOLECULE
1pq6_965_3_INTS_M
  115     0     9     0     0
SMALL
NO_CHARGES


@<TRIPOS>ATOM
      1 NZ         12.0465   71.7625  105.5345 N.4       2 LYC4        0.0000 
      2 NZ         13.5480   70.8690  105.8840 N.4       8 LYL4        0.0000 
      3 NZ         10.5450   72.6560  105.1850 N.4       5 LYP4        0.0000 
      4 N          12.9970   69.8800  106.8210 N.am      1 SEC2        0.0000 
      5 N          13.5480   70.8690  105.8840 N.am      7 SEL2        0.0000 
      6 N          12.4460   68.8910  107.7580 N.am      4 SEP2        0.0000 
      7 NZ         11.3905   71.2720  104.8180 N.4       2 LYC4        0.0000 
      8 NZ         12.2360   69.8880  104.4510 N.4       8 LYL4        0.0000 
      9 N          12.3410   69.3895  106.1045 N.am      1 SEC2        0.0000 
     10 N          12.2360   69.8880  104.4510 N.am      7 SEL2        0.0000 
     11 CA         14.1025   69.0825  104.5775 C.3       3 GLC5        0.0000 
     12 CA         14.0800   71.0740  103.5670 C.3       9 GLL5        0.0000 
     13 CA         14.1250   67.0910  105.5880 C.3       6 GLP5        0.0000 
     14 CA         13.0575   73.8215  105.4600 C.3       3 GLC5        0.0000 
     15 CA         14.6160   73.4760  104.0540 C.3       9 GLL5        0.0000 
     16 CA         11.4990   74.1670  106.8660 C.3       6 GLP5        0.0000 
     17 CA         19.0700   71.1210  106.9745 C.3       3 GLC5        0.0000 
     18 CA         18.7040   72.9050  107.0210 C.3       9 GLL5        0.0000 
     19 CA         19.4360   69.3370  106.9280 C.3       6 GLP5        0.0000 
     20 CA         17.2750   73.5905  107.8190 C.3       3 GLC5        0.0000 
     21 CA         15.8460   74.2760  108.6170 C.3       6 GLP5        0.0000 
     22 CA         21.1530   73.2305  105.5215 C.3       3 GLC5        0.0000 
     23 CA         19.8060   73.9520  106.9820 C.3       9 GLL5        0.0000 
     24 CA         22.5000   72.5090  104.0610 C.3       6 GLP5        0.0000 
     25 CA         20.0280   74.8775  105.0005 C.3       3 GLC5        0.0000 
     26 CA         20.2500   75.8030  103.0190 C.3       6 GLP5        0.0000 
     27 CA         20.8405   72.6585  109.9110 C.3       3 GLC5        0.0000 
     28 CA         20.4780   73.9700  108.3550 C.3       9 GLL5        0.0000 
     29 CA         21.2030   71.3470  111.4670 C.3       6 GLP5        0.0000 
     30 CA         23.0610   72.8595  108.8595 C.3       3 GLC5        0.0000 
     31 CA         22.7840   74.3160  107.5940 C.3       9 GLL5        0.0000 
     32 CA         23.3380   71.4030  110.1250 C.3       6 GLP5        0.0000 
     33 CA         22.8210   78.4405  103.7065 C.3       3 GLC5        0.0000 
     34 CA         23.3920   76.9050  104.8520 C.3       9 GLL5        0.0000 
     35 CA         22.2500   79.9760  102.5610 C.3       6 GLP5        0.0000 
     36 CA         27.4850   74.0155  108.8085 C.3       3 GLC5        0.0000 
     37 CA         25.8280   74.3610  107.7490 C.3       9 GLL5        0.0000 
     38 CA         29.1420   73.6700  109.8680 C.3       6 GLP5        0.0000 
     39 CA         26.5670   72.7755  107.3805 C.3       3 GLC5        0.0000 
     40 CA         27.3060   71.1900  107.0120 C.3       6 GLP5        0.0000 
     41 CA         26.5710   75.3940  109.6030 C.3       3 GLC5        0.0000 
     42 CA         27.3140   76.4270  111.4570 C.3       6 GLP5        0.0000 
     43 CA         26.1615   78.5185  107.8435 C.3       3 GLC5        0.0000 
     44 CA         27.3580   77.1260  106.7880 C.3       9 GLL5        0.0000 
     45 CA         24.9650   79.9110  108.8990 C.3       6 GLP5        0.0000 
     46 CA         27.9825   78.7000  107.7010 C.3       3 GLC5        0.0000 
     47 CA         28.6070   80.2740  108.6140 C.3       6 GLP5        0.0000 
     48 CA         26.6220   78.7250  104.2865 C.3       3 GLC5        0.0000 
     49 CA         27.5750   76.8760  104.6100 C.3       9 GLL5        0.0000 
     50 CA         25.6690   80.5740  103.9630 C.3       6 GLP5        0.0000 
     51 CA         28.6565   78.3615  104.0690 C.3       3 GLC5        0.0000 
     52 CA         29.7380   79.8470  103.5280 C.3       6 GLP5        0.0000 
     53 CA         26.9790   76.6885  102.7815 C.3       3 GLC5        0.0000 
     54 CA         26.3830   76.5010  100.9530 C.3       6 GLP5        0.0000 
     55 CA         28.8200   74.1875  107.4200 C.3       3 GLC5        0.0000 
     56 CA         27.5800   75.1450  105.9180 C.3       9 GLL5        0.0000 
     57 CA         30.0600   73.2300  108.9220 C.3       6 GLP5        0.0000 
     58 CA         27.4430   73.1675  106.4650 C.3       3 GLC5        0.0000 
     59 CA         23.2960   76.3885  110.3860 C.3       3 GLC5        0.0000 
     60 CA         21.7170   76.1700  108.9400 C.3       9 GLL5        0.0000 
     61 CA         24.8750   76.6070  111.8320 C.3       6 GLP5        0.0000 
     62 CA         22.4515   79.8555  113.3735 C.3       3 GLC5        0.0000 
     63 CA         21.4260   79.2840  111.7430 C.3       9 GLL5        0.0000 
     64 CA         23.4770   80.4270  115.0040 C.3       6 GLP5        0.0000 
     65 CA         21.3145   81.0360  113.2005 C.3       3 GLC5        0.0000 
     66 CA         20.2030   79.5500  112.3210 C.3       9 GLL5        0.0000 
     67 CA         22.4260   82.5220  114.0800 C.3       6 GLP5        0.0000 
     68 CA         17.3735   78.4460  109.6285 C.3       3 GLC5        0.0000 
     69 CA         19.1510   78.2120  110.6390 C.3       9 GLL5        0.0000 
     70 CA         15.5960   78.6800  108.6180 C.3       6 GLP5        0.0000 
     71 CA         17.1765   78.5255  106.3985 C.3       3 GLC5        0.0000 
     72 CA         19.1780   78.4640  105.6390 C.3       9 GLL5        0.0000 
     73 CA         15.1750   78.5870  107.1580 C.3       6 GLP5        0.0000 
     74 CA         19.7510   76.7725  104.9270 C.3       3 GLC5        0.0000 
     75 CA         19.2520   77.7420  106.8350 C.3       9 GLL5        0.0000 
     76 CA         17.4240   78.2110  107.7265 C.3       3 GLC5        0.0000 
     77 CA         16.2888   73.3110  102.9878 C.3       3 GLC5        0.0000 
     78 CA         17.5580   72.6440  101.6550 C.3       6 GLP5        0.0000 
     79 CA         13.7417   75.3860  103.5623 C.3       3 GLC5        0.0000 
     80 CA         12.4640   76.7940  102.8040 C.3       6 GLP5        0.0000 
     81 CA         17.2060   73.0660  103.4170 C.3       3 GLC5        0.0000 
     82 CA         16.6480   74.1530  105.1660 C.3       9 GLL5        0.0000 
     83 CA         18.4675   74.2025  108.6347 C.3       3 GLC5        0.0000 
     84 CA         16.7930   74.4440  109.6010 C.3       6 GLP5        0.0000 
     85 CA         22.7067   73.9626  105.2361 C.3       3 GLC5        0.0000 
     86 CA         21.6530   76.1385  104.1525 C.3       3 GLC5        0.0000 
     87 CA         22.7200   76.0430  105.7200 C.3       9 GLL5        0.0000 
     88 CA         24.8770   78.7697  104.4038 C.3       3 GLC5        0.0000 
     89 CA         29.4366   76.3522  106.2819 C.3       3 GLC5        0.0000 
     90 CA         31.3860   76.7270  106.8870 C.3       6 GLP5        0.0000 
     91 CA         28.7261   75.4440  104.1016 C.3       3 GLC5        0.0000 
     92 CA         30.0010   75.0060  102.6580 C.3       6 GLP5        0.0000 
     93 CA         20.4857   76.0200  110.7788 C.3       3 GLC5        0.0000 
     94 CA         19.8940   75.4230  112.6500 C.3       6 GLP5        0.0000 
     95 CA         23.1737   77.7480  111.5055 C.3       3 GLC5        0.0000 
     96 CA         21.5190   78.4940  110.6150 C.3       9 GLL5        0.0000 
     97 CA         21.4047   78.1525  113.7255 C.3       3 GLC5        0.0000 
     98 CA         21.9950   76.8880  115.4190 C.3       6 GLP5        0.0000 
     99 CA         21.0181   80.3040  110.0159 C.3       3 GLC5        0.0000 
    100 CA         20.8500   81.8520  108.9910 C.3       6 GLP5        0.0000 
    101 CA         17.3492   78.4145  111.8340 C.3       3 GLC5        0.0000 
    102 CA         19.0720   79.0060  111.7670 C.3       9 GLL5        0.0000 
    103 CA         15.5870   78.2200  112.4650 C.3       6 GLP5        0.0000 
    104 CA         18.7336   80.3415  110.6767 C.3       3 GLC5        0.0000 
    105 CA         18.0730   81.9380  110.0120 C.3       6 GLP5        0.0000 
    106 CA         21.5200   79.6638  104.1065 C.3       3 GLC5        0.0000 
    107 CA         21.3500   79.4080  106.0570 C.3       9 GLL5        0.0000 
    108 CA         20.9866   80.3455  107.8710 C.3       3 GLC5        0.0000 
    109 CA         18.9525   78.3752  103.6985 C.3       3 GLC5        0.0000 
    110 CA         20.2300   79.2950  105.2470 C.3       9 GLL5        0.0000 
    111 CA         18.2010   77.8710  101.9540 C.3       6 GLP5        0.0000 
    112 CA         19.3940   80.5939  105.7527 C.3       3 GLC5        0.0000 
    113 CA         18.8040   82.2800  105.8600 C.3       6 GLP5        0.0000 
    114 CA         16.4799   72.1820  102.9411 C.3       3 GLC5        0.0000 
    115 CA         16.2530   71.8260  104.6360 C.3       9 GLL5        0.0000 
@<TRIPOS>BOND
@<TRIPOS>SUBSTRUCTURE
     1 SEC2        4 GROUP        1 X    SEC  0     ROOT SEC X 2
     2 LYC4        1 GROUP        1 X    LYC  0     **** LYC X 4
     3 GLC5       11 GROUP        1 X    GLC  0     **** GLC X 6
     4 SEP2        6 GROUP        1 Y    SEP  0     ROOT SEP Y 9
     5 LYP4        3 GROUP        1 Y    LYP  0     **** LYP Y 11
     6 GLP5       13 GROUP        1 Y    GLP  0     **** GLP Y 13
     7 SEL2        5 GROUP        1 Z    SEL  0     ROOT SEL Z 16
     8 LYL4        2 GROUP        1 Z    LYL  0     **** LYL Z 18
     9 GLL5       12 GROUP        1 Z    GLL  0     **** GLL Z 20
@<TRIPOS>SET

