#    Name: 1pq6_965_3_ligand
#    Modification time : Mon Mar 24 22:05:06 2014

@<TRIPOS>MOLECULE
1pq6_965_3_ligand
   74    77     1     0     0
SMALL
NO_CHARGES


@<TRIPOS>ATOM
      1 O37        13.5480   70.8690  105.8840 O.co2     1 9653500     0.0000 
      2 C35        13.2320   70.6010  104.7230 C.2       1 9653500     0.0000 
      3 O36        12.2360   69.8880  104.4510 O.co2     1 9653500     0.0000 
      4 C34        14.0800   71.0740  103.5670 C.3       1 9653500     0.0000 
      5 C32        15.0210   72.1540  104.0700 C.ar      1 9653500     0.0000 
      6 C31        14.6160   73.4760  104.0540 C.ar      1 9653500     0.0000 
      7 C30        15.4230   74.4800  104.5870 C.ar      1 9653500     0.0000 
      8 C29        16.6480   74.1530  105.1660 C.ar      1 9653500     0.0000 
      9 C28        17.0600   72.8230  105.1920 C.ar      1 9653500     0.0000 
     10 O27        18.2830   72.4740  105.7200 O.3       1 9653500     0.0000 
     11 C26        18.7040   72.9050  107.0210 C.3       1 9653500     0.0000 
     12 C25        19.8060   73.9520  106.9820 C.3       1 9653500     0.0000 
     13 C17        20.4780   73.9700  108.3550 C.3       1 9653500     0.0000 
     14 N09        21.6060   74.8850  108.2460 N.4       1 9653500     0.0000 
     15 C16        22.7840   74.3160  107.5940 C.3       1 9653500     0.0000 
     16 C18        23.4300   75.2630  106.6110 C.ar      1 9653500     0.0000 
     17 C23        22.7200   76.0430  105.7200 C.ar      1 9653500     0.0000 
     18 C22        23.3920   76.9050  104.8520 C.ar      1 9653500     0.0000 
     19 C21        24.7780   77.0260  104.8370 C.ar      1 9653500     0.0000 
     20 C20        25.5670   76.2750  105.6900 C.ar      1 9653500     0.0000 
     21 C19        24.8900   75.3680  106.6190 C.ar      1 9653500     0.0000 
     22 CL4        25.8280   74.3610  107.7490 Cl        1 9653500     0.0000 
     23 C39        27.0700   76.3620  105.7350 C.3       1 9653500     0.0000 
     24 F41        27.3580   77.1260  106.7880 F         1 9653500     0.0000 
     25 F40        27.5750   76.8760  104.6100 F         1 9653500     0.0000 
     26 F42        27.5800   75.1450  105.9180 F         1 9653500     0.0000 
     27 C08        21.7170   76.1700  108.9400 C.3       1 9653500     0.0000 
     28 C07        20.4380   77.0640  108.8750 C.3       1 9653500     0.0000 
     29 C01        20.3740   77.9620  110.0620 C.3       1 9653500     0.0000 
     30 C02        21.5190   78.4940  110.6150 C.3       1 9653500     0.0000 
     31 C03        21.4260   79.2840  111.7430 C.2       1 9653500     0.0000 
     32 C04        20.2030   79.5500  112.3210 C.2       1 9653500     0.0000 
     33 C05        19.0720   79.0060  111.7670 C.2       1 9653500     0.0000 
     34 C06        19.1510   78.2120  110.6390 C.2       1 9653500     0.0000 
     35 C10        20.3740   77.8560  107.6340 C.ar      1 9653500     0.0000 
     36 C15        21.4190   78.6840  107.2560 C.ar      1 9653500     0.0000 
     37 C14        21.3500   79.4080  106.0570 C.ar      1 9653500     0.0000 
     38 C13        20.2300   79.2950  105.2470 C.ar      1 9653500     0.0000 
     39 C12        19.1780   78.4640  105.6390 C.ar      1 9653500     0.0000 
     40 C11        19.2520   77.7420  106.8350 C.ar      1 9653500     0.0000 
     41 C33        16.2530   71.8260  104.6360 C.ar      1 9653500     0.0000 
     42 H          13.4459   71.4820  102.7908 H         1 9653500     0.0000 
     43 H          14.6578   70.2474  103.1746 H         1 9653500     0.0000 
     44 H          13.7004   73.7291  103.6410 H         1 9653500     0.0000 
     45 H          15.1154   75.4588  104.5531 H         1 9653500     0.0000 
     46 H          17.2396   74.8849  105.5687 H         1 9653500     0.0000 
     47 H          19.0746   72.0488  107.6250 H         1 9653500     0.0000 
     48 H          17.8537   73.3328  107.5947 H         1 9653500     0.0000 
     49 H          19.3809   74.9198  106.7791 H         1 9653500     0.0000 
     50 H          20.5316   73.6883  106.2320 H         1 9653500     0.0000 
     51 H          20.8035   72.9690  108.5899 H         1 9653500     0.0000 
     52 H          19.7603   74.3139  109.0828 H         1 9653500     0.0000 
     53 H          21.1497   75.4415  107.0681 H         1 9653500     0.0000 
     54 H          22.5140   73.3859  107.0567 H         1 9653500     0.0000 
     55 H          23.5404   74.0286  108.3503 H         1 9653500     0.0000 
     56 H          21.6913   75.9935  105.6906 H         1 9653500     0.0000 
     57 H          22.8289   77.4830  104.1861 H         1 9653500     0.0000 
     58 H          25.2223   77.6889  104.1764 H         1 9653500     0.0000 
     59 H          22.5541   76.7707  108.5264 H         1 9653500     0.0000 
     60 H          21.9531   76.0190  110.0143 H         1 9653500     0.0000 
     61 H          19.5782   76.3833  108.9138 H         1 9653500     0.0000 
     62 H          20.2253   79.0916  109.1942 H         1 9653500     0.0000 
     63 H          22.0989   79.0748  109.7961 H         1 9653500     0.0000 
     64 H          22.2736   77.6373  110.8173 H         1 9653500     0.0000 
     65 H          22.2884   79.6826  112.1609 H         1 9653500     0.0000 
     66 H          20.1427   80.1471  113.1542 H         1 9653500     0.0000 
     67 H          18.1454   79.1902  112.1964 H         1 9653500     0.0000 
     68 H          18.2929   77.8091  110.2329 H         1 9653500     0.0000 
     69 H          22.2528   78.7730  107.8529 H         1 9653500     0.0000 
     70 H          22.1291   80.0174  105.7861 H         1 9653500     0.0000 
     71 H          20.1703   79.8155  104.3665 H         1 9653500     0.0000 
     72 H          18.3420   78.3816  105.0444 H         1 9653500     0.0000 
     73 H          18.4737   77.1333  107.1107 H         1 9653500     0.0000 
     74 H          16.5699   70.8481  104.6450 H         1 9653500     0.0000 
@<TRIPOS>BOND
     1    2    1 ar   
     2    3    2 ar   
     3    4    2 1    
     4    5    4 1    
     5   42    4 1    
     6   43    4 1    
     7    6    5 ar   
     8   41    5 ar   
     9    7    6 ar   
    10   44    6 1    
    11    8    7 ar   
    12   45    7 1    
    13    9    8 ar   
    14   46    8 1    
    15   10    9 1    
    16   41    9 ar   
    17   11   10 1    
    18   12   11 1    
    19   47   11 1    
    20   48   11 1    
    21   13   12 1    
    22   49   12 1    
    23   50   12 1    
    24   14   13 1    
    25   51   13 1    
    26   52   13 1    
    27   15   14 1    
    28   27   14 1    
    29   53   14 1    
    30   16   15 1    
    31   54   15 1    
    32   55   15 1    
    33   17   16 ar   
    34   21   16 ar   
    35   18   17 ar   
    36   56   17 1    
    37   19   18 ar   
    38   57   18 1    
    39   20   19 ar   
    40   58   19 1    
    41   21   20 ar   
    42   23   20 1    
    43   22   21 1    
    44   24   23 1    
    45   25   23 1    
    46   26   23 1    
    47   28   27 1    
    48   59   27 1    
    49   60   27 1    
    50   29   28 1    
    51   35   28 1    
    52   61   28 1    
    53   30   29 1    
    54   34   29 1    
    55   62   29 1    
    56   31   30 1    
    57   63   30 1    
    58   64   30 1    
    59   32   31 2    
    60   65   31 1    
    61   33   32 1    
    62   66   32 1    
    63   34   33 2    
    64   67   33 1    
    65   68   34 1    
    66   36   35 ar   
    67   40   35 ar   
    68   37   36 ar   
    69   69   36 1    
    70   38   37 ar   
    71   70   37 1    
    72   39   38 ar   
    73   71   38 1    
    74   40   39 ar   
    75   72   39 1    
    76   73   40 1    
    77   74   41 1    
@<TRIPOS>SUBSTRUCTURE
     1 9653500     1 GROUP   
@<TRIPOS>SET

