#    Name: 2WXD_1_CAVITY_N1_ALL.mol2
#    Modification time : Mon Mar 10 21:21:05 2014

@<TRIPOS>MOLECULE
2WXD_1_CAVITY_N1_ALL.mol2
  189     0     7     0     0
SMALL
NO_CHARGES


@<TRIPOS>ATOM
      1 OD1        50.6537  119.4822   47.4037 O.3       3 ASP3        0.0000 
      2 DU         49.2785  120.0516   47.2175 H         7 CUB7        0.0000 
      3 DU         47.9033  120.6210   47.0312 H         7 CUB7        0.0000 
      4 CZ         46.5282  121.1904   46.8450 C.ar      5 PHE5        0.0000 
      5 O          49.0477  119.1178   46.0665 O.2       2 ALA2        0.0000 
      6 O          47.6726  119.6872   45.8802 O.2       2 ALA2        0.0000 
      7 CZ         46.2974  120.2566   45.6940 C.ar      5 PHE5        0.0000 
      8 O          48.8170  118.1840   44.9155 O.2       2 ALA2        0.0000 
      9 O          49.9614  116.6808   43.9507 O.2       2 ALA2        0.0000 
     10 OG         51.1058  115.1776   42.9860 O.2       1 SER1        0.0000 
     11 CZ         49.7306  115.7470   42.7998 C.ar      5 PHE5        0.0000 
     12 O          48.3555  116.3164   42.6135 O.2       2 ALA2        0.0000 
     13 CA         50.8751  114.2438   41.8350 C.3       6 GLY6        0.0000 
     14 OG         49.4999  114.8132   41.6488 O.2       1 SER1        0.0000 
     15 OG         48.1247  115.3826   41.4625 O.2       1 SER1        0.0000 
     16 NZ         48.2735  123.3296   52.5789 N.2       4 LYS4        0.0000 
     17 NZ         48.0428  122.3958   51.4279 N.2       4 LYS4        0.0000 
     18 CZ         46.6676  122.9652   51.2416 C.ar      5 PHE5        0.0000 
     19 CA         51.9375  119.7538   50.8356 C.3       6 GLY6        0.0000 
     20 NZ         50.5624  120.3232   50.6494 N.2       4 LYS4        0.0000 
     21 NZ         49.1872  120.8926   50.4631 N.2       4 LYS4        0.0000 
     22 DU         47.8120  121.4620   50.2769 H         7 CUB7        0.0000 
     23 CZ         46.4368  122.0314   50.0907 C.ar      5 PHE5        0.0000 
     24 O          51.7068  118.8200   49.6846 O.2       2 ALA2        0.0000 
     25 DU         50.3316  119.3894   49.4984 H         7 CUB7        0.0000 
     26 DU         48.9564  119.9588   49.3121 H         7 CUB7        0.0000 
     27 DU         47.5812  120.5282   49.1259 H         7 CUB7        0.0000 
     28 CZ         46.2061  121.0976   48.9397 C.ar      5 PHE5        0.0000 
     29 CA         50.1008  118.4556   48.3474 C.3       6 GLY6        0.0000 
     30 DU         48.7257  119.0250   48.1611 H         7 CUB7        0.0000 
     31 DU         47.3505  119.5944   47.9749 H         7 CUB7        0.0000 
     32 CA         45.9753  120.1638   47.7887 C.3       6 GLY6        0.0000 
     33 CZ         44.6001  120.7332   47.6024 C.ar      5 PHE5        0.0000 
     34 CA         49.8701  117.5218   47.1964 C.3       6 GLY6        0.0000 
     35 CA         48.4949  118.0912   47.0102 C.3       6 GLY6        0.0000 
     36 O          47.1197  118.6606   46.8239 O.2       2 ALA2        0.0000 
     37 O          45.7446  119.2300   46.6377 O.2       2 ALA2        0.0000 
     38 CA         49.6393  116.5880   46.0454 C.3       6 GLY6        0.0000 
     39 O          48.2641  117.1574   45.8592 O.2       2 ALA2        0.0000 
     40 CZ         49.4086  115.6542   44.8944 C.ar      5 PHE5        0.0000 
     41 O          48.0334  116.2236   44.7082 O.2       2 ALA2        0.0000 
     42 NZ         49.0959  121.7336   53.7088 N.2       4 LYS4        0.0000 
     43 NZ         50.2403  120.2305   52.7440 N.2       4 LYS4        0.0000 
     44 NZ         48.8651  120.7998   52.5578 N.2       4 LYS4        0.0000 
     45 OG         47.4899  121.3692   52.3716 O.2       1 SER1        0.0000 
     46 CZ         50.0095  119.2967   51.5930 C.ar      5 PHE5        0.0000 
     47 O          48.6343  119.8660   51.4068 O.2       2 ALA2        0.0000 
     48 CZ         47.2592  120.4354   51.2206 C.ar      5 PHE5        0.0000 
     49 CZ         49.7788  118.3629   50.4421 C.ar      5 PHE5        0.0000 
     50 O          48.4036  118.9323   50.2558 O.2       2 ALA2        0.0000 
     51 O          47.0284  119.5016   50.0696 O.2       2 ALA2        0.0000 
     52 CZ         45.6532  120.0710   49.8833 C.ar      5 PHE5        0.0000 
     53 OG         49.5480  117.4291   49.2911 O.2       1 SER1        0.0000 
     54 O          48.1728  117.9985   49.1048 O.2       2 ALA2        0.0000 
     55 O          46.7976  118.5678   48.9186 O.2       2 ALA2        0.0000 
     56 CA         45.4225  119.1372   48.7324 C.3       6 GLY6        0.0000 
     57 OG         47.9421  117.0647   47.9538 O.2       1 SER1        0.0000 
     58 CA         46.5669  117.6341   47.7676 C.3       6 GLY6        0.0000 
     59 OG         49.0865  115.5615   46.9891 O.2       1 SER1        0.0000 
     60 OG         47.7113  116.1309   46.8029 O.2       1 SER1        0.0000 
     61 CA         46.3361  116.7003   46.6166 C.3       6 GLY6        0.0000 
     62 CZ         49.9182  120.1377   54.8387 C.ar      5 PHE5        0.0000 
     63 NZ         48.5430  120.7071   54.6525 N.2       4 LYS4        0.0000 
     64 CZ         49.6874  119.2039   53.6877 C.ar      5 PHE5        0.0000 
     65 NZ         48.3123  119.7733   53.5015 N.2       4 LYS4        0.0000 
     66 N          48.0815  118.8395   52.3505 N.2       2 ALA2        0.0000 
     67 N          50.9897  125.8465   40.2181 N.2       2 ALA2        0.0000 
     68 N          50.7589  124.9127   39.0671 N.2       2 ALA2        0.0000 
     69 N          49.1530  124.5483   37.7299 N.2       2 ALA2        0.0000 
     70 CZ         47.7778  125.1177   37.5437 C.ar      5 PHE5        0.0000 
     71 CA         50.4368  124.8199   41.1618 C.3       6 GLY6        0.0000 
     72 CA         49.0616  125.3893   40.9756 C.3       6 GLY6        0.0000 
     73 DU         50.2060  123.8861   40.0108 H         7 CUB7        0.0000 
     74 N          48.8309  124.4555   39.8246 N.2       2 ALA2        0.0000 
     75 DU         49.9753  122.9524   38.8598 H         7 CUB7        0.0000 
     76 CZ         48.6001  123.5217   38.6736 C.ar      5 PHE5        0.0000 
     77 DU         48.3693  122.5879   37.5226 H         7 CUB7        0.0000 
     78 CZ         46.9942  123.1573   37.3364 C.ar      5 PHE5        0.0000 
     79 CA         53.0958  124.5222   44.7799 C.3       6 GLY6        0.0000 
     80 CA         49.8840  123.7934   42.1055 C.3       6 GLY6        0.0000 
     81 DU         49.6532  122.8596   40.9545 H         7 CUB7        0.0000 
     82 OG         48.2780  123.4290   40.7683 O.2       1 SER1        0.0000 
     83 DU         49.4224  121.9258   39.8035 H         7 CUB7        0.0000 
     84 OG         48.0473  122.4952   39.6173 O.2       1 SER1        0.0000 
     85 DU         49.1917  120.9920   38.6525 H         7 CUB7        0.0000 
     86 O          47.8165  121.5614   38.4663 O.2       2 ALA2        0.0000 
     87 O          46.4413  122.1308   38.2801 O.2       2 ALA2        0.0000 
     88 DU         48.9609  120.0582   37.5015 H         7 CUB7        0.0000 
     89 N          47.5857  120.6276   37.3153 N.2       2 ALA2        0.0000 
     90 N          46.2106  121.1970   37.1291 N.2       2 ALA2        0.0000 
     91 CA         52.5430  123.4956   45.7236 C.3       6 GLY6        0.0000 
     92 OD1        51.1678  124.0650   45.5374 O.3       3 ASP3        0.0000 
     93 NZ         49.7926  124.6344   45.3512 N.2       4 LYS4        0.0000 
     94 DU         50.9371  123.1312   44.3864 H         7 CUB7        0.0000 
     95 CA         49.5619  123.7006   44.2002 C.3       6 GLY6        0.0000 
     96 DU         50.7063  122.1974   43.2354 H         7 CUB7        0.0000 
     97 CA         49.3311  122.7668   43.0492 C.3       6 GLY6        0.0000 
     98 DU         50.4755  121.2636   42.0844 H         7 CUB7        0.0000 
     99 DU         49.1004  121.8330   41.8982 H         7 CUB7        0.0000 
    100 OG         47.7252  122.4024   41.7120 O.2       1 SER1        0.0000 
    101 DU         50.2448  120.3298   40.9334 H         7 CUB7        0.0000 
    102 DU         48.8696  120.8992   40.7472 H         7 CUB7        0.0000 
    103 O          47.4944  121.4686   40.5610 O.2       2 ALA2        0.0000 
    104 O          48.6388  119.9654   39.5962 O.2       2 ALA2        0.0000 
    105 O          47.2637  120.5348   39.4100 O.2       2 ALA2        0.0000 
    106 DU         48.4081  119.0316   38.4452 H         7 CUB7        0.0000 
    107 O          47.0329  119.6010   38.2590 O.2       2 ALA2        0.0000 
    108 CA         48.1773  118.0978   37.2942 C.3       6 GLY6        0.0000 
    109 OD1        51.0765  124.9061   48.7831 O.3       3 ASP3        0.0000 
    110 NZ         49.7013  125.4755   48.5968 N.2       4 LYS4        0.0000 
    111 CA         52.2209  123.4029   47.8183 C.3       6 GLY6        0.0000 
    112 OD1        50.8457  123.9723   47.6321 O.3       3 ASP3        0.0000 
    113 NZ         49.4706  124.5417   47.4458 N.2       4 LYS4        0.0000 
    114 NZ         48.0954  125.1111   47.2596 N.2       4 LYS4        0.0000 
    115 O          51.9901  122.4691   46.6673 O.2       2 ALA2        0.0000 
    116 DU         50.6150  123.0385   46.4811 H         7 CUB7        0.0000 
    117 NZ         49.2398  123.6079   46.2948 N.2       4 LYS4        0.0000 
    118 CA         47.8646  124.1773   46.1086 C.3       6 GLY6        0.0000 
    119 O          51.7594  121.5353   45.5163 O.2       2 ALA2        0.0000 
    120 O          50.3842  122.1047   45.3301 O.2       2 ALA2        0.0000 
    121 CA         49.0090  122.6741   45.1439 C.3       6 GLY6        0.0000 
    122 CA         47.6339  123.2435   44.9576 C.3       6 GLY6        0.0000 
    123 O          50.1534  121.1709   44.1791 O.2       2 ALA2        0.0000 
    124 DU         48.7783  121.7403   43.9929 H         7 CUB7        0.0000 
    125 CZ         47.4031  122.3097   43.8066 C.ar      5 PHE5        0.0000 
    126 O          49.9227  120.2371   43.0281 O.2       2 ALA2        0.0000 
    127 O          48.5475  120.8065   42.8419 O.2       2 ALA2        0.0000 
    128 CZ         47.1723  121.3759   42.6556 C.ar      5 PHE5        0.0000 
    129 O          52.4423  118.1645   42.2496 O.2       2 ALA2        0.0000 
    130 O          49.6919  119.3033   41.8771 O.2       2 ALA2        0.0000 
    131 O          48.3167  119.8727   41.6909 O.2       2 ALA2        0.0000 
    132 O          46.9416  120.4421   41.5047 O.2       2 ALA2        0.0000 
    133 DU         50.8363  117.8001   40.9124 H         7 CUB7        0.0000 
    134 DU         49.4612  118.3695   40.7261 H         7 CUB7        0.0000 
    135 O          48.0860  118.9389   40.5399 O.2       2 ALA2        0.0000 
    136 CA         53.3559  115.7275   40.1339 C.3       6 GLY6        0.0000 
    137 DU         50.6056  116.8663   39.7614 H         7 CUB7        0.0000 
    138 DU         49.2304  117.4357   39.5752 H         7 CUB7        0.0000 
    139 CA         47.8552  118.0051   39.3889 C.3       6 GLY6        0.0000 
    140 O          46.4800  118.5745   39.2027 O.2       2 ALA2        0.0000 
    141 DU         48.9996  116.5019   38.4242 H         7 CUB7        0.0000 
    142 CA         47.6245  117.0713   38.2379 C.3       6 GLY6        0.0000 
    143 NZ         51.8988  123.3101   49.9130 N.2       4 LYS4        0.0000 
    144 NZ         50.5236  123.8795   49.7267 N.2       4 LYS4        0.0000 
    145 NZ         49.1485  124.4489   49.5405 N.2       4 LYS4        0.0000 
    146 CZ         47.7733  125.0183   49.3543 C.ar      5 PHE5        0.0000 
    147 N          51.6681  122.3763   48.7620 N.2       2 ALA2        0.0000 
    148 NZ         50.2929  122.9457   48.5758 N.2       4 LYS4        0.0000 
    149 DU         48.9177  123.5151   48.3895 H         7 CUB7        0.0000 
    150 CZ         47.5425  124.0845   48.2033 C.ar      5 PHE5        0.0000 
    151 N          51.4373  121.4425   47.6110 N.2       2 ALA2        0.0000 
    152 DU         50.0621  122.0119   47.4248 H         7 CUB7        0.0000 
    153 DU         48.6869  122.5813   47.2385 H         7 CUB7        0.0000 
    154 CZ         47.3118  123.1507   47.0523 C.ar      5 PHE5        0.0000 
    155 O          51.2065  120.5087   46.4600 O.2       2 ALA2        0.0000 
    156 O          49.8314  121.0781   46.2738 O.2       2 ALA2        0.0000 
    157 DU         48.4562  121.6475   46.0875 H         7 CUB7        0.0000 
    158 CZ         47.0810  122.2169   45.9013 C.ar      5 PHE5        0.0000 
    159 O          49.6006  120.1443   45.1228 O.2       2 ALA2        0.0000 
    160 CZ         48.2254  120.7137   44.9366 C.ar      5 PHE5        0.0000 
    161 O          49.3698  119.2105   43.9718 O.2       2 ALA2        0.0000 
    162 O          47.9947  119.7799   43.7856 O.2       2 ALA2        0.0000 
    163 CZ         46.6195  120.3493   43.5993 C.ar      5 PHE5        0.0000 
    164 O          50.5142  117.7073   43.0071 O.2       2 ALA2        0.0000 
    165 O          49.1391  118.2767   42.8208 O.2       2 ALA2        0.0000 
    166 O          51.6587  116.2042   42.0423 O.2       2 ALA2        0.0000 
    167 DU         50.2835  116.7735   41.8561 H         7 CUB7        0.0000 
    168 O          48.9083  117.3429   41.6698 O.2       2 ALA2        0.0000 
    169 CA         52.8031  114.7010   41.0776 C.3       6 GLY6        0.0000 
    170 CA         51.4279  115.2704   40.8913 C.3       6 GLY6        0.0000 
    171 DU         50.0527  115.8398   40.7051 H         7 CUB7        0.0000 
    172 OG         48.6775  116.4091   40.5188 O.2       1 SER1        0.0000 
    173 O          47.3024  116.9785   40.3326 O.2       2 ALA2        0.0000 
    174 CA         49.8220  114.9060   39.5541 C.3       6 GLY6        0.0000 
    175 OG         48.4468  115.4753   39.3679 O.2       1 SER1        0.0000 
    176 CA         47.0716  116.0447   39.1816 C.3       6 GLY6        0.0000 
    177 NZ         48.5956  123.4223   50.4842 N.2       4 LYS4        0.0000 
    178 CZ         47.2204  123.9917   50.2980 C.ar      5 PHE5        0.0000 
    179 N          52.4904  120.7804   49.8919 N.2       2 ALA2        0.0000 
    180 NZ         51.1152  121.3498   49.7057 N.2       4 LYS4        0.0000 
    181 NZ         49.7400  121.9192   49.5194 N.2       4 LYS4        0.0000 
    182 NZ         48.3649  122.4886   49.3332 N.2       4 LYS4        0.0000 
    183 DU         46.9897  123.0579   49.1470 H         7 CUB7        0.0000 
    184 CZ         45.6145  123.6273   48.9607 C.ar      5 PHE5        0.0000 
    185 N          50.8844  120.4160   48.5547 N.2       2 ALA2        0.0000 
    186 DU         49.5093  120.9854   48.3685 H         7 CUB7        0.0000 
    187 DU         48.1341  121.5548   48.1822 H         7 CUB7        0.0000 
    188 CZ         46.7589  122.1241   47.9960 C.ar      5 PHE5        0.0000 
    189 CZ         45.3837  122.6935   47.8097 C.ar      5 PHE5        0.0000 
@<TRIPOS>BOND
@<TRIPOS>SUBSTRUCTURE
     1 SER1       10 GROUP   
     2 ALA2        5 GROUP   
     3 ASP3        1 GROUP   
     4 LYS4       16 GROUP   
     5 PHE5        4 GROUP   
     6 GLY6       13 GROUP   
     7 CUB7        2 GROUP   
@<TRIPOS>SET

