#    Name: 2wxd_E18_1_INTS_M
#    Modification time : Tue Mar 25 04:47:22 2014

@<TRIPOS>MOLECULE
2wxd_E18_1_INTS_M
   49     0    15     0     0
SMALL
NO_CHARGES


@<TRIPOS>ATOM
      1 N          48.5060  115.0780   48.0385 N.am      2 SEC2        0.0000 
      2 N          48.4250  115.6210   46.7350 N.am     12 SEL2        0.0000 
      3 N          48.5870  114.5350   49.3420 N.am      7 SEP2        0.0000 
      4 NZ         46.3380  117.3480   44.8595 N.4       4 LYC4        0.0000 
      5 NZ         46.5110  116.9750   46.1670 N.4      14 LYL4        0.0000 
      6 NZ         44.9830  117.7670   42.9140 N.4       9 LYP4        0.0000 
      7 N          46.3380  117.3480   44.8595 N.am      2 SEC2        0.0000 
      8 N          46.5110  116.9750   46.1670 N.am     12 SEL2        0.0000 
      9 N          46.1650  117.7210   43.5520 N.am      7 SEP2        0.0000 
     10 N          47.4130  117.0290   49.5300 N.am      2 SEC2        0.0000 
     11 N          47.7430  117.6640   48.1600 N.am     12 SEL2        0.0000 
     12 N          47.0830  116.3940   50.9000 N.am      7 SEP2        0.0000 
     13 N          48.1650  116.0995   48.7510 N.am      2 SEC2        0.0000 
     14 CA         45.8780  121.7705   52.3950 C.3       5 GLC5        0.0000 
     15 CA         47.7810  121.2840   52.1280 C.3      15 GLL5        0.0000 
     16 CA         43.9750  122.2570   52.6620 C.3      10 GLP5        0.0000 
     17 OD1        49.6710  123.1405   53.7445 O.co2     3 ASC3        0.0000 
     18 OD1        48.4010  122.2200   53.1180 O.co2    13 ASL3        0.0000 
     19 OD1        50.9410  124.0610   54.3710 O.co2     8 ASP3        0.0000 
     20 OD1        49.5970  122.8095   52.6545 O.co2     3 ASC3        0.0000 
     21 OD1        50.7930  123.3990   52.1910 O.co2     8 ASP3        0.0000 
     22 O          49.6710  123.1405   53.7445 O.2       1 ALC1        0.0000 
     23 O          48.4010  122.2200   53.1180 O.2      11 ALL1        0.0000 
     24 O          50.9410  124.0610   54.3710 O.2       6 ALP1        0.0000 
     25 O          49.5970  122.8095   52.6545 O.2       1 ALC1        0.0000 
     26 O          50.7930  123.3990   52.1910 O.2       6 ALP1        0.0000 
     27 CA         47.9670  122.5945   55.9555 C.3       5 GLC5        0.0000 
     28 CA         48.3140  121.7680   54.5400 C.3      15 GLL5        0.0000 
     29 CA         47.6200  123.4210   57.3710 C.3      10 GLP5        0.0000 
     30 CA         45.7990  122.8665   52.8430 C.3       5 GLC5        0.0000 
     31 CA         47.6230  123.4760   53.0240 C.3      15 GLL5        0.0000 
     32 CA         46.9825  124.1440   54.6125 C.3       5 GLC5        0.0000 
     33 CA         46.3420  124.8120   56.2010 C.3      10 GLP5        0.0000 
     34 CA         47.6710  125.1465   52.3960 C.3       5 GLC5        0.0000 
     35 CA         47.7190  126.8170   51.7680 C.3      10 GLP5        0.0000 
     36 CA         44.6860  119.1770   49.1750 C.3       5 GLC5        0.0000 
     37 CA         46.0100  120.7230   48.9760 C.3      15 GLL5        0.0000 
     38 CA         43.3620  117.6310   49.3740 C.3      10 GLP5        0.0000 
     39 CA         44.6000  121.0225   49.7800 C.3       5 GLC5        0.0000 
     40 CA         43.1900  121.3220   50.5840 C.3      10 GLP5        0.0000 
     41 CA         49.7465  118.0575   51.6108 C.3       5 GLC5        0.0000 
     42 CA         48.3910  119.3700   50.1930 C.3      15 GLL5        0.0000 
     43 CA         51.1510  116.5000   52.1530 C.3      10 GLP5        0.0000 
     44 CA         44.3795  122.7070   48.7502 C.3       5 GLC5        0.0000 
     45 CA         46.5720  121.9730   48.3900 C.3      15 GLL5        0.0000 
     46 CA         42.2450  122.8240   48.8050 C.3      10 GLP5        0.0000 
     47 CA         47.7050  124.5827   45.3027 C.3       5 GLC5        0.0000 
     48 CA         47.9140  124.1810   47.4230 C.3      15 GLL5        0.0000 
     49 CA         47.4220  125.5940   43.4800 C.3      10 GLP5        0.0000 
@<TRIPOS>BOND
@<TRIPOS>SUBSTRUCTURE
     1 ALC1       22 GROUP        1 X    ALC  0     ROOT ALC X 1
     2 SEC2        1 GROUP        1 X    SEC  0     **** SEC X 2
     3 ASC3       17 GROUP        1 X    ASC  0     **** ASC X 3
     4 LYC4        4 GROUP        1 X    LYC  0     **** LYC X 4
     5 GLC5       14 GROUP        1 X    GLC  0     **** GLC X 6
     6 ALP1       24 GROUP        1 Y    ALP  0     ROOT ALP Y 8
     7 SEP2        3 GROUP        1 Y    SEP  0     **** SEP Y 9
     8 ASP3       19 GROUP        1 Y    ASP  0     **** ASP Y 10
     9 LYP4        6 GROUP        1 Y    LYP  0     **** LYP Y 11
    10 GLP5       16 GROUP        1 Y    GLP  0     **** GLP Y 13
    11 ALL1       23 GROUP        1 Z    ALL  0     ROOT ALL Z 15
    12 SEL2        2 GROUP        1 Z    SEL  0     **** SEL Z 16
    13 ASL3       18 GROUP        1 Z    ASL  0     **** ASL Z 17
    14 LYL4        5 GROUP        1 Z    LYL  0     **** LYL Z 18
    15 GLL5       15 GROUP        1 Z    GLL  0     **** GLL Z 20
@<TRIPOS>SET

