#    Name: 2wxd_E18_1_ligand
#    Modification time : Tue Mar 25 04:47:22 2014

@<TRIPOS>MOLECULE
2wxd_E18_1_ligand
   38    38     1     0     0
SMALL
NO_CHARGES


@<TRIPOS>ATOM
      1 O20        48.4250  115.6210   46.7350 O.co2     1 E181501     0.0000 
      2 S19        47.9040  116.9280   46.7210 S.o2      1 E181501     0.0000 
      3 O21        46.5110  116.9750   46.1670 O.co2     1 E181501     0.0000 
      4 O22        48.7180  117.9040   45.9910 O.co2     1 E181501     0.0000 
      5 O18        47.7430  117.6640   48.1600 O.3       1 E181501     0.0000 
      6 N17        46.8930  118.7250   48.2070 N.2       1 E181501     0.0000 
      7 C13        47.0640  119.6010   49.1030 C.2       1 E181501     0.0000 
      8 S1         48.3910  119.3700   50.1930 S.3       1 E181501     0.0000 
      9 C1         48.2930  119.8600   51.9440 C.3       1 E181501     0.0000 
     10 C2         47.7810  121.2840   52.1280 C.3       1 E181501     0.0000 
     11 N18        48.4010  122.2200   53.1180 N.4       1 E181501     0.0000 
     12 C20        48.3140  121.7680   54.5400 C.3       1 E181501     0.0000 
     13 C19        47.6230  123.4760   53.0240 C.3       1 E181501     0.0000 
     14 CB         46.0100  120.7230   48.9760 C.3       1 E181501     0.0000 
     15 CG         46.5720  121.9730   48.3900 C.ar      1 E181501     0.0000 
     16 CD2        46.4560  123.2070   49.0010 C.ar      1 E181501     0.0000 
     17 CE2        47.1160  124.3010   48.5570 C.ar      1 E181501     0.0000 
     18 CZ         47.9140  124.1810   47.4230 C.ar      1 E181501     0.0000 
     19 CE1        48.0620  122.9620   46.8280 C.ar      1 E181501     0.0000 
     20 CD1        47.4340  121.8210   47.3120 C.ar      1 E181501     0.0000 
     21 H          49.3040  119.7192   52.2741 H         1 E181501     0.0000 
     22 H          47.6413  119.1114   52.3511 H         1 E181501     0.0000 
     23 H          46.6620  121.2188   52.3449 H         1 E181501     0.0000 
     24 H          47.7910  121.7853   51.1022 H         1 E181501     0.0000 
     25 H          49.4123  122.4246   52.8501 H         1 E181501     0.0000 
     26 H          45.6022  120.9225   49.9766 H         1 E181501     0.0000 
     27 H          45.1864  120.3481   48.3527 H         1 E181501     0.0000 
     28 H          45.8277  123.2858   49.8423 H         1 E181501     0.0000 
     29 H          47.0421  125.2057   49.0318 H         1 E181501     0.0000 
     30 H          48.3850  125.0151   47.0445 H         1 E181501     0.0000 
     31 H          48.6673  122.8723   45.9770 H         1 E181501     0.0000 
     32 H          47.5987  120.9148   46.8949 H         1 E181501     0.0000 
     33 H          48.7689  120.8883   54.6786 H         1 E181501     0.0000 
     34 H          48.7426  122.4212   55.1642 H         1 E181501     0.0000 
     35 H          47.3656  121.6575   54.8372 H         1 E181501     0.0000 
     36 H          47.9663  124.1735   53.6531 H         1 E181501     0.0000 
     37 H          47.6591  123.8673   52.1045 H         1 E181501     0.0000 
     38 H          46.6581  123.3325   53.2437 H         1 E181501     0.0000 
@<TRIPOS>BOND
     1    2    1 ar   
     2    3    2 ar   
     3    4    2 ar   
     4    5    2 1    
     5    6    5 1    
     6    7    6 2    
     7    8    7 1    
     8   14    7 1    
     9    9    8 1    
    10   10    9 1    
    11   21    9 1    
    12   22    9 1    
    13   11   10 1    
    14   23   10 1    
    15   24   10 1    
    16   12   11 1    
    17   13   11 1    
    18   25   11 1    
    19   33   12 1    
    20   34   12 1    
    21   35   12 1    
    22   36   13 1    
    23   37   13 1    
    24   38   13 1    
    25   15   14 1    
    26   26   14 1    
    27   27   14 1    
    28   16   15 ar   
    29   20   15 ar   
    30   17   16 ar   
    31   28   16 1    
    32   18   17 ar   
    33   29   17 1    
    34   19   18 ar   
    35   30   18 1    
    36   20   19 ar   
    37   31   19 1    
    38   32   20 1    
@<TRIPOS>SUBSTRUCTURE
     1 E181501     1 GROUP   
@<TRIPOS>SET

