#    Name: 3o9c_K20_1_INTS_M
#    Modification time : Tue Mar 25 03:24:32 2014

@<TRIPOS>MOLECULE
3o9c_K20_1_INTS_M
   98     0     9     0     0
SMALL
NO_CHARGES


@<TRIPOS>ATOM
      1 CA         15.9970   36.2495   20.4505 C.3       3 GLC5        0.0000 
      2 CA         15.6860   36.7420   18.4310 C.3       9 GLL5        0.0000 
      3 CA         16.3080   35.7570   22.4700 C.3       6 GLP5        0.0000 
      4 CA         13.9540   36.0245   19.3820 C.3       3 GLC5        0.0000 
      5 CA         12.2220   35.3070   20.3330 C.3       6 GLP5        0.0000 
      6 CA         14.4375   37.6560   17.1320 C.3       3 GLC5        0.0000 
      7 CA         13.1890   38.5700   15.8330 C.3       6 GLP5        0.0000 
      8 N          14.5145   34.7740   20.0140 N.am      2 SEC2        0.0000 
      9 N          15.0120   35.4700   18.5970 N.am      8 SEL2        0.0000 
     10 N          14.0170   34.0780   21.4310 N.am      5 SEP2        0.0000 
     11 CA         16.3710   33.0195   18.9805 C.3       3 GLC5        0.0000 
     12 CA         15.6050   34.5810   17.7220 C.3       9 GLL5        0.0000 
     13 CA         17.1370   31.4580   20.2390 C.3       6 GLP5        0.0000 
     14 CA         13.9135   34.9440   19.0275 C.3       3 GLC5        0.0000 
     15 CA         15.4005   36.6280   15.9200 C.3       3 GLC5        0.0000 
     16 CA         16.5950   35.2180   17.0020 C.3       9 GLL5        0.0000 
     17 CA         14.2060   38.0380   14.8380 C.3       6 GLP5        0.0000 
     18 CA         15.3040   30.8610   15.5055 C.3       3 GLC5        0.0000 
     19 CA         16.1140   32.5460   16.5500 C.3       9 GLL5        0.0000 
     20 CA         14.4940   29.1760   14.4610 C.3       6 GLP5        0.0000 
     21 CA         23.9750   30.9550   14.9945 C.3       3 GLC5        0.0000 
     22 CA         22.3340   32.4190   15.0120 C.3       9 GLL5        0.0000 
     23 CA         25.6160   29.4910   14.9770 C.3       6 GLP5        0.0000 
     24 CA         22.9390   32.7490   19.0720 C.3       3 GLC5        0.0000 
     25 CA         22.2570   33.4460   17.3190 C.3       9 GLL5        0.0000 
     26 CA         23.6210   32.0520   20.8250 C.3       6 GLP5        0.0000 
     27 CA         24.0710   32.3495   17.3870 C.3       3 GLC5        0.0000 
     28 CA         25.8850   31.2530   17.4550 C.3       6 GLP5        0.0000 
     29 CA         22.9105   35.7445   15.3180 C.3       3 GLC5        0.0000 
     30 CA         22.0590   34.8880   16.9170 C.3       9 GLL5        0.0000 
     31 CA         23.7620   36.6010   13.7190 C.3       6 GLP5        0.0000 
     32 N          19.4130   27.7860   17.9200 N.am      2 SEC2        0.0000 
     33 N          19.9420   28.2620   16.6590 N.am      8 SEL2        0.0000 
     34 N          18.8840   27.3100   19.1810 N.am      5 SEP2        0.0000 
     35 O          20.7600   27.9105   17.5550 O.2       1 ALC1        0.0000 
     36 O          19.9420   28.2620   16.6590 O.2       7 ALL1        0.0000 
     37 O          21.5780   27.5590   18.4510 O.2       4 ALP1        0.0000 
     38 O          21.4520   28.6200   17.0810 O.2       1 ALC1        0.0000 
     39 O          22.9620   28.9780   17.5030 O.2       4 ALP1        0.0000 
     40 O          20.3870   26.6325   14.3380 O.2       1 ALC1        0.0000 
     41 O          20.6490   28.0800   13.8710 O.2       7 ALL1        0.0000 
     42 O          20.1250   25.1850   14.8050 O.2       4 ALP1        0.0000 
     43 CA         26.1865   25.5420   11.7190 C.3       3 GLC5        0.0000 
     44 CA         24.5770   26.9610   11.9210 C.3       9 GLL5        0.0000 
     45 CA         27.7960   24.1230   11.5170 C.3       6 GLP5        0.0000 
     46 CA         26.4370   27.7590   11.9535 C.3       3 GLC5        0.0000 
     47 CA         28.2970   28.5570   11.9860 C.3       6 GLP5        0.0000 
     48 CA         25.0965   28.2260   13.4490 C.3       3 GLC5        0.0000 
     49 N          25.2090   24.4330   12.4730 N.am      2 SEC2        0.0000 
     50 N          24.3060   25.5610   11.8970 N.am      8 SEL2        0.0000 
     51 N          26.1120   23.3050   13.0490 N.am      5 SEP2        0.0000 
     52 CA         23.1765   25.1805   12.9825 C.3       3 GLC5        0.0000 
     53 CA         23.4600   25.2900   10.7860 C.3       9 GLL5        0.0000 
     54 CA         22.8930   25.0710   15.1790 C.3       6 GLP5        0.0000 
     55 CA         23.6730   23.4340   11.3370 C.3       3 GLC5        0.0000 
     56 CA         23.8860   21.5780   11.8880 C.3       6 GLP5        0.0000 
     57 N          22.9795   23.7565   12.4570 N.am      2 SEC2        0.0000 
     58 N          22.4810   24.3360   11.1700 N.am      8 SEL2        0.0000 
     59 N          23.4780   23.1770   13.7440 N.am      5 SEP2        0.0000 
     60 CA         22.0475   25.0195   13.2145 C.3       3 GLC5        0.0000 
     61 CA         21.2020   24.9680   11.2500 C.3       9 GLL5        0.0000 
     62 CA         22.5440   23.2730   11.5690 C.3       3 GLC5        0.0000 
     63 CA         17.1550   25.2935   13.7405 C.3       3 GLC5        0.0000 
     64 CA         18.1060   26.3830   12.4390 C.3       9 GLL5        0.0000 
     65 CA         16.2040   24.2040   15.0420 C.3       6 GLP5        0.0000 
     66 CA         18.9220   29.3360    9.6175 C.3       3 GLC5        0.0000 
     67 CA         17.4180   28.2930   10.5560 C.3       9 GLL5        0.0000 
     68 CA         20.4260   30.3790    8.6790 C.3       6 GLP5        0.0000 
     69 CA         17.2920   30.2025   10.0065 C.3       3 GLC5        0.0000 
     70 CA         17.1660   32.1120    9.4570 C.3       6 GLP5        0.0000 
     71 CA         17.1655   30.6450   11.3510 C.3       3 GLC5        0.0000 
     72 CA         17.6510   28.6580   11.8820 C.3       9 GLL5        0.0000 
     73 CA         16.6800   32.6320   10.8200 C.3       6 GLP5        0.0000 
     74 CA         14.3018   34.8180   16.0680 C.3       3 GLC5        0.0000 
     75 CA         15.3500   33.2310   17.5120 C.3       9 GLL5        0.0000 
     76 CA         13.1260   35.7300   14.5190 C.3       6 GLP5        0.0000 
     77 CA         15.6130   32.7890   14.2713 C.3       3 GLC5        0.0000 
     78 CA         14.6080   32.7180   12.3640 C.3       6 GLP5        0.0000 
     79 CA         15.8765   31.7518   18.3165 C.3       3 GLC5        0.0000 
     80 CA         16.0210   30.6150   19.6020 C.3       6 GLP5        0.0000 
     81 CA         13.8479   33.1115   16.5772 C.3       3 GLC5        0.0000 
     82 CA         11.9000   32.9970   16.0710 C.3       6 GLP5        0.0000 
     83 CA         23.8750   34.4685   17.6595 C.3       3 GLC5        0.0000 
     84 CA         25.5920   34.7700   18.2010 C.3       6 GLP5        0.0000 
     85 CA         23.9307   26.6865   13.6530 C.3       3 GLC5        0.0000 
     86 CA         23.2520   27.5490   11.5030 C.3       9 GLL5        0.0000 
     87 CA         23.9470   26.1180   15.5940 C.3       6 GLP5        0.0000 
     88 CA         24.4992   29.1585   11.5455 C.3       3 GLC5        0.0000 
     89 CA         25.0840   31.0620   11.3790 C.3       6 GLP5        0.0000 
     90 CA         16.1495   26.1755   11.8382 C.3       3 GLC5        0.0000 
     91 CA         14.3100   26.1510   11.8970 C.3       6 GLP5        0.0000 
     92 CA         16.1020   27.8830    9.1330 C.3       3 GLC5        0.0000 
     93 CA         17.5120   26.9650   10.1800 C.3       9 GLL5        0.0000 
     94 CA         14.7390   28.1370    7.8980 C.3       6 GLP5        0.0000 
     95 CA         15.8875   26.8900   11.1325 C.3       3 GLC5        0.0000 
     96 CA         16.0678   27.1685   12.1280 C.3       3 GLC5        0.0000 
     97 CA         16.1937   28.7329   13.5895 C.3       3 GLC5        0.0000 
     98 CA         18.0000   27.7140   12.8360 C.3       9 GLL5        0.0000 
@<TRIPOS>BOND
@<TRIPOS>SUBSTRUCTURE
     1 ALC1       35 GROUP        1 X    ALC  0     ROOT ALC X 1
     2 SEC2        8 GROUP        1 X    SEC  0     **** SEC X 2
     3 GLC5        1 GROUP        1 X    GLC  0     **** GLC X 6
     4 ALP1       37 GROUP        1 Y    ALP  0     ROOT ALP Y 8
     5 SEP2       10 GROUP        1 Y    SEP  0     **** SEP Y 9
     6 GLP5        3 GROUP        1 Y    GLP  0     **** GLP Y 13
     7 ALL1       36 GROUP        1 Z    ALL  0     ROOT ALL Z 15
     8 SEL2        9 GROUP        1 Z    SEL  0     **** SEL Z 16
     9 GLL5        2 GROUP        1 Z    GLL  0     **** GLL Z 20
@<TRIPOS>SET

