#    Name: 3o9c_K20_1_ligand
#    Modification time : Tue Mar 25 03:24:32 2014

@<TRIPOS>MOLECULE
3o9c_K20_1_ligand
   79    83     1     0     0
SMALL
NO_CHARGES


@<TRIPOS>ATOM
      1 C1         15.6860   36.7420   18.4310 C.3       1 K20200      0.0000 
      2 O1         15.0120   35.4700   18.5970 O.3       1 K20200      0.0000 
      3 C2         15.6050   34.5810   17.7220 C.ar      1 K20200      0.0000 
      4 O2         16.6340   36.5460   17.3740 O.3       1 K20200      0.0000 
      5 C3         16.5950   35.2180   17.0020 C.ar      1 K20200      0.0000 
      6 C4         17.3370   34.5430   16.0350 C.ar      1 K20200      0.0000 
      7 C5         17.1220   33.1740   15.8070 C.ar      1 K20200      0.0000 
      8 C6         16.1140   32.5460   16.5500 C.ar      1 K20200      0.0000 
      9 C7         15.3500   33.2310   17.5120 C.ar      1 K20200      0.0000 
     10 S8         18.0290   32.3410   14.7480 S.o2      1 K20200      0.0000 
     11 O9         17.3140   31.2170   14.2430 O.2       1 K20200      0.0000 
     12 O10        18.5200   33.2070   13.6830 O.2       1 K20200      0.0000 
     13 N11        19.3370   31.7340   15.4920 N.pl3     1 K20200      0.0000 
     14 C12        20.1080   32.7450   16.2580 C.3       1 K20200      0.0000 
     15 C13        21.6060   32.4410   16.3620 C.3       1 K20200      0.0000 
     16 C14        22.3340   32.4190   15.0120 C.3       1 K20200      0.0000 
     17 C15        22.2570   33.4460   17.3190 C.3       1 K20200      0.0000 
     18 C16        19.0540   30.5120   16.2740 C.3       1 K20200      0.0000 
     19 C17        19.9560   29.3810   15.7650 C.3       1 K20200      0.0000 
     20 C18        22.0590   34.8880   16.9170 C.3       1 K20200      0.0000 
     21 O18        19.9420   28.2620   16.6590 O.3       1 K20200      0.0000 
     22 C19        19.5790   28.9150   14.3640 C.3       1 K20200      0.0000 
     23 N20        20.6490   28.0800   13.8710 N.am      1 K20200      0.0000 
     24 C21        21.4910   28.4340   12.9130 C.2       1 K20200      0.0000 
     25 O22        21.5540   29.4800   12.2750 O.2       1 K20200      0.0000 
     26 O23        22.4540   27.4050   12.6720 O.3       1 K20200      0.0000 
     27 C24        23.2520   27.5490   11.5030 C.3       1 K20200      0.0000 
     28 C25        24.5770   26.9610   11.9210 C.3       1 K20200      0.0000 
     29 O26        24.3060   25.5610   11.8970 O.3       1 K20200      0.0000 
     30 C27        23.4600   25.2900   10.7860 C.3       1 K20200      0.0000 
     31 O28        22.4810   24.3360   11.1700 O.3       1 K20200      0.0000 
     32 C29        21.2020   24.9680   11.2500 C.3       1 K20200      0.0000 
     33 C30        21.3050   26.2320   10.3990 C.3       1 K20200      0.0000 
     34 C31        22.7810   26.5960   10.4180 C.3       1 K20200      0.0000 
     35 C32        18.2720   28.1290   14.2720 C.3       1 K20200      0.0000 
     36 C33        18.1060   26.3830   12.4390 C.ar      1 K20200      0.0000 
     37 C34        17.8720   26.0170   11.1200 C.ar      1 K20200      0.0000 
     38 C35        17.5120   26.9650   10.1800 C.ar      1 K20200      0.0000 
     39 C36        17.4180   28.2930   10.5560 C.ar      1 K20200      0.0000 
     40 C37        17.6510   28.6580   11.8820 C.ar      1 K20200      0.0000 
     41 C38        18.0000   27.7140   12.8360 C.ar      1 K20200      0.0000 
     42 H          16.1887   37.0234   19.3539 H         1 K20200      0.0000 
     43 H          14.9678   37.5155   18.1676 H         1 K20200      0.0000 
     44 H          18.0448   35.0439   15.4844 H         1 K20200      0.0000 
     45 H          15.9217   31.5364   16.3861 H         1 K20200      0.0000 
     46 H          14.6307   32.7436   18.0368 H         1 K20200      0.0000 
     47 H          19.7026   32.8319   17.2847 H         1 K20200      0.0000 
     48 H          19.9910   33.7427   15.7923 H         1 K20200      0.0000 
     49 H          21.7131   31.4475   16.8238 H         1 K20200      0.0000 
     50 H          23.3366   33.2261   17.3770 H         1 K20200      0.0000 
     51 H          21.8434   33.2866   18.3293 H         1 K20200      0.0000 
     52 H          18.0191   30.2087   16.1527 H         1 K20200      0.0000 
     53 H          19.2627   30.6721   17.3268 H         1 K20200      0.0000 
     54 H          20.9815   29.7863   15.7036 H         1 K20200      0.0000 
     55 H          19.4942   29.7943   13.7234 H         1 K20200      0.0000 
     56 H          20.7251   27.1292   14.3385 H         1 K20200      0.0000 
     57 H          23.3732   28.4920   11.1603 H         1 K20200      0.0000 
     58 H          24.8148   27.3101   12.9027 H         1 K20200      0.0000 
     59 H          25.3197   27.2414   11.2055 H         1 K20200      0.0000 
     60 H          24.0269   24.9620    9.9429 H         1 K20200      0.0000 
     61 H          20.9554   25.2621   12.2603 H         1 K20200      0.0000 
     62 H          20.4158   24.3499   10.8402 H         1 K20200      0.0000 
     63 H          20.7329   27.0120   10.8454 H         1 K20200      0.0000 
     64 H          20.9964   26.0186    9.4019 H         1 K20200      0.0000 
     65 H          23.1234   26.8817    9.4741 H         1 K20200      0.0000 
     66 H          17.4548   28.7517   14.6312 H         1 K20200      0.0000 
     67 H          18.3436   27.2423   14.8990 H         1 K20200      0.0000 
     68 H          18.3612   25.6628   13.1338 H         1 K20200      0.0000 
     69 H          17.9685   25.0260   10.8409 H         1 K20200      0.0000 
     70 H          17.3161   26.6861    9.2115 H         1 K20200      0.0000 
     71 H          17.1772   29.0134    9.8634 H         1 K20200      0.0000 
     72 H          17.5607   29.6537   12.1557 H         1 K20200      0.0000 
     73 H          23.3080   32.2188   15.1185 H         1 K20200      0.0000 
     74 H          21.9575   31.7250   14.3983 H         1 K20200      0.0000 
     75 H          22.2653   33.2972   14.5387 H         1 K20200      0.0000 
     76 H          22.4914   35.5165   17.5635 H         1 K20200      0.0000 
     77 H          22.4493   35.0795   16.0165 H         1 K20200      0.0000 
     78 H          21.0902   35.1320   16.8744 H         1 K20200      0.0000 
     79 H          20.8590   28.2375   17.0572 H         1 K20200      0.0000 
@<TRIPOS>BOND
     1    2    1 1    
     2    4    1 1    
     3   42    1 1    
     4   43    1 1    
     5    3    2 1    
     6    5    3 ar   
     7    9    3 ar   
     8    5    4 1    
     9    6    5 ar   
    10    7    6 ar   
    11   44    6 1    
    12    8    7 ar   
    13   10    7 1    
    14    9    8 ar   
    15   45    8 1    
    16   46    9 1    
    17   11   10 2    
    18   12   10 2    
    19   13   10 1    
    20   14   13 1    
    21   18   13 1    
    22   15   14 1    
    23   47   14 1    
    24   48   14 1    
    25   16   15 1    
    26   17   15 1    
    27   49   15 1    
    28   73   16 1    
    29   74   16 1    
    30   75   16 1    
    31   20   17 1    
    32   50   17 1    
    33   51   17 1    
    34   19   18 1    
    35   52   18 1    
    36   53   18 1    
    37   21   19 1    
    38   22   19 1    
    39   54   19 1    
    40   76   20 1    
    41   77   20 1    
    42   78   20 1    
    43   79   21 1    
    44   23   22 1    
    45   35   22 1    
    46   55   22 1    
    47   24   23 am   
    48   56   23 1    
    49   25   24 2    
    50   26   24 1    
    51   27   26 1    
    52   28   27 1    
    53   34   27 1    
    54   57   27 1    
    55   29   28 1    
    56   58   28 1    
    57   59   28 1    
    58   30   29 1    
    59   31   30 1    
    60   34   30 1    
    61   60   30 1    
    62   32   31 1    
    63   33   32 1    
    64   61   32 1    
    65   62   32 1    
    66   34   33 1    
    67   63   33 1    
    68   64   33 1    
    69   65   34 1    
    70   41   35 1    
    71   66   35 1    
    72   67   35 1    
    73   37   36 ar   
    74   41   36 ar   
    75   68   36 1    
    76   38   37 ar   
    77   69   37 1    
    78   39   38 ar   
    79   70   38 1    
    80   40   39 ar   
    81   71   39 1    
    82   41   40 ar   
    83   72   40 1    
@<TRIPOS>SUBSTRUCTURE
     1 K20200      1 GROUP   
@<TRIPOS>SET

