#    Name: 3zo3_QNI_1_INTS_M
#    Modification time : Tue Mar 25 03:44:52 2014

@<TRIPOS>MOLECULE
3zo3_QNI_1_INTS_M
   68     0    12     0     0
SMALL
NO_CHARGES


@<TRIPOS>ATOM
      1 O         -34.4575  -10.1740   -1.8125 O.2       1 ALC1        0.0000 
      2 O         -33.0700   -9.9420   -1.9180 O.2       9 ALL1        0.0000 
      3 O         -35.8450  -10.4060   -1.7070 O.2       5 ALP1        0.0000 
      4 CA        -34.6600  -10.6510   -3.7235 C.3       4 GLC5        0.0000 
      5 CA        -32.5980  -10.0080   -3.2000 C.3      12 GLL5        0.0000 
      6 CA        -36.7220  -11.2940   -4.2470 C.3       8 GLP5        0.0000 
      7 CA        -34.0695   -8.4300   -3.2790 C.3       4 GLC5        0.0000 
      8 CA        -35.5410   -6.8520   -3.3580 C.3       8 GLP5        0.0000 
      9 N         -34.6555   -9.5390   -4.7480 N.am      2 SEC2        0.0000 
     10 N         -33.3190   -9.9830   -4.3350 N.am     10 SEL2        0.0000 
     11 N         -35.9920   -9.0950   -5.1610 N.am      6 SEP2        0.0000 
     12 CA        -32.2215  -11.8910   -6.1255 C.3       4 GLC5        0.0000 
     13 CA        -32.5990  -10.1620   -5.4480 C.3      12 GLL5        0.0000 
     14 CA        -31.8440  -13.6200   -6.8030 C.3       8 GLP5        0.0000 
     15 CA        -32.9110  -11.7355   -4.1835 C.3       4 GLC5        0.0000 
     16 CA        -33.2230  -13.3090   -2.9190 C.3       8 GLP5        0.0000 
     17 CA        -34.6605  -10.7280   -4.8475 C.3       4 GLC5        0.0000 
     18 CA        -34.3695   -8.9410   -5.5625 C.3       4 GLC5        0.0000 
     19 CA        -36.1400   -7.7200   -5.6770 C.3       8 GLP5        0.0000 
     20 CA        -32.0860   -8.4615   -5.6510 C.3       4 GLC5        0.0000 
     21 CA        -31.5730   -6.7610   -5.8540 C.3       8 GLP5        0.0000 
     22 CA        -31.2340  -11.9810   -5.5955 C.3       4 GLC5        0.0000 
     23 CA        -30.6240  -10.3420   -4.3880 C.3      12 GLL5        0.0000 
     24 CA        -27.7510  -12.0855   -2.5915 C.3       4 GLC5        0.0000 
     25 CA        -28.2290  -10.4870   -3.3840 C.3      12 GLL5        0.0000 
     26 CA        -27.2730  -13.6840   -1.7990 C.3       8 GLP5        0.0000 
     27 CA        -24.7050  -10.4795   -4.3420 C.3       4 GLC5        0.0000 
     28 CA        -26.5470   -9.6110   -5.0130 C.3      12 GLL5        0.0000 
     29 CA        -22.8630  -11.3480   -3.6710 C.3       8 GLP5        0.0000 
     30 CA        -27.3185   -7.5690   -6.8025 C.3       4 GLC5        0.0000 
     31 CA        -27.5710   -9.7020   -6.1510 C.3      12 GLL5        0.0000 
     32 CA        -27.0660   -5.4360   -7.4540 C.3       8 GLP5        0.0000 
     33 CA        -29.0360  -12.1490   -6.7445 C.3       4 GLC5        0.0000 
     34 CA        -28.6230  -10.7550   -5.8320 C.3      12 GLL5        0.0000 
     35 CA        -29.4490  -13.5430   -7.6570 C.3       8 GLP5        0.0000 
     36 CA        -29.0405  -12.3755   -4.4435 C.3       4 GLC5        0.0000 
     37 CA        -29.4580  -13.9960   -3.0550 C.3       8 GLP5        0.0000 
     38 CA        -24.8135  -10.9095   -2.7435 C.3       4 GLC5        0.0000 
     39 CA        -26.0810   -9.5090   -2.5430 C.3      12 GLL5        0.0000 
     40 CA        -23.5460  -12.3100   -2.9440 C.3       8 GLP5        0.0000 
     41 CA        -26.6770  -11.5965   -2.1710 C.3       4 GLC5        0.0000 
     42 CA        -23.6300   -9.3595   -2.8235 C.3       4 GLC5        0.0000 
     43 CA        -25.0910   -8.3670   -2.6330 C.3      12 GLL5        0.0000 
     44 CA        -22.1690  -10.3520   -3.0140 C.3       8 GLP5        0.0000 
     45 OD1       -26.1900   -6.7205   -1.3010 O.co2     3 ASC3        0.0000 
     46 OD1       -25.7450   -7.0540   -2.4730 O.co2    11 ASL3        0.0000 
     47 OD1       -26.6350   -6.3870   -0.1290 O.co2     7 ASP3        0.0000 
     48 OD1       -25.3885   -7.3695   -0.9030 O.co2     3 ASC3        0.0000 
     49 OD1       -25.0320   -7.6850    0.6670 O.co2     7 ASP3        0.0000 
     50 CA        -26.9615   -6.1475   -5.4520 C.3       4 GLC5        0.0000 
     51 CA        -26.8570   -6.8590   -3.4500 C.3      12 GLL5        0.0000 
     52 CA        -26.4335   -5.0390   -2.7115 C.3       4 GLC5        0.0000 
     53 CA        -26.0100   -3.2190   -1.9730 C.3       8 GLP5        0.0000 
     54 CA        -29.0510   -7.2195   -1.8990 C.3       4 GLC5        0.0000 
     55 CA        -27.8430   -8.0060   -3.4990 C.3      12 GLL5        0.0000 
     56 CA        -30.2590   -6.4330   -0.2990 C.3       8 GLP5        0.0000 
     57 CA        -31.7377   -8.1917   -2.1050 C.3       4 GLC5        0.0000 
     58 CA        -31.5630   -6.2840   -1.0650 C.3       8 GLP5        0.0000 
     59 CA        -30.1917  -12.1313   -3.3970 C.3       4 GLC5        0.0000 
     60 CA        -31.2270  -10.1910   -3.0900 C.3      12 GLL5        0.0000 
     61 CA        -32.2456  -11.7649   -3.3428 C.3       4 GLC5        0.0000 
     62 CA        -31.4206   -8.4909   -4.8102 C.3       4 GLC5        0.0000 
     63 CA        -25.9910  -11.4318   -6.3205 C.3       4 GLC5        0.0000 
     64 CA        -24.9230  -13.2070   -7.0590 C.3       8 GLP5        0.0000 
     65 CA        -29.2305   -9.6268   -7.2828 C.3       4 GLC5        0.0000 
     66 CA        -30.3640   -9.0250   -8.5740 C.3       8 GLP5        0.0000 
     67 CA        -28.5630   -6.3938   -4.3513 C.3       4 GLC5        0.0000 
     68 CA        -29.7760   -5.3550   -5.2280 C.3       8 GLP5        0.0000 
@<TRIPOS>BOND
@<TRIPOS>SUBSTRUCTURE
     1 ALC1        1 GROUP        1 X    ALC  0     ROOT ALC X 1
     2 SEC2        9 GROUP        1 X    SEC  0     **** SEC X 2
     3 ASC3       45 GROUP        1 X    ASC  0     **** ASC X 3
     4 GLC5        4 GROUP        1 X    GLC  0     **** GLC X 6
     5 ALP1        3 GROUP        1 Y    ALP  0     ROOT ALP Y 8
     6 SEP2       11 GROUP        1 Y    SEP  0     **** SEP Y 9
     7 ASP3       47 GROUP        1 Y    ASP  0     **** ASP Y 10
     8 GLP5        6 GROUP        1 Y    GLP  0     **** GLP Y 13
     9 ALL1        2 GROUP        1 Z    ALL  0     ROOT ALL Z 15
    10 SEL2       10 GROUP        1 Z    SEL  0     **** SEL Z 16
    11 ASL3       46 GROUP        1 Z    ASL  0     **** ASL Z 17
    12 GLL5        5 GROUP        1 Z    GLL  0     **** GLL Z 20
@<TRIPOS>SET

