#    Name: 3zo3_QNI_1_ligand
#    Modification time : Tue Mar 25 03:44:52 2014

@<TRIPOS>MOLECULE
3zo3_QNI_1_ligand
   39    42     1     0     0
SMALL
NO_CHARGES


@<TRIPOS>ATOM
      1 C12       -31.9910  -10.0900   -1.1100 C.2       1 QNI1351     0.0000 
      2 N3        -30.8560  -10.2460   -1.7590 N.2       1 QNI1351     0.0000 
      3 N4        -33.0700   -9.9420   -1.9180 N.pl3     1 QNI1351     0.0000 
      4 C13       -32.5980  -10.0080   -3.2000 C.ar      1 QNI1351     0.0000 
      5 N5        -33.3190   -9.9830   -4.3350 N.ar      1 QNI1351     0.0000 
      6 C         -32.5990  -10.1620   -5.4480 C.ar      1 QNI1351     0.0000 
      7 C11       -31.2270  -10.1910   -3.0900 C.ar      1 QNI1351     0.0000 
      8 C1        -30.6240  -10.3420   -4.3880 C.ar      1 QNI1351     0.0000 
      9 N         -31.2790  -10.3380   -5.5720 N.ar      1 QNI1351     0.0000 
     10 N1        -29.2430  -10.5390   -4.5210 N.3       1 QNI1351     0.0000 
     11 C10       -28.2290  -10.4870   -3.3840 C.3       1 QNI1351     0.0000 
     12 C5        -27.1800   -9.3940   -3.6170 C.3       1 QNI1351     0.0000 
     13 C4        -26.5470   -9.6110   -5.0130 C.3       1 QNI1351     0.0000 
     14 C3        -27.5710   -9.7020   -6.1510 C.3       1 QNI1351     0.0000 
     15 C2        -28.6230  -10.7550   -5.8320 C.3       1 QNI1351     0.0000 
     16 C9        -26.0810   -9.5090   -2.5430 C.3       1 QNI1351     0.0000 
     17 C8        -25.0910   -8.3670   -2.6330 C.3       1 QNI1351     0.0000 
     18 N2        -25.7450   -7.0540   -2.4730 N.4       1 QNI1351     0.0000 
     19 C7        -26.8570   -6.8590   -3.4500 C.3       1 QNI1351     0.0000 
     20 C6        -27.8430   -8.0060   -3.4990 C.3       1 QNI1351     0.0000 
     21 H         -32.0719  -10.0787   -0.1073 H         1 QNI1351     0.0000 
     22 H         -33.9707   -9.8178   -1.6549 H         1 QNI1351     0.0000 
     23 H         -33.1729  -10.1648   -6.3937 H         1 QNI1351     0.0000 
     24 H         -27.7255  -11.4520   -3.3039 H         1 QNI1351     0.0000 
     25 H         -28.7482  -10.2873   -2.4451 H         1 QNI1351     0.0000 
     26 H         -25.9534  -10.5357   -4.9879 H         1 QNI1351     0.0000 
     27 H         -25.8556   -8.7812   -5.2163 H         1 QNI1351     0.0000 
     28 H         -27.0574   -9.9684   -7.0706 H         1 QNI1351     0.0000 
     29 H         -28.0507   -8.7351   -6.2755 H         1 QNI1351     0.0000 
     30 H         -29.3855  -10.7333   -6.6276 H         1 QNI1351     0.0000 
     31 H         -28.1427  -11.7463   -5.8730 H         1 QNI1351     0.0000 
     32 H         -25.5601  -10.4597   -2.6768 H         1 QNI1351     0.0000 
     33 H         -26.5537   -9.5102   -1.5583 H         1 QNI1351     0.0000 
     34 H         -24.5804   -8.4203   -3.6072 H         1 QNI1351     0.0000 
     35 H         -24.3229   -8.5055   -1.8561 H         1 QNI1351     0.0000 
     36 H         -26.4360   -6.7094   -4.4640 H         1 QNI1351     0.0000 
     37 H         -27.4066   -5.9289   -3.2036 H         1 QNI1351     0.0000 
     38 H         -28.4656   -7.9951   -2.5899 H         1 QNI1351     0.0000 
     39 H         -28.5215   -7.8716   -4.3567 H         1 QNI1351     0.0000 
@<TRIPOS>BOND
     1    2    1 2    
     2    3    1 1    
     3   21    1 1    
     4    7    2 1    
     5    4    3 1    
     6   22    3 1    
     7    5    4 ar   
     8    7    4 ar   
     9    6    5 ar   
    10    9    6 ar   
    11   23    6 1    
    12    8    7 ar   
    13    9    8 ar   
    14   10    8 1    
    15   11   10 1    
    16   15   10 1    
    17   12   11 1    
    18   24   11 1    
    19   25   11 1    
    20   13   12 1    
    21   16   12 1    
    22   20   12 1    
    23   14   13 1    
    24   26   13 1    
    25   27   13 1    
    26   15   14 1    
    27   28   14 1    
    28   29   14 1    
    29   30   15 1    
    30   31   15 1    
    31   17   16 1    
    32   32   16 1    
    33   33   16 1    
    34   18   17 1    
    35   34   17 1    
    36   35   17 1    
    37   19   18 1    
    38   20   19 1    
    39   36   19 1    
    40   37   19 1    
    41   38   20 1    
    42   39   20 1    
@<TRIPOS>SUBSTRUCTURE
     1 QNI1351     1 GROUP   
@<TRIPOS>SET

