#    Name: 2uyt_ADP_1_INTS_M
#    Modification time : Tue Mar 25 00:28:23 2014

@<TRIPOS>MOLECULE
2uyt_ADP_1_INTS_M
   54     0     9     0     0
SMALL
NO_CHARGES


@<TRIPOS>ATOM
      1 NZ        -19.7250    4.4630   25.2410 N.4       2 LYC4        0.0000 
      2 NZ        -20.2450    3.1890   24.6840 N.4       8 LYL4        0.0000 
      3 NZ        -18.7310    5.8820   27.0220 N.4       5 LYP4        0.0000 
      4 N         -19.7250    4.4630   25.2410 N.am      1 SEC2        0.0000 
      5 N         -20.2450    3.1890   24.6840 N.am      7 SEL2        0.0000 
      6 N         -19.2050    5.7370   25.7980 N.am      4 SEP2        0.0000 
      7 N         -22.7330    0.5965   23.4430 N.am      1 SEC2        0.0000 
      8 N         -21.5200    1.4230   23.4450 N.am      7 SEL2        0.0000 
      9 N         -23.9460   -0.2300   23.4410 N.am      4 SEP2        0.0000 
     10 N         -22.9660    1.7765   22.6595 N.am      1 SEC2        0.0000 
     11 N         -24.4120    2.1300   21.8740 N.am      4 SEP2        0.0000 
     12 N         -22.9010    4.7590   22.6570 N.am      1 SEC2        0.0000 
     13 N         -22.4740    3.7250   23.5660 N.am      7 SEL2        0.0000 
     14 N         -23.3280    5.7930   21.7480 N.am      4 SEP2        0.0000 
     15 N         -23.4125    4.3520   24.0115 N.am      1 SEC2        0.0000 
     16 N         -24.3510    4.9790   24.4570 N.am      4 SEP2        0.0000 
     17 N         -23.4430    2.9275   22.7200 N.am      1 SEC2        0.0000 
     18 N         -21.2625    0.4645   28.7505 N.am      1 SEC2        0.0000 
     19 N         -21.0090    1.0550   27.4060 N.am      7 SEL2        0.0000 
     20 N         -21.5160   -0.1260   30.0950 N.am      4 SEP2        0.0000 
     21 NZ        -20.4565    4.2745   27.8060 N.4       2 LYC4        0.0000 
     22 NZ        -21.7660    3.4860   27.6390 N.4       8 LYL4        0.0000 
     23 N         -20.4565    4.2745   27.8060 N.am      1 SEC2        0.0000 
     24 N         -21.7660    3.4860   27.6390 N.am      7 SEL2        0.0000 
     25 N         -19.1470    5.0630   27.9730 N.am      4 SEP2        0.0000 
     26 CA        -23.8475    0.5735   26.4705 C.3       3 GLC5        0.0000 
     27 CA        -24.6650    2.3260   27.4980 C.3       9 GLL5        0.0000 
     28 CA        -23.0300   -1.1790   25.4430 C.3       6 GLP5        0.0000 
     29 N         -27.3010    2.1640   25.0655 N.am      1 SEC2        0.0000 
     30 N         -27.6600    1.9940   26.5010 N.am      7 SEL2        0.0000 
     31 N         -26.9420    2.3340   23.6300 N.am      4 SEP2        0.0000 
     32 CA        -27.1540   -0.9580   28.6840 C.3       3 GLC5        0.0000 
     33 CA        -26.9830    0.9520   29.8450 C.3       9 GLL5        0.0000 
     34 CA        -27.3250   -2.8680   27.5230 C.3       6 GLP5        0.0000 
     35 CA        -24.8595    0.6875   30.2690 C.3       3 GLC5        0.0000 
     36 CA        -22.7360    0.4230   30.6930 C.3       6 GLP5        0.0000 
     37 CA        -25.9175   -0.8815   30.0150 C.3       3 GLC5        0.0000 
     38 CA        -24.8520   -2.7150   30.1850 C.3       6 GLP5        0.0000 
     39 CA        -29.9095    1.0605   32.3095 C.3       3 GLC5        0.0000 
     40 CA        -28.8170   -0.0830   33.7430 C.3       9 GLL5        0.0000 
     41 CA        -31.0020    2.2040   30.8760 C.3       6 GLP5        0.0000 
     42 CA        -30.4555   -0.7135   33.6030 C.3       3 GLC5        0.0000 
     43 CA        -32.0940   -1.3440   33.4630 C.3       6 GLP5        0.0000 
     44 CA        -27.1190   -0.2740   34.4605 C.3       3 GLC5        0.0000 
     45 CA        -25.4210   -0.4650   35.1780 C.3       6 GLP5        0.0000 
     46 CA        -28.6540   -1.9730   33.9875 C.3       3 GLC5        0.0000 
     47 CA        -28.4910   -3.8630   34.2320 C.3       6 GLP5        0.0000 
     48 CA        -23.9883    1.1540   29.1932 C.3       3 GLC5        0.0000 
     49 CA        -25.8160    1.4440   27.8890 C.3       9 GLL5        0.0000 
     50 CA        -29.2387    1.7055   30.1033 C.3       3 GLC5        0.0000 
     51 CA        -29.3178    2.0040   31.7793 C.3       3 GLC5        0.0000 
     52 CA        -27.6860    1.2650   32.1870 C.3       9 GLL5        0.0000 
     53 CA        -26.6005    0.6364   34.0965 C.3       3 GLC5        0.0000 
     54 CA        -27.5810    2.3430   33.1780 C.3       9 GLL5        0.0000 
@<TRIPOS>BOND
@<TRIPOS>SUBSTRUCTURE
     1 SEC2        4 GROUP        1 X    SEC  0     ROOT SEC X 2
     2 LYC4        1 GROUP        1 X    LYC  0     **** LYC X 4
     3 GLC5       26 GROUP        1 X    GLC  0     **** GLC X 6
     4 SEP2        6 GROUP        1 Y    SEP  0     ROOT SEP Y 9
     5 LYP4        3 GROUP        1 Y    LYP  0     **** LYP Y 11
     6 GLP5       28 GROUP        1 Y    GLP  0     **** GLP Y 13
     7 SEL2        5 GROUP        1 Z    SEL  0     ROOT SEL Z 16
     8 LYL4        2 GROUP        1 Z    LYL  0     **** LYL Z 18
     9 GLL5       27 GROUP        1 Z    GLL  0     **** GLL Z 20
@<TRIPOS>SET

