#    Name: 2uyt_ADP_1_ligand
#    Modification time : Tue Mar 25 00:28:23 2014

@<TRIPOS>MOLECULE
2uyt_ADP_1_ligand
   39    41     1     0     0
SMALL
NO_CHARGES


@<TRIPOS>ATOM
      1 PB        -21.5840    2.6960   24.2220 P.3       1 ADP1482     0.0000 
      2 O1B       -20.2450    3.1890   24.6840 O.co2     1 ADP1482     0.0000 
      3 O2B       -21.5200    1.4230   23.4450 O.co2     1 ADP1482     0.0000 
      4 O3B       -22.4740    3.7250   23.5660 O.co2     1 ADP1482     0.0000 
      5 PA        -22.0730    2.1070   27.0880 P.3       1 ADP1482     0.0000 
      6 O1A       -21.0090    1.0550   27.4060 O.co2     1 ADP1482     0.0000 
      7 O2A       -21.7660    3.4860   27.6390 O.co2     1 ADP1482     0.0000 
      8 O3A       -22.4190    2.1730   25.5160 O.3       1 ADP1482     0.0000 
      9 O5'       -23.4770    1.5310   27.6280 O.3       1 ADP1482     0.0000 
     10 C5'       -24.6650    2.3260   27.4980 C.3       1 ADP1482     0.0000 
     11 C4'       -25.8160    1.4440   27.8890 C.3       1 ADP1482     0.0000 
     12 O4'       -25.6960    1.1620   29.2760 O.3       1 ADP1482     0.0000 
     13 C3'       -27.1180    2.1940   27.7970 C.3       1 ADP1482     0.0000 
     14 O3'       -27.6600    1.9940   26.5010 O.3       1 ADP1482     0.0000 
     15 C2'       -27.9680    1.4620   28.8160 C.3       1 ADP1482     0.0000 
     16 O2'       -28.6310    0.3600   28.2360 O.3       1 ADP1482     0.0000 
     17 C1'       -26.9830    0.9520   29.8450 C.3       1 ADP1482     0.0000 
     18 N9        -27.0890    1.7300   31.0890 N.pl3     1 ADP1482     0.0000 
     19 C8        -26.6470    2.9870   31.3190 C.2       1 ADP1482     0.0000 
     20 N7        -26.9270    3.3700   32.5930 N.2       1 ADP1482     0.0000 
     21 C5        -27.5810    2.3430   33.1780 C.ar      1 ADP1482     0.0000 
     22 C6        -28.1670    2.0780   34.5080 C.ar      1 ADP1482     0.0000 
     23 N6        -28.0920    3.0500   35.4620 N.pl3     1 ADP1482     0.0000 
     24 N1        -28.7490    0.8660   34.6960 N.ar      1 ADP1482     0.0000 
     25 C2        -28.8170   -0.0830   33.7430 C.ar      1 ADP1482     0.0000 
     26 N3        -28.2920    0.0920   32.5140 N.ar      1 ADP1482     0.0000 
     27 C4        -27.6860    1.2650   32.1870 C.ar      1 ADP1482     0.0000 
     28 H         -24.8112    2.6592   26.4758 H         1 ADP1482     0.0000 
     29 H         -24.6429    3.1860   28.1593 H         1 ADP1482     0.0000 
     30 H         -25.8538    0.5805   27.3095 H         1 ADP1482     0.0000 
     31 H         -26.9864    3.1730   28.0818 H         1 ADP1482     0.0000 
     32 H         -28.6162    2.1536   29.2861 H         1 ADP1482     0.0000 
     33 H         -27.1683   -0.0767   30.0177 H         1 ADP1482     0.0000 
     34 H         -26.1882    3.5473   30.6615 H         1 ADP1482     0.0000 
     35 H         -28.5235    2.8398   36.3393 H         1 ADP1482     0.0000 
     36 H         -27.6121    3.8873   35.2002 H         1 ADP1482     0.0000 
     37 H         -29.2993   -0.9982   33.9663 H         1 ADP1482     0.0000 
     38 H         -28.2891    2.7590   26.3628 H         1 ADP1482     0.0000 
     39 H         -28.5301    0.4874   27.2494 H         1 ADP1482     0.0000 
@<TRIPOS>BOND
     1    2    1 ar   
     2    3    1 ar   
     3    4    1 ar   
     4    8    1 1    
     5    6    5 ar   
     6    7    5 ar   
     7    8    5 1    
     8    9    5 1    
     9   10    9 1    
    10   11   10 1    
    11   28   10 1    
    12   29   10 1    
    13   12   11 1    
    14   13   11 1    
    15   30   11 1    
    16   17   12 1    
    17   14   13 1    
    18   15   13 1    
    19   31   13 1    
    20   38   14 1    
    21   16   15 1    
    22   17   15 1    
    23   32   15 1    
    24   39   16 1    
    25   18   17 1    
    26   33   17 1    
    27   19   18 1    
    28   27   18 1    
    29   20   19 2    
    30   34   19 1    
    31   21   20 1    
    32   22   21 ar   
    33   27   21 ar   
    34   23   22 1    
    35   24   22 ar   
    36   35   23 1    
    37   36   23 1    
    38   25   24 ar   
    39   26   25 ar   
    40   37   25 1    
    41   27   26 ar   
@<TRIPOS>SUBSTRUCTURE
     1 ADP1482     1 GROUP   
@<TRIPOS>SET

