#    Name: 3vtk_ADP_1_INTS_M
#    Modification time : Tue Mar 25 01:36:31 2014

@<TRIPOS>MOLECULE
3vtk_ADP_1_INTS_M
   54     0    12     0     0
SMALL
NO_CHARGES


@<TRIPOS>ATOM
      1 NZ         38.0120   23.7845   36.1760 N.4       3 LYC4        0.0000 
      2 NZ         37.3920   25.5250   35.9100 N.4      11 LYL4        0.0000 
      3 NZ         38.6320   22.0440   36.4420 N.4       7 LYP4        0.0000 
      4 N          36.2775   25.5175   35.2465 N.am      2 SEC2        0.0000 
      5 N          37.3920   25.5250   35.9100 N.am     10 SEL2        0.0000 
      6 N          35.1630   25.5100   34.5830 N.am      6 SEP2        0.0000 
      7 N          37.4875   26.0970   37.0245 N.am      2 SEC2        0.0000 
      8 N          37.5830   26.6690   38.1390 N.am      6 SEP2        0.0000 
      9 NZ         39.1185   23.2805   36.2370 N.4       3 LYC4        0.0000 
     10 NZ         39.6050   24.5170   36.0320 N.4      11 LYL4        0.0000 
     11 N          39.1185   23.2805   36.2370 N.am      2 SEC2        0.0000 
     12 N          39.6050   24.5170   36.0320 N.am     10 SEL2        0.0000 
     13 N          38.6320   22.0440   36.4420 N.am      6 SEP2        0.0000 
     14 N          40.1650   25.1985   37.0630 N.am      2 SEC2        0.0000 
     15 N          40.7250   25.8800   38.0940 N.am      6 SEP2        0.0000 
     16 NZ         38.3870   23.0520   35.3010 N.4       3 LYC4        0.0000 
     17 NZ         38.1420   24.0600   34.1600 N.4      11 LYL4        0.0000 
     18 N          38.3870   23.0520   35.3010 N.am      2 SEC2        0.0000 
     19 N          38.1420   24.0600   34.1600 N.am     10 SEL2        0.0000 
     20 N          37.1910   23.7775   33.4730 N.am      2 SEC2        0.0000 
     21 N          36.2400   23.4950   32.7860 N.am      6 SEP2        0.0000 
     22 N          36.6525   24.7850   34.3715 N.am      2 SEC2        0.0000 
     23 N          40.7245   28.2525   36.8815 N.am      2 SEC2        0.0000 
     24 N          39.9700   27.9690   35.8800 N.am     10 SEL2        0.0000 
     25 N          41.4790   28.5360   37.8830 N.am      6 SEP2        0.0000 
     26 N          37.0670   28.1735   35.1905 N.am      2 SEC2        0.0000 
     27 N          38.2450   28.5040   34.1840 N.am     10 SEL2        0.0000 
     28 N          35.8890   27.8430   36.1970 N.am      6 SEP2        0.0000 
     29 CA         36.7010   26.5765   32.7065 C.3       4 GLC5        0.0000 
     30 CA         37.4220   28.2820   33.0110 C.3      12 GLL5        0.0000 
     31 CA         35.9800   24.8710   32.4020 C.3       8 GLP5        0.0000 
     32 CA         37.0340   28.4725   35.0710 C.3       4 GLC5        0.0000 
     33 CA         36.6460   28.6630   37.1310 C.3       8 GLP5        0.0000 
     34 CA         35.4790   29.6615   31.7365 C.3       4 GLC5        0.0000 
     35 CA         37.5320   29.4610   32.0180 C.3      12 GLL5        0.0000 
     36 CA         33.4260   29.8620   31.4550 C.3       8 GLP5        0.0000 
     37 CA         39.7120   30.9260   35.1355 C.3       4 GLC5        0.0000 
     38 CA         38.8830   31.1310   33.0710 C.3      12 GLL5        0.0000 
     39 CA         40.5410   30.7210   37.2000 C.3       8 GLP5        0.0000 
     40 CA         35.4045   31.1795   33.4340 C.3       4 GLC5        0.0000 
     41 CA         37.4460   31.6450   33.0720 C.3      12 GLL5        0.0000 
     42 CA         33.3630   30.7140   33.7960 C.3       8 GLP5        0.0000 
     43 CA         36.3245   30.8345   36.6700 C.3       4 GLC5        0.0000 
     44 CA         36.0030   33.0060   36.2090 C.3      12 GLL5        0.0000 
     45 CA         36.1320   35.3785   37.9225 C.3       4 GLC5        0.0000 
     46 CA         35.2660   34.0260   36.8440 C.3      12 GLL5        0.0000 
     47 CA         36.9980   36.7310   39.0010 C.3       8 GLP5        0.0000 
     48 O          33.9765   34.6330   38.8070 O.2       1 ALC1        0.0000 
     49 O          34.9970   34.0130   38.1660 O.2       9 ALL1        0.0000 
     50 O          32.9560   35.2530   39.4480 O.2       5 ALP1        0.0000 
     51 CA         39.2287   28.1959   31.0366 C.3       4 GLC5        0.0000 
     52 CA         40.2550   26.9350   29.7980 C.3       8 GLP5        0.0000 
     53 CA         34.7370   31.8850   34.6525 C.3       4 GLC5        0.0000 
     54 CA         36.2190   33.1060   34.8090 C.3      12 GLL5        0.0000 
@<TRIPOS>BOND
@<TRIPOS>SUBSTRUCTURE
     1 ALC1       48 GROUP        1 X    ALC  0     ROOT ALC X 1
     2 SEC2        4 GROUP        1 X    SEC  0     **** SEC X 2
     3 LYC4        1 GROUP        1 X    LYC  0     **** LYC X 4
     4 GLC5       29 GROUP        1 X    GLC  0     **** GLC X 6
     5 ALP1       50 GROUP        1 Y    ALP  0     ROOT ALP Y 8
     6 SEP2        6 GROUP        1 Y    SEP  0     **** SEP Y 9
     7 LYP4        3 GROUP        1 Y    LYP  0     **** LYP Y 11
     8 GLP5       31 GROUP        1 Y    GLP  0     **** GLP Y 13
     9 ALL1       49 GROUP        1 Z    ALL  0     ROOT ALL Z 15
    10 SEL2        5 GROUP        1 Z    SEL  0     **** SEL Z 16
    11 LYL4        2 GROUP        1 Z    LYL  0     **** LYL Z 18
    12 GLL5       30 GROUP        1 Z    GLL  0     **** GLL Z 20
@<TRIPOS>SET

