#    Name: 3vtk_ADP_1_ligand
#    Modification time : Tue Mar 25 01:36:32 2014

@<TRIPOS>MOLECULE
3vtk_ADP_1_ligand
   39    41     1     0     0
SMALL
NO_CHARGES


@<TRIPOS>ATOM
      1 PB         38.5660   25.0690   35.1410 P.3       1 ADP400      0.0000 
      2 O1B        37.3920   25.5250   35.9100 O.co2     1 ADP400      0.0000 
      3 O2B        39.6050   24.5170   36.0320 O.co2     1 ADP400      0.0000 
      4 O3B        38.1420   24.0600   34.1600 O.co2     1 ADP400      0.0000 
      5 PA         39.5540   27.6070   34.4990 P.3       1 ADP400      0.0000 
      6 O1A        39.9700   27.9690   35.8800 O.co2     1 ADP400      0.0000 
      7 O2A        40.5520   28.0330   33.4790 O.co2     1 ADP400      0.0000 
      8 O3A        39.1100   26.1920   34.3310 O.3       1 ADP400      0.0000 
      9 O5'        38.2450   28.5040   34.1840 O.3       1 ADP400      0.0000 
     10 C5'        37.4220   28.2820   33.0110 C.3       1 ADP400      0.0000 
     11 C4'        37.5320   29.4610   32.0180 C.3       1 ADP400      0.0000 
     12 O4'        36.6560   30.5700   32.4480 O.3       1 ADP400      0.0000 
     13 C3'        38.9280   30.0420   32.0360 C.3       1 ADP400      0.0000 
     14 O3'        39.1750   30.6070   30.7440 O.3       1 ADP400      0.0000 
     15 C2'        38.8830   31.1310   33.0710 C.3       1 ADP400      0.0000 
     16 O2'        39.8160   32.1690   32.7910 O.3       1 ADP400      0.0000 
     17 C1'        37.4460   31.6450   33.0720 C.3       1 ADP400      0.0000 
     18 N9         36.9630   31.9750   34.4370 N.pl3     1 ADP400      0.0000 
     19 C8         37.1340   31.2630   35.6090 C.2       1 ADP400      0.0000 
     20 N7         36.5930   31.8420   36.6440 N.2       1 ADP400      0.0000 
     21 C5         36.0030   33.0060   36.2090 C.ar      1 ADP400      0.0000 
     22 C6         35.2660   34.0260   36.8440 C.ar      1 ADP400      0.0000 
     23 N6         34.9970   34.0130   38.1660 N.pl3     1 ADP400      0.0000 
     24 N1         34.8360   35.0540   36.0720 N.ar      1 ADP400      0.0000 
     25 C2         35.1010   35.0470   34.7660 C.ar      1 ADP400      0.0000 
     26 N3         35.7700   34.1470   34.0440 N.ar      1 ADP400      0.0000 
     27 C4         36.2190   33.1060   34.8090 C.ar      1 ADP400      0.0000 
     28 H          36.3631   28.1739   33.2802 H         1 ADP400      0.0000 
     29 H          37.7236   27.3709   32.4776 H         1 ADP400      0.0000 
     30 H          37.2881   29.1441   31.0462 H         1 ADP400      0.0000 
     31 H          39.6100   29.3039   32.3108 H         1 ADP400      0.0000 
     32 H          39.0586   30.6753   34.0391 H         1 ADP400      0.0000 
     33 H          37.4149   32.5182   32.4351 H         1 ADP400      0.0000 
     34 H          37.6293   30.3950   35.6188 H         1 ADP400      0.0000 
     35 H          35.6607   33.5400   38.7454 H         1 ADP400      0.0000 
     36 H          34.1578   34.4774   38.4489 H         1 ADP400      0.0000 
     37 H          34.7080   35.9164   34.1958 H         1 ADP400      0.0000 
     38 H          39.4576   31.5493   30.9234 H         1 ADP400      0.0000 
     39 H          40.4555   32.1563   33.5597 H         1 ADP400      0.0000 
@<TRIPOS>BOND
     1    2    1 ar   
     2    3    1 ar   
     3    4    1 ar   
     4    8    1 1    
     5    6    5 ar   
     6    7    5 ar   
     7    8    5 1    
     8    9    5 1    
     9   10    9 1    
    10   11   10 1    
    11   28   10 1    
    12   29   10 1    
    13   12   11 1    
    14   13   11 1    
    15   30   11 1    
    16   17   12 1    
    17   14   13 1    
    18   15   13 1    
    19   31   13 1    
    20   38   14 1    
    21   16   15 1    
    22   17   15 1    
    23   32   15 1    
    24   39   16 1    
    25   18   17 1    
    26   33   17 1    
    27   19   18 1    
    28   27   18 1    
    29   20   19 2    
    30   34   19 1    
    31   21   20 1    
    32   22   21 ar   
    33   27   21 ar   
    34   23   22 1    
    35   24   22 ar   
    36   35   23 1    
    37   36   23 1    
    38   25   24 ar   
    39   26   25 ar   
    40   37   25 1    
    41   27   26 ar   
@<TRIPOS>SUBSTRUCTURE
     1 ADP400      1 GROUP   
@<TRIPOS>SET

