#    Name: 1wp4_NDP_1_INTS_M
#    Modification time : Tue Mar 25 09:13:38 2014

@<TRIPOS>MOLECULE
1wp4_NDP_1_INTS_M
  103     0    12     0     0
SMALL
NO_CHARGES


@<TRIPOS>ATOM
      1 N          85.6580   21.7125   89.7045 N.am      2 SEC2        0.0000 
      2 N          85.1260   22.9850   89.3390 N.am     10 SEL2        0.0000 
      3 N          86.1900   20.4400   90.0700 N.am      6 SEP2        0.0000 
      4 CA         81.9490   23.6610   85.0090 C.3       4 GLC5        0.0000 
      5 CA         83.4760   22.7350   85.8980 C.3      12 GLL5        0.0000 
      6 CA         80.4220   24.5870   84.1200 C.3       8 GLP5        0.0000 
      7 CA         82.0665   22.4590   84.2125 C.3       4 GLC5        0.0000 
      8 CA         83.9640   21.7090   84.8730 C.3      12 GLL5        0.0000 
      9 CA         80.1690   23.2090   83.5520 C.3       8 GLP5        0.0000 
     10 O          86.7405   19.8165   83.2435 O.2       1 ALC1        0.0000 
     11 O          85.9290   20.4940   84.1550 O.2       9 ALL1        0.0000 
     12 O          87.5520   19.1390   82.3320 O.2       5 ALP1        0.0000 
     13 CA         82.7760   20.8925   82.1195 C.3       4 GLC5        0.0000 
     14 CA         84.0220   22.0880   82.5980 C.3      12 GLL5        0.0000 
     15 CA         81.5300   19.6970   81.6410 C.3       8 GLP5        0.0000 
     16 CA         82.0955   22.6485   83.0750 C.3       4 GLC5        0.0000 
     17 O          80.7695   24.5940   76.4165 O.2       1 ALC1        0.0000 
     18 O          81.7820   24.7710   77.6720 O.2       9 ALL1        0.0000 
     19 O          79.7570   24.4170   75.1610 O.2       5 ALP1        0.0000 
     20 CA         85.1825   21.8755   78.2475 C.3       4 GLC5        0.0000 
     21 CA         83.1870   21.5090   78.2990 C.3      12 GLL5        0.0000 
     22 CA         87.1780   22.2420   78.1960 C.3       8 GLP5        0.0000 
     23 CA         82.3585   20.6030   79.9700 C.3       4 GLC5        0.0000 
     24 CA         81.9715   20.0770   77.3585 C.3       4 GLC5        0.0000 
     25 CA         80.7560   18.6450   76.4180 C.3       8 GLP5        0.0000 
     26 CA         82.3700   21.2115   80.9540 C.3       4 GLC5        0.0000 
     27 CA         83.2100   22.7260   80.2670 C.3      12 GLL5        0.0000 
     28 N          83.7485   19.5595   90.5020 N.am      2 SEC2        0.0000 
     29 N          82.9810   20.5570   89.7280 N.am     10 SEL2        0.0000 
     30 N          84.5160   18.5620   91.2760 N.am      6 SEP2        0.0000 
     31 CA         78.1455   22.8090   87.0130 C.3       4 GLC5        0.0000 
     32 CA         77.8060   21.8680   88.8270 C.3      12 GLL5        0.0000 
     33 CA         78.4850   23.7500   85.1990 C.3       8 GLP5        0.0000 
     34 N          75.4690   20.6175   88.1475 N.am      2 SEC2        0.0000 
     35 N          76.5670   21.6330   88.1420 N.am     10 SEL2        0.0000 
     36 N          74.3710   19.6020   88.1530 N.am      6 SEP2        0.0000 
     37 N          75.5295   22.8595   88.5210 N.am      2 SEC2        0.0000 
     38 N          74.4920   24.0860   88.9000 N.am      6 SEP2        0.0000 
     39 O          77.3075   21.3690   86.8980 O.2       1 ALC1        0.0000 
     40 O          76.5670   21.6330   88.1420 O.2       9 ALL1        0.0000 
     41 O          78.0480   21.1050   85.6540 O.2       5 ALP1        0.0000 
     42 CA         77.8515   23.2200   92.0055 C.3       4 GLC5        0.0000 
     43 CA         77.6850   22.0590   90.3250 C.3      12 GLL5        0.0000 
     44 CA         78.0180   24.3810   93.6860 C.3       8 GLP5        0.0000 
     45 N          75.5455   23.5020   89.7755 N.am      2 SEC2        0.0000 
     46 N          76.5990   22.9180   90.6510 N.am     10 SEL2        0.0000 
     47 N          75.8910   22.5435   91.7070 N.am      2 SEC2        0.0000 
     48 N          75.1830   22.1690   92.7630 N.am      6 SEP2        0.0000 
     49 O          82.7235   22.4540   94.7870 O.2       1 ALC1        0.0000 
     50 O          81.6830   21.7720   94.0430 O.2       9 ALL1        0.0000 
     51 O          83.7640   23.1360   95.5310 O.2       5 ALP1        0.0000 
     52 CA         79.7405   18.9615   96.4985 C.3       4 GLC5        0.0000 
     53 CA         78.7370   19.5980   94.7920 C.3      12 GLL5        0.0000 
     54 CA         80.7440   18.3250   98.2050 C.3       8 GLP5        0.0000 
     55 NZ         87.3900   24.1425   80.1165 N.4       3 LYC4        0.0000 
     56 NZ         88.3060   23.3790   81.0800 N.4      11 LYL4        0.0000 
     57 NZ         85.7360   25.8520   79.7240 N.4       7 LYP4        0.0000 
     58 N          87.3900   24.1425   80.1165 N.am      2 SEC2        0.0000 
     59 N          88.3060   23.3790   81.0800 N.am     10 SEL2        0.0000 
     60 N          86.4740   24.9060   79.1530 N.am      6 SEP2        0.0000 
     61 N          89.1595   22.5515   80.1000 N.am      2 SEC2        0.0000 
     62 N          90.0130   21.7240   79.1200 N.am      6 SEP2        0.0000 
     63 N          89.5395   23.7220   80.8185 N.am      2 SEC2        0.0000 
     64 N          90.7730   24.0650   80.5570 N.am      6 SEP2        0.0000 
     65 NZ         89.8700   22.7045   83.9880 N.4       3 LYC4        0.0000 
     66 NZ         88.5950   22.4370   83.3520 N.4      11 LYL4        0.0000 
     67 NZ         91.1450   22.9720   84.6240 N.4       7 LYP4        0.0000 
     68 N          89.0770   21.2730   82.7110 N.am      2 SEC2        0.0000 
     69 N          88.5950   22.4370   83.3520 N.am     10 SEL2        0.0000 
     70 N          89.5590   20.1090   82.0700 N.am      6 SEP2        0.0000 
     71 N          89.8700   22.7045   83.9880 N.am      2 SEC2        0.0000 
     72 N          91.1450   22.9720   84.6240 N.am      6 SEP2        0.0000 
     73 NZ         86.6925   25.3805   82.0385 N.4       3 LYC4        0.0000 
     74 NZ         87.5330   24.6590   83.0550 N.4      11 LYL4        0.0000 
     75 N          86.6925   25.3805   82.0385 N.am      2 SEC2        0.0000 
     76 N          87.5330   24.6590   83.0550 N.am     10 SEL2        0.0000 
     77 N          85.8520   26.1020   81.0220 N.am      6 SEP2        0.0000 
     78 CA         85.4820   20.9678   86.2989 C.3       4 GLC5        0.0000 
     79 CA         86.4080   19.9100   87.7130 C.3       8 GLP5        0.0000 
     80 CA         84.6286   23.9147   78.6866 C.3       4 GLC5        0.0000 
     81 CA         82.6420   23.8500   79.7060 C.3      12 GLL5        0.0000 
     82 CA         86.4070   24.5690   77.7340 C.3       8 GLP5        0.0000 
     83 CA         80.9306   23.7662   79.8226 C.3       4 GLC5        0.0000 
     84 CA         82.3390   23.7400   78.3170 C.3      12 GLL5        0.0000 
     85 CA         79.0110   24.2720   80.0060 C.3       8 GLP5        0.0000 
     86 CA         79.7373   18.9835   88.5008 C.3       4 GLC5        0.0000 
     87 CA         80.2180   20.9410   88.4720 C.3      12 GLL5        0.0000 
     88 CA         80.0220   17.1870   88.4270 C.3       8 GLP5        0.0000 
     89 CA         78.8657   23.7242   89.9285 C.3       4 GLC5        0.0000 
     90 CA         79.9860   25.4850   90.2810 C.3       8 GLP5        0.0000 
     91 CA         75.5735   21.1680   90.2625 C.3       4 GLC5        0.0000 
     92 CA         73.5090   21.0350   89.9780 C.3       8 GLP5        0.0000 
     93 CA         80.5337   19.5910   92.9543 C.3       4 GLC5        0.0000 
     94 CA         79.1930   20.9050   92.7320 C.3      12 GLL5        0.0000 
     95 CA         81.6970   18.4550   92.4870 C.3       8 GLP5        0.0000 
     96 CA         77.4170   17.1770   93.4352 C.3       4 GLC5        0.0000 
     97 CA         77.6300   18.9820   94.2430 C.3      12 GLL5        0.0000 
     98 CA         77.3840   15.2130   93.2800 C.3       8 GLP5        0.0000 
     99 CA         75.4270   19.3225   93.9167 C.3       4 GLC5        0.0000 
    100 CA         73.4040   19.5040   94.2430 C.3       8 GLP5        0.0000 
    101 CA         79.1519   17.9335   93.9434 C.3       4 GLC5        0.0000 
    102 CA         77.2700   19.3000   92.9380 C.3      12 GLL5        0.0000 
    103 CA         80.5770   16.5720   94.1590 C.3       8 GLP5        0.0000 
@<TRIPOS>BOND
@<TRIPOS>SUBSTRUCTURE
     1 ALC1       10 GROUP        1 X    ALC  0     ROOT ALC X 1
     2 SEC2        1 GROUP        1 X    SEC  0     **** SEC X 2
     3 LYC4       55 GROUP        1 X    LYC  0     **** LYC X 4
     4 GLC5        4 GROUP        1 X    GLC  0     **** GLC X 6
     5 ALP1       12 GROUP        1 Y    ALP  0     ROOT ALP Y 8
     6 SEP2        3 GROUP        1 Y    SEP  0     **** SEP Y 9
     7 LYP4       57 GROUP        1 Y    LYP  0     **** LYP Y 11
     8 GLP5        6 GROUP        1 Y    GLP  0     **** GLP Y 13
     9 ALL1       11 GROUP        1 Z    ALL  0     ROOT ALL Z 15
    10 SEL2        2 GROUP        1 Z    SEL  0     **** SEL Z 16
    11 LYL4       56 GROUP        1 Z    LYL  0     **** LYL Z 18
    12 GLL5        5 GROUP        1 Z    GLL  0     **** GLL Z 20
@<TRIPOS>SET

