#    Name: 1wp4_NDP_1_ligand
#    Modification time : Tue Mar 25 09:13:38 2014

@<TRIPOS>MOLECULE
1wp4_NDP_1_ligand
   74    78     1     0     0
SMALL
NO_CHARGES


@<TRIPOS>ATOM
      1 PA         84.1220   23.4180   88.3920 P.3       1 NDP1301     0.0000 
      2 O1A        85.1260   22.9850   89.3390 O.co2     1 NDP1301     0.0000 
      3 O2A        83.9080   24.8610   87.9950 O.co2     1 NDP1301     0.0000 
      4 O5B        84.3240   22.5210   87.0430 O.3       1 NDP1301     0.0000 
      5 C5B        83.4760   22.7350   85.8980 C.3       1 NDP1301     0.0000 
      6 C4B        83.9640   21.7090   84.8730 C.3       1 NDP1301     0.0000 
      7 O4B        83.1220   21.8940   83.6940 O.3       1 NDP1301     0.0000 
      8 C3B        85.3920   21.8290   84.3840 C.3       1 NDP1301     0.0000 
      9 O3B        85.9290   20.4940   84.1550 O.3       1 NDP1301     0.0000 
     10 C2B        85.3100   22.5970   83.1280 C.3       1 NDP1301     0.0000 
     11 O2B        86.4110   22.5780   82.2100 O.3       1 NDP1301     0.0000 
     12 C1B        84.0220   22.0880   82.5980 C.3       1 NDP1301     0.0000 
     13 N9A        83.4280   23.0120   81.5960 N.pl3     1 NDP1301     0.0000 
     14 C8A        82.9670   24.3400   81.7680 C.2       1 NDP1301     0.0000 
     15 N7A        82.5010   24.8300   80.6430 N.2       1 NDP1301     0.0000 
     16 C5A        82.6420   23.8500   79.7060 C.ar      1 NDP1301     0.0000 
     17 C6A        82.3390   23.7400   78.3170 C.ar      1 NDP1301     0.0000 
     18 N6A        81.7820   24.7710   77.6720 N.pl3     1 NDP1301     0.0000 
     19 N1A        82.6170   22.5740   77.6460 N.ar      1 NDP1301     0.0000 
     20 C2A        83.1870   21.5090   78.2990 C.ar      1 NDP1301     0.0000 
     21 N3A        83.5100   21.5140   79.6140 N.ar      1 NDP1301     0.0000 
     22 C4A        83.2100   22.7260   80.2670 C.ar      1 NDP1301     0.0000 
     23 O3         82.7370   22.7840   88.8240 O.3       1 NDP1301     0.0000 
     24 PN         82.2360   21.8300   90.0130 P.3       1 NDP1301     0.0000 
     25 O1N        82.4620   22.5430   91.2680 O.co2     1 NDP1301     0.0000 
     26 O2N        82.9810   20.5570   89.7280 O.co2     1 NDP1301     0.0000 
     27 O5D        80.6930   21.6430   89.6740 O.3       1 NDP1301     0.0000 
     28 C5D        80.2180   20.9410   88.4720 C.3       1 NDP1301     0.0000 
     29 C4D        78.6870   20.6190   88.6770 C.3       1 NDP1301     0.0000 
     30 O4D        78.5150   19.8760   89.8890 O.3       1 NDP1301     0.0000 
     31 C3D        77.8060   21.8680   88.8270 C.3       1 NDP1301     0.0000 
     32 O3D        76.5670   21.6330   88.1420 O.3       1 NDP1301     0.0000 
     33 C2D        77.6850   22.0590   90.3250 C.3       1 NDP1301     0.0000 
     34 O2D        76.5990   22.9180   90.6510 O.3       1 NDP1301     0.0000 
     35 C1D        77.5910   20.5430   90.7690 C.3       1 NDP1301     0.0000 
     36 N1N        78.0250   20.2410   92.1810 N.pl3     1 NDP1301     0.0000 
     37 C2N        79.1930   20.9050   92.7320 C.2       1 NDP1301     0.0000 
     38 C3N        79.5480   20.5490   94.1110 C.2       1 NDP1301     0.0000 
     39 C7N        80.7150   21.1580   94.7700 C.2       1 NDP1301     0.0000 
     40 O7N        80.8750   21.1390   96.0090 O.2       1 NDP1301     0.0000 
     41 N7N        81.6830   21.7720   94.0430 N.am      1 NDP1301     0.0000 
     42 C4N        78.7370   19.5980   94.7920 C.3       1 NDP1301     0.0000 
     43 C5N        77.6300   18.9820   94.2430 C.2       1 NDP1301     0.0000 
     44 C6N        77.2700   19.3000   92.9380 C.2       1 NDP1301     0.0000 
     45 P2B        87.7670   23.2870   82.4490 P.3       1 NDP1301     0.0000 
     46 O1X        88.3060   23.3790   81.0800 O.co2     1 NDP1301     0.0000 
     47 O2X        88.5950   22.4370   83.3520 O.co2     1 NDP1301     0.0000 
     48 O3X        87.5330   24.6590   83.0550 O.co2     1 NDP1301     0.0000 
     49 H          83.6021   23.7149   85.4815 H         1 NDP1301     0.0000 
     50 H          82.4463   22.5311   86.1162 H         1 NDP1301     0.0000 
     51 H          83.7925   20.7159   85.2562 H         1 NDP1301     0.0000 
     52 H          85.9513   22.3645   85.1085 H         1 NDP1301     0.0000 
     53 H          85.0762   23.6571   83.4449 H         1 NDP1301     0.0000 
     54 H          84.2116   21.1247   82.1112 H         1 NDP1301     0.0000 
     55 H          83.0144   24.7861   82.6383 H         1 NDP1301     0.0000 
     56 H          82.0070   25.6811   78.0199 H         1 NDP1301     0.0000 
     57 H          81.1906   24.5392   76.8996 H         1 NDP1301     0.0000 
     58 H          83.3836   20.6306   77.7308 H         1 NDP1301     0.0000 
     59 H          80.7285   20.0026   88.3301 H         1 NDP1301     0.0000 
     60 H          80.3028   21.5559   87.5912 H         1 NDP1301     0.0000 
     61 H          78.3440   20.0551   87.8332 H         1 NDP1301     0.0000 
     62 H          78.3619   22.6861   88.4157 H         1 NDP1301     0.0000 
     63 H          78.6500   22.4042   90.6620 H         1 NDP1301     0.0000 
     64 H          76.6027   20.2071   90.5843 H         1 NDP1301     0.0000 
     65 H          79.7169   21.5519   92.2208 H         1 NDP1301     0.0000 
     66 H          82.4259   22.1914   94.5648 H         1 NDP1301     0.0000 
     67 H          81.5677   21.7507   93.0499 H         1 NDP1301     0.0000 
     68 H          78.4289   20.0798   95.8209 H         1 NDP1301     0.0000 
     69 H          79.4577   18.7697   95.2165 H         1 NDP1301     0.0000 
     70 H          77.0846   18.3072   94.7796 H         1 NDP1301     0.0000 
     71 H          76.4505   18.8580   92.5007 H         1 NDP1301     0.0000 
     72 H          86.5865   20.6040   83.4096 H         1 NDP1301     0.0000 
     73 H          76.8189   21.5294   87.1799 H         1 NDP1301     0.0000 
     74 H          76.9802   23.5856   91.2907 H         1 NDP1301     0.0000 
@<TRIPOS>BOND
     1    2    1 ar   
     2    3    1 ar   
     3    4    1 1    
     4   23    1 1    
     5    5    4 1    
     6    6    5 1    
     7   49    5 1    
     8   50    5 1    
     9    7    6 1    
    10    8    6 1    
    11   51    6 1    
    12   12    7 1    
    13    9    8 1    
    14   10    8 1    
    15   52    8 1    
    16   72    9 1    
    17   11   10 1    
    18   12   10 1    
    19   53   10 1    
    20   45   11 1    
    21   13   12 1    
    22   54   12 1    
    23   14   13 1    
    24   22   13 1    
    25   15   14 2    
    26   55   14 1    
    27   16   15 1    
    28   17   16 ar   
    29   22   16 ar   
    30   18   17 1    
    31   19   17 ar   
    32   56   18 1    
    33   57   18 1    
    34   20   19 ar   
    35   21   20 ar   
    36   58   20 1    
    37   22   21 ar   
    38   24   23 1    
    39   25   24 ar   
    40   26   24 ar   
    41   27   24 1    
    42   28   27 1    
    43   29   28 1    
    44   59   28 1    
    45   60   28 1    
    46   30   29 1    
    47   31   29 1    
    48   61   29 1    
    49   35   30 1    
    50   32   31 1    
    51   33   31 1    
    52   62   31 1    
    53   73   32 1    
    54   34   33 1    
    55   35   33 1    
    56   63   33 1    
    57   74   34 1    
    58   36   35 1    
    59   64   35 1    
    60   37   36 1    
    61   44   36 1    
    62   38   37 2    
    63   65   37 1    
    64   39   38 1    
    65   42   38 1    
    66   40   39 2    
    67   41   39 am   
    68   66   41 1    
    69   67   41 1    
    70   43   42 1    
    71   68   42 1    
    72   69   42 1    
    73   44   43 2    
    74   70   43 1    
    75   71   44 1    
    76   46   45 ar   
    77   47   45 ar   
    78   48   45 ar   
@<TRIPOS>SUBSTRUCTURE
     1 NDP1301     1 GROUP   
@<TRIPOS>SET

