#    Name: 3et1_ET1_2_INTS_M
#    Modification time : Tue Mar 25 02:25:38 2014

@<TRIPOS>MOLECULE
3et1_ET1_2_INTS_M
   63     0     6     0     0
SMALL
NO_CHARGES


@<TRIPOS>ATOM
      1 CA          9.9825   33.2135  -10.5145 C.3       2 GLC5        0.0000 
      2 CA         10.1010   33.4060   -8.3170 C.3       6 GLL5        0.0000 
      3 CA          9.8640   33.0210  -12.7120 C.3       4 GLP5        0.0000 
      4 CA         10.9025   31.8955   -6.8615 C.3       2 GLC5        0.0000 
      5 CA         11.7040   30.3850   -5.4060 C.3       4 GLP5        0.0000 
      6 CA         10.6210   31.4745   -9.2470 C.3       2 GLC5        0.0000 
      7 CA         11.1410   29.5430  -10.1770 C.3       4 GLP5        0.0000 
      8 CA          3.1815   31.5380   -5.4095 C.3       2 GLC5        0.0000 
      9 CA          4.0450   33.5580   -5.3920 C.3       6 GLL5        0.0000 
     10 CA          2.3180   29.5180   -5.4270 C.3       4 GLP5        0.0000 
     11 CA          2.1615   36.7795   -3.4295 C.3       2 GLC5        0.0000 
     12 CA          4.0590   35.9720   -3.9780 C.3       6 GLL5        0.0000 
     13 CA          0.2640   37.5870   -2.8810 C.3       4 GLP5        0.0000 
     14 CA          8.2645   41.8910   -6.4285 C.3       2 GLC5        0.0000 
     15 CA          8.3040   41.4300   -8.0230 C.3       6 GLL5        0.0000 
     16 CA          8.2250   42.3520   -4.8340 C.3       4 GLP5        0.0000 
     17 CA          9.9035   40.4990   -7.1755 C.3       2 GLC5        0.0000 
     18 CA         11.5030   39.5680   -6.3280 C.3       4 GLP5        0.0000 
     19 CA          7.8225   43.2225   -8.4960 C.3       2 GLC5        0.0000 
     20 CA          7.3410   45.0150   -8.9690 C.3       4 GLP5        0.0000 
     21 CA          9.0330   42.2910   -9.9445 C.3       2 GLC5        0.0000 
     22 CA          9.7620   43.1520  -11.8660 C.3       4 GLP5        0.0000 
     23 CA          8.9815   35.9135   -6.2720 C.3       2 GLC5        0.0000 
     24 CA          9.8460   34.8640   -7.8900 C.3       6 GLL5        0.0000 
     25 CA          8.1170   36.9630   -4.6540 C.3       4 GLP5        0.0000 
     26 N           8.0850   32.2990   -5.4080 N.am      1 SEC2        0.0000 
     27 N           8.7070   32.7770   -6.3730 N.am      5 SEL2        0.0000 
     28 N           7.4630   31.8210   -4.4430 N.am      3 SEP2        0.0000 
     29 CA          4.3340   34.7410   -0.5080 C.3       2 GLC5        0.0000 
     30 CA          3.8360   36.1580   -1.3630 C.3       6 GLL5        0.0000 
     31 CA          4.8320   33.3240    0.3470 C.3       4 GLP5        0.0000 
     32 CA          2.0500   36.8725   -2.1220 C.3       2 GLC5        0.0000 
     33 CA         11.1073   35.4910   -9.0092 C.3       2 GLC5        0.0000 
     34 CA         12.2410   36.8470   -9.9150 C.3       4 GLP5        0.0000 
     35 CA         11.2923   34.1955   -6.7583 C.3       2 GLC5        0.0000 
     36 CA         12.6110   34.2560   -5.4130 C.3       4 GLP5        0.0000 
     37 CA          2.0713   33.9307   -6.1215 C.3       2 GLC5        0.0000 
     38 CA          4.2660   34.7370   -6.1480 C.3       6 GLL5        0.0000 
     39 CA         -0.0130   33.7140   -6.4730 C.3       4 GLP5        0.0000 
     40 CA          5.6295   37.1880   -4.6677 C.3       2 GLC5        0.0000 
     41 CA          4.2770   35.9060   -5.3530 C.3       6 GLL5        0.0000 
     42 CA          7.0910   38.4370   -4.6700 C.3       4 GLP5        0.0000 
     43 CA          7.9778   35.9360   -6.2692 C.3       2 GLC5        0.0000 
     44 CA          7.2710   34.5250   -7.8220 C.3       6 GLL5        0.0000 
     45 CA          6.5948   36.7800   -9.8385 C.3       2 GLC5        0.0000 
     46 CA          7.9680   36.6790   -8.1580 C.3       6 GLL5        0.0000 
     47 CA          5.9340   36.8930  -11.5230 C.3       4 GLP5        0.0000 
     48 CA          9.9090   39.0358   -7.3830 C.3       2 GLC5        0.0000 
     49 CA          8.6570   37.9010   -8.3470 C.3       6 GLL5        0.0000 
     50 CA          8.4240   38.5118  -10.1840 C.3       2 GLC5        0.0000 
     51 CA          7.9730   39.1060   -8.5290 C.3       6 GLL5        0.0000 
     52 CA          8.5330   38.5200  -11.9300 C.3       4 GLP5        0.0000 
     53 CA          6.0770   37.6885   -9.9745 C.3       2 GLC5        0.0000 
     54 CA          6.5660   39.0850   -8.5220 C.3       6 GLL5        0.0000 
     55 CA          4.2685   39.0045   -8.4650 C.3       2 GLC5        0.0000 
     56 CA          5.8740   37.8830   -8.3300 C.3       6 GLL5        0.0000 
     57 CA          2.3170   39.5250   -8.5040 C.3       4 GLP5        0.0000 
     58 CA          6.8314   38.4631   -6.5489 C.3       2 GLC5        0.0000 
     59 CA          8.0366   37.1235   -6.4522 C.3       2 GLC5        0.0000 
     60 CA          3.2535   36.5595   -5.9209 C.3       2 GLC5        0.0000 
     61 CA          2.2900   37.7810   -6.4350 C.3       4 GLP5        0.0000 
     62 CA          4.3285   33.7527   -1.6450 C.3       2 GLC5        0.0000 
     63 CA          3.8270   34.7880   -3.2750 C.3       6 GLL5        0.0000 
@<TRIPOS>BOND
@<TRIPOS>SUBSTRUCTURE
     1 SEC2       26 GROUP        1 X    SEC  0     ROOT SEC X 2
     2 GLC5        1 GROUP        1 X    GLC  0     **** GLC X 6
     3 SEP2       28 GROUP        1 Y    SEP  0     ROOT SEP Y 9
     4 GLP5        3 GROUP        1 Y    GLP  0     **** GLP Y 13
     5 SEL2       27 GROUP        1 Z    SEL  0     ROOT SEL Z 16
     6 GLL5        2 GROUP        1 Z    GLL  0     **** GLL Z 20
@<TRIPOS>SET

