#    Name: 3et1_ET1_2_ligand
#    Modification time : Tue Mar 25 02:25:38 2014

@<TRIPOS>MOLECULE
3et1_ET1_2_ligand
   45    47     1     0     0
SMALL
NO_CHARGES


@<TRIPOS>ATOM
      1 C13        10.1010   33.4060   -8.3170 C.3       1 ET12        0.0000 
      2 C17         4.0450   33.5580   -5.3920 C.ar      1 ET12        0.0000 
      3 C20         4.0590   35.9720   -3.9780 C.ar      1 ET12        0.0000 
      4 C21         4.2770   35.9060   -5.3530 C.ar      1 ET12        0.0000 
      5 N01         6.0550   35.2920   -7.9580 N.pl3     1 ET12        0.0000 
      6 C02         7.2710   34.5250   -7.8220 C.2       1 ET12        0.0000 
      7 C03         8.4060   35.2930   -7.9470 C.2       1 ET12        0.0000 
      8 C04         7.9680   36.6790   -8.1580 C.ar      1 ET12        0.0000 
      9 C05         6.5430   36.6550   -8.1500 C.ar      1 ET12        0.0000 
     10 C06         7.9730   39.1060   -8.5290 C.ar      1 ET12        0.0000 
     11 C07         6.5660   39.0850   -8.5220 C.ar      1 ET12        0.0000 
     12 C08         5.8740   37.8830   -8.3300 C.ar      1 ET12        0.0000 
     13 C09         8.6570   37.9010   -8.3470 C.ar      1 ET12        0.0000 
     14 O10         8.7140   40.2640   -8.7160 O.3       1 ET12        0.0000 
     15 C11         8.3040   41.4300   -8.0230 C.3       1 ET12        0.0000 
     16 C12         9.8460   34.8640   -7.8900 C.3       1 ET12        0.0000 
     17 C14         9.2230   32.4080   -7.5720 C.2       1 ET12        0.0000 
     18 S15         4.5620   34.7180   -7.8000 S.o2      1 ET12        0.0000 
     19 C16         4.2660   34.7370   -6.1480 C.ar      1 ET12        0.0000 
     20 C18         3.8230   33.5750   -3.9990 C.ar      1 ET12        0.0000 
     21 C19         3.8270   34.7880   -3.2750 C.ar      1 ET12        0.0000 
     22 O22         4.5450   33.3860   -8.3000 O.2       1 ET12        0.0000 
     23 O23         3.6890   35.6140   -8.4660 O.2       1 ET12        0.0000 
     24 O24         8.9420   31.3040   -7.9830 O.co2     1 ET12        0.0000 
     25 O25         8.7070   32.7770   -6.3730 O.co2     1 ET12        0.0000 
     26 O26         3.6180   34.8680   -1.9240 O.3       1 ET12        0.0000 
     27 C27         3.8360   36.1580   -1.3630 C.3       1 ET12        0.0000 
     28 H          11.1561   33.1667   -8.1371 H         1 ET12        0.0000 
     29 H           9.9168   33.3182   -9.3946 H         1 ET12        0.0000 
     30 H           4.0472   32.6438   -5.8880 H         1 ET12        0.0000 
     31 H           4.0685   36.8679   -3.4931 H         1 ET12        0.0000 
     32 H           4.4723   36.8253   -5.8635 H         1 ET12        0.0000 
     33 H           7.2523   33.5659   -7.6593 H         1 ET12        0.0000 
     34 H           6.0452   39.9601   -8.6591 H         1 ET12        0.0000 
     35 H           4.8360   37.8919   -8.3192 H         1 ET12        0.0000 
     36 H           9.6911   37.8938   -8.3492 H         1 ET12        0.0000 
     37 H          10.4558   35.5242   -8.5364 H         1 ET12        0.0000 
     38 H          10.2316   34.9941   -6.8605 H         1 ET12        0.0000 
     39 H           3.6554   32.6902   -3.5015 H         1 ET12        0.0000 
     40 H           8.3206   41.2981   -7.0319 H         1 ET12        0.0000 
     41 H           8.8967   42.2097   -8.2249 H         1 ET12        0.0000 
     42 H           7.3724   41.6990   -8.2674 H         1 ET12        0.0000 
     43 H           4.7749   36.4713   -1.5058 H         1 ET12        0.0000 
     44 H           3.2329   36.8456   -1.7673 H         1 ET12        0.0000 
     45 H           3.6709   36.1668   -0.3768 H         1 ET12        0.0000 
@<TRIPOS>BOND
     1   16    1 1    
     2   17    1 1    
     3   28    1 1    
     4   29    1 1    
     5   19    2 ar   
     6   20    2 ar   
     7   30    2 1    
     8    4    3 ar   
     9   21    3 ar   
    10   31    3 1    
    11   19    4 ar   
    12   32    4 1    
    13    6    5 1    
    14    9    5 1    
    15   18    5 1    
    16    7    6 2    
    17   33    6 1    
    18    8    7 1    
    19   16    7 1    
    20    9    8 ar   
    21   13    8 ar   
    22   12    9 ar   
    23   11   10 ar   
    24   13   10 ar   
    25   14   10 1    
    26   12   11 ar   
    27   34   11 1    
    28   35   12 1    
    29   36   13 1    
    30   15   14 1    
    31   40   15 1    
    32   41   15 1    
    33   42   15 1    
    34   37   16 1    
    35   38   16 1    
    36   24   17 ar   
    37   25   17 ar   
    38   19   18 1    
    39   22   18 2    
    40   23   18 2    
    41   21   20 ar   
    42   39   20 1    
    43   26   21 1    
    44   27   26 1    
    45   43   27 1    
    46   44   27 1    
    47   45   27 1    
@<TRIPOS>SUBSTRUCTURE
     1 ET12        1 GROUP   
@<TRIPOS>SET

