#    Name: 4J93_2_CAVITY_N1_ALL.mol2
#    Modification time : Tue Mar 11 07:31:00 2014

@<TRIPOS>MOLECULE
4J93_2_CAVITY_N1_ALL.mol2
   61     0     5     0     0
SMALL
NO_CHARGES


@<TRIPOS>ATOM
      1 CA         -7.7081    7.3752   16.4192 C.3       4 GLY6        0.0000 
      2 CA         -7.8084    7.2632   14.3032 C.3       4 GLY6        0.0000 
      3 OD1        -7.8176    6.1487   13.2993 O.3       3 ASP3        0.0000 
      4 CA         -2.1481    3.8001    4.6483 C.3       4 GLY6        0.0000 
      5 OG         -2.0571    2.7976    5.7603 O.2       1 SER1        0.0000 
      6 CA         -6.4022    8.3197   13.1173 C.3       4 GLY6        0.0000 
      7 CA         -6.3112    7.3172   14.2294 C.3       4 GLY6        0.0000 
      8 CA         -6.2201    6.3147   15.3415 C.3       4 GLY6        0.0000 
      9 CA         -6.4114    7.2053   12.1134 C.3       4 GLY6        0.0000 
     10 OD1        -6.3204    6.2028   13.2255 O.3       3 ASP3        0.0000 
     11 CA         -4.9050    8.3738   13.0435 C.3       4 GLY6        0.0000 
     12 N          -4.8140    7.3713   14.1556 N.2       2 ALA2        0.0000 
     13 CA         -5.0053    8.2618   10.9275 C.3       4 GLY6        0.0000 
     14 CA         -4.9142    7.2593   12.0396 C.3       4 GLY6        0.0000 
     15 N          -4.8232    6.2568   13.1517 N.2       2 ALA2        0.0000 
     16 N          -4.8324    5.1423   12.1478 N.2       2 ALA2        0.0000 
     17 CA         -4.9327    5.0304   10.0318 C.3       4 GLY6        0.0000 
     18 N          -4.8417    4.0279   11.1438 N.2       2 ALA2        0.0000 
     19 CA         -5.0330    4.9184    7.9158 C.3       4 GLY6        0.0000 
     20 CA         -4.9420    3.9159    9.0279 C.3       4 GLY6        0.0000 
     21 DU         -4.8509    2.9134   10.1399 H         5 CUB7        0.0000 
     22 CA         -5.1333    4.8064    5.7998 C.3       4 GLY6        0.0000 
     23 DU         -5.0422    3.8039    6.9119 H         5 CUB7        0.0000 
     24 DU         -4.9512    2.8014    8.0239 H         5 CUB7        0.0000 
     25 N          -5.1425    3.6919    4.7959 N.2       2 ALA2        0.0000 
     26 OG         -5.0515    2.6894    5.9080 O.2       1 SER1        0.0000 
     27 OG         -5.0607    1.5749    4.9040 O.2       1 SER1        0.0000 
     28 CA         -3.5081    8.3159   10.8537 C.3       4 GLY6        0.0000 
     29 CA         -3.4170    7.3134   11.9658 C.3       4 GLY6        0.0000 
     30 N          -3.3260    6.3109   13.0779 N.2       2 ALA2        0.0000 
     31 CA         -3.5173    7.2014    9.8498 C.3       4 GLY6        0.0000 
     32 CA         -3.4263    6.1989   10.9619 C.3       4 GLY6        0.0000 
     33 N          -3.3352    5.1964   12.0739 N.2       2 ALA2        0.0000 
     34 CA         -3.5265    6.0869    8.8459 C.3       4 GLY6        0.0000 
     35 CA         -3.4355    5.0844    9.9580 C.3       4 GLY6        0.0000 
     36 N          -3.3445    4.0819   11.0700 N.2       2 ALA2        0.0000 
     37 CA         -3.6268    5.9750    6.7299 C.3       4 GLY6        0.0000 
     38 CA         -3.5358    4.9725    7.8420 C.3       4 GLY6        0.0000 
     39 N          -3.4448    3.9700    8.9540 N.2       2 ALA2        0.0000 
     40 N          -3.3537    2.9675   10.0661 N.2       2 ALA2        0.0000 
     41 N          -3.2627    1.9650   11.1782 N.2       2 ALA2        0.0000 
     42 CA         -3.6361    4.8605    5.7260 C.3       4 GLY6        0.0000 
     43 OG         -3.5450    3.8580    6.8381 O.2       1 SER1        0.0000 
     44 OG         -3.4540    2.8555    7.9501 O.2       1 SER1        0.0000 
     45 N          -3.3630    1.8530    9.0622 N.2       2 ALA2        0.0000 
     46 OG         -3.6453    3.7460    4.7221 O.2       1 SER1        0.0000 
     47 OG         -3.5543    2.7435    5.8341 O.2       1 SER1        0.0000 
     48 OG         -3.3722    0.7385    8.0583 O.2       1 SER1        0.0000 
     49 CA         -3.2812   -0.2640    9.1704 C.3       4 GLY6        0.0000 
     50 CA         -2.0201    7.2555    9.7760 C.3       4 GLY6        0.0000 
     51 CA         -1.9291    6.2530   10.8881 C.3       4 GLY6        0.0000 
     52 CA         -1.8380    5.2505   12.0001 C.3       4 GLY6        0.0000 
     53 OG         -2.0293    6.1410    8.7721 O.2       1 SER1        0.0000 
     54 N          -1.9383    5.1385    9.8841 N.2       2 ALA2        0.0000 
     55 N          -1.8473    4.1360   10.9962 N.2       2 ALA2        0.0000 
     56 OG         -2.0386    5.0265    7.7682 O.2       1 SER1        0.0000 
     57 N          -1.9476    4.0240    8.8802 N.2       2 ALA2        0.0000 
     58 CA         -2.1389    4.9145    5.6522 C.3       4 GLY6        0.0000 
     59 OG         -2.0478    3.9120    6.7642 O.2       1 SER1        0.0000 
     60 OG         -1.9568    2.9095    7.8763 O.2       1 SER1        0.0000 
     61 N          -1.8658    1.9070    8.9884 N.2       2 ALA2        0.0000 
@<TRIPOS>BOND
@<TRIPOS>SUBSTRUCTURE
     1 SER1        5 GROUP   
     2 ALA2       12 GROUP   
     3 ASP3        3 GROUP   
     4 GLY6        1 GROUP   
     5 CUB7       21 GROUP   
@<TRIPOS>SET

