#    Name: 4j93_1JR_2_INTS_M
#    Modification time : Tue Mar 25 05:36:00 2014

@<TRIPOS>MOLECULE
4j93_1JR_2_INTS_M
   33     0     6     0     0
SMALL
NO_CHARGES


@<TRIPOS>ATOM
      1 O          -3.5250    3.5805   13.0310 O.2       1 ALC1        0.0000 
      2 O          -3.4260    3.2700   11.6800 O.2       5 ALL1        0.0000 
      3 O          -3.6240    3.8910   14.3820 O.2       3 ALP1        0.0000 
      4 O          -2.7330    0.7800    6.6330 O.2       1 ALC1        0.0000 
      5 O          -2.7510    1.2810    7.9760 O.2       5 ALL1        0.0000 
      6 O          -2.7150    0.2790    5.2900 O.2       3 ALP1        0.0000 
      7 CA         -3.4420    9.3475   12.0023 C.3       2 GLC5        0.0000 
      8 CA         -3.1110    8.1750   10.4200 C.3       6 GLL5        0.0000 
      9 CA         -3.5200   10.8550   13.0280 C.3       4 GLP5        0.0000 
     10 CA         -2.5025    9.7360    9.1037 C.3       2 GLC5        0.0000 
     11 CA         -2.1400   11.6610    8.3300 C.3       4 GLP5        0.0000 
     12 CA         -1.4485    7.1585    7.8240 C.3       2 GLC5        0.0000 
     13 CA         -2.6190    7.4470    9.3350 C.3       6 GLL5        0.0000 
     14 CA         -0.2730    7.5690    6.3020 C.3       4 GLP5        0.0000 
     15 CA         -2.0220    5.3937    4.7700 C.3       2 GLC5        0.0000 
     16 CA         -3.9550    5.1760    5.4670 C.3       6 GLL5        0.0000 
     17 CA         -0.5260    5.9370    3.6400 C.3       4 GLP5        0.0000 
     18 CA         -1.0215    7.2970   10.1471 C.3       2 GLC5        0.0000 
     19 CA         -2.6290    6.0490    9.3570 C.3       6 GLL5        0.0000 
     20 CA          0.7040    7.6640   10.6770 C.3       4 GLP5        0.0000 
     21 CA         -4.1955    7.3480    8.6321 C.3       2 GLC5        0.0000 
     22 CA         -5.6440    7.7660    7.6470 C.3       4 GLP5        0.0000 
     23 CA         -5.0192    6.2831    6.6523 C.3       2 GLC5        0.0000 
     24 CA         -3.0810    4.5250    6.3330 C.3       6 GLL5        0.0000 
     25 CA         -1.8302    6.7469   11.9974 C.3       2 GLC5        0.0000 
     26 CA         -3.1440    5.3640   10.4680 C.3       6 GLL5        0.0000 
     27 CA         -0.2760    7.4090   12.9890 C.3       4 GLP5        0.0000 
     28 CA         -5.1193    6.4299   10.3064 C.3       2 GLC5        0.0000 
     29 CA         -3.6170    7.5050   11.5330 C.3       6 GLL5        0.0000 
     30 CA         -6.8540    6.7750    9.6070 C.3       4 GLP5        0.0000 
     31 CA         -1.3250    2.6703   11.0200 C.3       2 GLC5        0.0000 
     32 CA         -3.1640    3.9040   10.5110 C.3       6 GLL5        0.0000 
     33 CA          0.4030    1.9120   12.0390 C.3       4 GLP5        0.0000 
@<TRIPOS>BOND
@<TRIPOS>SUBSTRUCTURE
     1 ALC1        1 GROUP        1 X    ALC  0     ROOT ALC X 1
     2 GLC5        7 GROUP        1 X    GLC  0     **** GLC X 6
     3 ALP1        3 GROUP        1 Y    ALP  0     ROOT ALP Y 8
     4 GLP5        9 GROUP        1 Y    GLP  0     **** GLP Y 13
     5 ALL1        2 GROUP        1 Z    ALL  0     ROOT ALL Z 15
     6 GLL5        8 GROUP        1 Z    GLL  0     **** GLL Z 20
@<TRIPOS>SET

