#    Name: 4j93_1JR_2_ligand
#    Modification time : Tue Mar 25 05:36:00 2014

@<TRIPOS>MOLECULE
4j93_1JR_2_ligand
   33    36     1     0     0
SMALL
NO_CHARGES


@<TRIPOS>ATOM
      1 C1         -3.1110    8.1750   10.4200 C.ar      1 1JR202      0.0000 
      2 C2         -3.6170    7.5050   11.5330 C.ar      1 1JR202      0.0000 
      3 C3         -2.6190    7.4470    9.3350 C.ar      1 1JR202      0.0000 
      4 C4         -3.9550    5.1760    5.4670 C.ar      1 1JR202      0.0000 
      5 C5         -3.6330    6.1060   11.5540 C.ar      1 1JR202      0.0000 
      6 C6         -2.6290    6.0490    9.3570 C.ar      1 1JR202      0.0000 
      7 C7         -3.0810    4.5250    6.3330 C.ar      1 1JR202      0.0000 
      8 C8         -5.2710    4.7500    5.4150 C.ar      1 1JR202      0.0000 
      9 C9         -4.8840    3.1180    6.9870 C.ar      1 1JR202      0.0000 
     10 C10        -3.1440    5.3640   10.4680 C.ar      1 1JR202      0.0000 
     11 C11        -3.5430    3.4730    7.1350 C.ar      1 1JR202      0.0000 
     12 C12        -2.9420    2.9530    9.4910 C.2       1 1JR202      0.0000 
     13 C13        -3.1640    3.9040   10.5110 C.2       1 1JR202      0.0000 
     14 C14        -3.0790    1.7350   10.1030 C.2       1 1JR202      0.0000 
     15 C15        -2.8870    0.6500    9.2130 C.2       1 1JR202      0.0000 
     16 C16        -2.6010    2.7510    8.0580 C.3       1 1JR202      0.0000 
     17 N17        -5.7590    3.7350    6.1580 N.ar      1 1JR202      0.0000 
     18 N18        -3.4260    3.2700   11.6800 N.pl3     1 1JR202      0.0000 
     19 N19        -3.3710    1.9470   11.3960 N.2       1 1JR202      0.0000 
     20 N20        -2.7510    1.2810    7.9760 N.am      1 1JR202      0.0000 
     21 O21        -2.8730   -0.5450    9.4450 O.2       1 1JR202      0.0000 
     22 H          -3.0998    9.2004   10.3974 H         1 1JR202      0.0000 
     23 H          -3.9765    8.0332   12.3341 H         1 1JR202      0.0000 
     24 H          -2.2463    7.9418    8.5131 H         1 1JR202      0.0000 
     25 H          -3.6303    5.9473    4.8867 H         1 1JR202      0.0000 
     26 H          -4.0086    5.6123   12.3773 H         1 1JR202      0.0000 
     27 H          -2.2589    5.5201    8.5590 H         1 1JR202      0.0000 
     28 H          -2.0972    4.8125    6.3871 H         1 1JR202      0.0000 
     29 H          -5.9217    5.2599    4.7484 H         1 1JR202      0.0000 
     30 H          -5.2295    2.2987    7.5770 H         1 1JR202      0.0000 
     31 H          -1.5953    3.0136    7.8962 H         1 1JR202      0.0000 
     32 H          -3.6087    3.6685   12.5177 H         1 1JR202      0.0000 
     33 H          -2.7496    0.8330    7.1134 H         1 1JR202      0.0000 
@<TRIPOS>BOND
     1    2    1 ar   
     2    3    1 ar   
     3   22    1 1    
     4    5    2 ar   
     5   23    2 1    
     6    6    3 ar   
     7   24    3 1    
     8    7    4 ar   
     9    8    4 ar   
    10   25    4 1    
    11   10    5 ar   
    12   26    5 1    
    13   10    6 ar   
    14   27    6 1    
    15   11    7 ar   
    16   28    7 1    
    17   17    8 ar   
    18   29    8 1    
    19   11    9 ar   
    20   17    9 ar   
    21   30    9 1    
    22   13   10 1    
    23   16   11 1    
    24   13   12 2    
    25   14   12 1    
    26   16   12 1    
    27   18   13 1    
    28   15   14 1    
    29   19   14 2    
    30   20   15 am   
    31   21   15 2    
    32   20   16 1    
    33   31   16 1    
    34   19   18 1    
    35   32   18 1    
    36   33   20 1    
@<TRIPOS>SUBSTRUCTURE
     1 1JR202      1 GROUP   
@<TRIPOS>SET

