#    Name: 3MZC_1_CAVITY_N1_ALL.mol2
#    Modification time : Tue Mar 11 15:14:40 2014

@<TRIPOS>MOLECULE
3MZC_1_CAVITY_N1_ALL.mol2
   86     0     6     0     0
SMALL
NO_CHARGES


@<TRIPOS>ATOM
      1 CA         -1.6074    7.0623   14.2871 C.3       5 GLY6        0.0000 
      2 CA         -0.2947    5.6806   13.3556 C.3       5 GLY6        0.0000 
      3 DU         -1.3898    6.5888   12.8805 H         6 CUB7        0.0000 
      4 N          -0.0771    5.2071   11.9490 N.2       2 ALA2        0.0000 
      5 DU         -1.1723    6.1153   11.4739 H         6 CUB7        0.0000 
      6 CZ          1.2356    3.8254   11.0175 C.ar      4 PHE5        0.0000 
      7 CA          1.4531    3.3519    9.6109 C.3       5 GLY6        0.0000 
      8 CZ         -3.9217    7.3481   15.4325 C.ar      4 PHE5        0.0000 
      9 CA         -2.6090    5.9664   14.5010 C.3       5 GLY6        0.0000 
     10 CZ         -3.7042    6.8746   14.0259 C.ar      4 PHE5        0.0000 
     11 N          -1.2963    4.5847   13.5695 N.2       2 ALA2        0.0000 
     12 DU         -2.3915    5.4929   13.0944 H         6 CUB7        0.0000 
     13 DU         -3.4866    6.4012   12.6193 H         6 CUB7        0.0000 
     14 CZ         -5.6770    8.2177   11.6691 C.ar      4 PHE5        0.0000 
     15 N           0.0164    3.2030   12.6380 N.2       2 ALA2        0.0000 
     16 OG         -1.0788    4.1112   12.1629 O.2       1 SER1        0.0000 
     17 DU         -2.1739    5.0195   11.6878 H         6 CUB7        0.0000 
     18 DU         -3.2691    5.9277   11.2127 H         6 CUB7        0.0000 
     19 CZ          0.2339    2.7295   11.2314 C.ar      4 PHE5        0.0000 
     20 DU         -0.8612    3.6378   10.7563 H         6 CUB7        0.0000 
     21 DU         -1.9564    4.5460   10.2812 H         6 CUB7        0.0000 
     22 CA         -0.6437    3.1643    9.3497 C.3       5 GLY6        0.0000 
     23 CA         -4.9234    6.2522   15.6464 C.3       5 GLY6        0.0000 
     24 CA         -2.5155    3.9623   15.1900 C.3       5 GLY6        0.0000 
     25 CA         -3.6107    4.8705   14.7149 C.3       5 GLY6        0.0000 
     26 CZ         -4.7058    5.7788   14.2399 C.ar      4 PHE5        0.0000 
     27 CZ         -5.8010    6.6870   13.7648 C.ar      4 PHE5        0.0000 
     28 OG         -2.2980    3.4888   13.7834 O.2       1 SER1        0.0000 
     29 DU         -3.3931    4.3971   13.3084 H         6 CUB7        0.0000 
     30 O          -4.4883    5.3053   12.8333 O.2       2 ALA2        0.0000 
     31 O          -5.5834    6.2136   12.3582 O.2       2 ALA2        0.0000 
     32 O          -6.6786    7.1218   11.8831 O.2       2 ALA2        0.0000 
     33 OG         -2.0804    3.0154   12.3769 O.2       1 SER1        0.0000 
     34 DU         -3.1756    3.9236   11.9018 H         6 CUB7        0.0000 
     35 O          -4.2707    4.8319   11.4267 O.2       2 ALA2        0.0000 
     36 O          -5.3659    5.7401   10.9516 O.2       2 ALA2        0.0000 
     37 OG         -0.7677    1.6337   11.4454 O.2       1 SER1        0.0000 
     38 OG         -1.8629    2.5419   10.9703 O.2       1 SER1        0.0000 
     39 O          -2.9580    3.4502   10.4952 O.2       2 ALA2        0.0000 
     40 O          -4.0532    4.3584   10.0201 O.2       2 ALA2        0.0000 
     41 O          -5.1483    5.2666    9.5450 O.2       2 ALA2        0.0000 
     42 O          -1.6453    2.0684    9.5637 O.2       2 ALA2        0.0000 
     43 CA         -5.9250    5.1564   15.8604 C.3       5 GLY6        0.0000 
     44 CA         -7.0202    6.0646   15.3853 C.3       5 GLY6        0.0000 
     45 OG         -2.4220    1.9582   15.8791 O.2       1 SER1        0.0000 
     46 OG         -3.5172    2.8664   15.4040 O.2       1 SER1        0.0000 
     47 CA         -4.6123    3.7747   14.9289 C.3       5 GLY6        0.0000 
     48 O          -5.7075    4.6829   14.4538 O.2       2 ALA2        0.0000 
     49 O          -6.8026    5.5912   13.9787 O.2       2 ALA2        0.0000 
     50 OG         -3.2996    2.3930   13.9974 O.2       1 SER1        0.0000 
     51 DU         -4.3948    3.3012   13.5223 H         6 CUB7        0.0000 
     52 O          -5.4899    4.2094   13.0472 O.2       2 ALA2        0.0000 
     53 OG         -3.0821    1.9195   12.5908 O.2       1 SER1        0.0000 
     54 O          -4.1772    2.8277   12.1157 O.2       2 ALA2        0.0000 
     55 O          -5.2724    3.7360   11.6406 O.2       2 ALA2        0.0000 
     56 OG         -1.7694    0.5378   11.6593 O.2       1 SER1        0.0000 
     57 O          -2.8645    1.4460   11.1842 O.2       2 ALA2        0.0000 
     58 O          -3.9597    2.3543   10.7091 O.2       2 ALA2        0.0000 
     59 O          -2.6470    0.9726    9.7776 O.2       2 ALA2        0.0000 
     60 CA         -4.7364    2.2440   17.0245 C.3       5 GLY6        0.0000 
     61 CA         -5.8315    3.1522   16.5494 C.3       5 GLY6        0.0000 
     62 CA         -6.9267    4.0605   16.0743 C.3       5 GLY6        0.0000 
     63 OD1        -3.4237    0.8623   16.0930 O.3       3 ASP3        0.0000 
     64 DU         -4.5188    1.7705   15.6179 H         6 CUB7        0.0000 
     65 DU         -5.6140    2.6788   15.1428 H         6 CUB7        0.0000 
     66 CA         -6.7091    3.5870   14.6677 C.3       5 GLY6        0.0000 
     67 CA         -3.2061    0.3888   14.6864 C.3       5 GLY6        0.0000 
     68 N          -4.3013    1.2971   14.2113 N.2       2 ALA2        0.0000 
     69 N          -5.3964    2.2053   13.7362 N.2       2 ALA2        0.0000 
     70 N          -4.0837    0.8236   12.8047 N.2       2 ALA2        0.0000 
     71 O          -5.1789    1.7319   12.3297 O.2       2 ALA2        0.0000 
     72 CA         -2.7710   -0.5581   11.8733 C.3       5 GLY6        0.0000 
     73 DU         -3.8662    0.3502   11.3982 H         6 CUB7        0.0000 
     74 N          -4.9613    1.2584   10.9231 N.2       2 ALA2        0.0000 
     75 CA         -2.5535   -1.0315   10.4667 C.3       5 GLY6        0.0000 
     76 O          -3.6486   -0.1233    9.9916 O.2       2 ALA2        0.0000 
     77 O          -4.7438    0.7850    9.5165 O.2       2 ALA2        0.0000 
     78 OD1        -5.7380    1.1481   17.2385 O.3       3 ASP3        0.0000 
     79 CA         -6.8332    2.0564   16.7634 C.3       5 GLY6        0.0000 
     80 OD1        -5.5205    0.6747   15.8319 O.3       3 ASP3        0.0000 
     81 N          -6.6156    1.5829   15.3568 N.2       2 ALA2        0.0000 
     82 CA         -3.9902   -1.1805   13.4938 C.3       5 GLY6        0.0000 
     83 N          -5.0854   -0.2722   13.0187 N.2       2 ALA2        0.0000 
     84 CA         -3.7727   -1.6539   12.0872 C.3       5 GLY6        0.0000 
     85 CA         -4.8678   -0.7457   11.6121 C.3       5 GLY6        0.0000 
     86 CA         -5.9630    0.1626   11.1370 C.3       5 GLY6        0.0000 
@<TRIPOS>BOND
@<TRIPOS>SUBSTRUCTURE
     1 SER1       16 GROUP   
     2 ALA2        4 GROUP   
     3 ASP3       63 GROUP   
     4 PHE5        6 GROUP   
     5 GLY6        1 GROUP   
     6 CUB7        3 GROUP   
@<TRIPOS>SET

