#    Name: 3mzc_S6I_1_INTS_M
#    Modification time : Tue Mar 25 00:20:08 2014

@<TRIPOS>MOLECULE
3mzc_S6I_1_INTS_M
   39     0    12     0     0
SMALL
NO_CHARGES


@<TRIPOS>ATOM
      1 O          -4.4600   -1.2500   16.8605 O.2       1 ALC1        0.0000 
      2 O          -5.3850   -0.4900   16.1470 O.2       9 ALL1        0.0000 
      3 O          -3.5350   -2.0100   17.5740 O.2       5 ALP1        0.0000 
      4 Zn         -6.0505   -1.0230   15.7085 Zn        3 ZIC7        0.0000 
      5 Zn         -5.3850   -0.4900   16.1470 Zn       11 ZIL7        0.0000 
      6 Zn         -6.7160   -1.5560   15.2700 Zn        7 ZIP7        0.0000 
      7 CA         -7.7870    3.3330   15.1325 C.3       4 GLC5        0.0000 
      8 CA         -5.7650    3.3080   15.3320 C.3      12 GLL5        0.0000 
      9 CA         -9.8090    3.3580   14.9330 C.3       8 GLP5        0.0000 
     10 N          -3.9920    0.7140   18.5975 N.am      2 SEC2        0.0000 
     11 N          -5.3530    1.1050   18.1370 N.am     10 SEL2        0.0000 
     12 N          -2.6310    0.3230   19.0580 N.am      6 SEP2        0.0000 
     13 CA         -1.5190    1.5630   14.7810 C.3       4 GLC5        0.0000 
     14 CA         -3.0900    3.1030   14.8080 C.3      12 GLL5        0.0000 
     15 CA          0.0520    0.0230   14.7540 C.3       8 GLP5        0.0000 
     16 CA         -2.3845    0.6090   14.9850 C.3       4 GLC5        0.0000 
     17 CA         -3.7020    2.1450   15.5090 C.3      12 GLL5        0.0000 
     18 CA         -1.0670   -0.9270   14.4610 C.3       8 GLP5        0.0000 
     19 CA         -3.2390    9.6535   15.9290 C.3       4 GLC5        0.0000 
     20 CA         -2.1230    9.0870   14.2700 C.3      12 GLL5        0.0000 
     21 CA         -4.3550   10.2200   17.5880 C.3       8 GLP5        0.0000 
     22 CA         -1.5640   10.4460   16.2305 C.3       4 GLC5        0.0000 
     23 CA         -0.7180    9.1120   14.7700 C.3      12 GLL5        0.0000 
     24 CA         -2.4100   11.7800   17.6910 C.3       8 GLP5        0.0000 
     25 CA          0.6395    8.0945   15.6815 C.3       4 GLC5        0.0000 
     26 CA          1.9970    7.0770   16.5930 C.3       8 GLP5        0.0000 
     27 CA         -0.2055    9.2735   16.8815 C.3       4 GLC5        0.0000 
     28 CA          0.3070    9.4350   18.9930 C.3       8 GLP5        0.0000 
     29 CA          0.8685    7.4945   14.6165 C.3       4 GLC5        0.0000 
     30 CA          0.1500    9.0570   13.5390 C.3      12 GLL5        0.0000 
     31 CA          1.5870    5.9320   15.6940 C.3       8 GLP5        0.0000 
     32 CA         -4.7990    3.8840   16.9802 C.3       4 GLC5        0.0000 
     33 CA         -4.1810    5.0000   18.3960 C.3       8 GLP5        0.0000 
     34 CA         -4.3160    4.6167   16.4383 C.3       4 GLC5        0.0000 
     35 CA         -5.1270    4.2980   14.6120 C.3      12 GLL5        0.0000 
     36 CA         -2.7795    3.0855   17.0008 C.3       4 GLC5        0.0000 
     37 CA         -2.1630    3.5470   18.8430 C.3       8 GLP5        0.0000 
     38 CA         -3.8768    9.3092   13.8163 C.3       4 GLC5        0.0000 
     39 CA         -5.6390    9.7960   14.0500 C.3       8 GLP5        0.0000 
@<TRIPOS>BOND
@<TRIPOS>SUBSTRUCTURE
     1 ALC1        1 GROUP        1 X    ALC  0     ROOT ALC X 1
     2 SEC2       10 GROUP        1 X    SEC  0     **** SEC X 2
     3 ZIC7        4 GROUP        1 X    ZIC  0     **** ZIC X 5
     4 GLC5        7 GROUP        1 X    GLC  0     **** GLC X 6
     5 ALP1        3 GROUP        1 Y    ALP  0     ROOT ALP Y 8
     6 SEP2       12 GROUP        1 Y    SEP  0     **** SEP Y 9
     7 ZIP7        6 GROUP        1 Y    ZIP  0     **** ZIP Y 12
     8 GLP5        9 GROUP        1 Y    GLP  0     **** GLP Y 13
     9 ALL1        2 GROUP        1 Z    ALL  0     ROOT ALL Z 15
    10 SEL2       11 GROUP        1 Z    SEL  0     **** SEL Z 16
    11 ZIL7        5 GROUP        1 Z    ZIL  0     **** ZIL Z 19
    12 GLL5        8 GROUP        1 Z    GLL  0     **** GLL Z 20
@<TRIPOS>SET

