#    Name: 3mzc_S6I_1_ligand
#    Modification time : Tue Mar 25 00:20:08 2014

@<TRIPOS>MOLECULE
3mzc_S6I_1_ligand
   35    36     1     0     0
SMALL
NO_CHARGES


@<TRIPOS>ATOM
      1 C1         -5.0690    2.2280   15.7970 C.ar      1 S6I263      0.0000 
      2 N1         -5.3850   -0.4900   16.1470 N.pl3     1 S6I263      0.0000 
      3 O1         -7.3100    1.1610   16.6550 O.2       1 S6I263      0.0000 
      4 S1         -5.8620    0.9760   16.7700 S.o2      1 S6I263      0.0000 
      5 C2         -5.7650    3.3080   15.3320 C.ar      1 S6I263      0.0000 
      6 O2         -5.3530    1.1050   18.1370 O.2       1 S6I263      0.0000 
      7 C3         -5.1270    4.2980   14.6120 C.ar      1 S6I263      0.0000 
      8 C4         -3.7750    4.1690   14.3490 C.ar      1 S6I263      0.0000 
      9 C5         -3.0900    3.1030   14.8080 C.ar      1 S6I263      0.0000 
     10 C6         -3.7020    2.1450   15.5090 C.ar      1 S6I263      0.0000 
     11 N7         -2.9260    5.1230   13.6770 N.am      1 S6I263      0.0000 
     12 C8         -3.2450    6.4550   13.3690 C.2       1 S6I263      0.0000 
     13 O8         -4.3040    6.9340   13.6480 O.2       1 S6I263      0.0000 
     14 N9         -2.0960    7.2070   12.9610 N.am      1 S6I263      0.0000 
     15 C10        -2.1060    8.5580   12.8950 C.3       1 S6I263      0.0000 
     16 C11        -2.1230    9.0870   14.2700 C.3       1 S6I263      0.0000 
     17 C12        -0.7180    9.1120   14.7700 C.3       1 S6I263      0.0000 
     18 C13         0.1500    9.0570   13.5390 C.3       1 S6I263      0.0000 
     19 C14        -0.7970    9.0040   12.3390 C.3       1 S6I263      0.0000 
     20 H          -4.5529   -0.8841   16.5372 H         1 S6I263      0.0000 
     21 H          -6.7829    3.3905   15.5186 H         1 S6I263      0.0000 
     22 H          -5.6450    5.1153   14.2773 H         1 S6I263      0.0000 
     23 H          -2.0611    3.0296   14.6089 H         1 S6I263      0.0000 
     24 H          -3.1795    1.3136   15.8586 H         1 S6I263      0.0000 
     25 H          -1.9635    4.7664   13.3920 H         1 S6I263      0.0000 
     26 H          -1.2402    6.6637   12.7136 H         1 S6I263      0.0000 
     27 H          -2.8850    8.9786   12.3370 H         1 S6I263      0.0000 
     28 H          -2.7261    8.4498   14.9116 H         1 S6I263      0.0000 
     29 H          -2.5311   10.0944   14.2813 H         1 S6I263      0.0000 
     30 H          -0.5264    8.2535   15.3855 H         1 S6I263      0.0000 
     31 H          -0.5291   10.0237   15.3045 H         1 S6I263      0.0000 
     32 H           0.7551    8.1705   13.5520 H         1 S6I263      0.0000 
     33 H           0.7557    9.9408   13.4734 H         1 S6I263      0.0000 
     34 H          -0.8800    9.9826   11.9150 H         1 S6I263      0.0000 
     35 H          -0.4253    8.2937   11.6308 H         1 S6I263      0.0000 
@<TRIPOS>BOND
     1    4    1 1    
     2    5    1 ar   
     3   10    1 ar   
     4    4    2 1    
     5   20    2 1    
     6    4    3 2    
     7    6    4 2    
     8    7    5 ar   
     9   21    5 1    
    10    8    7 ar   
    11   22    7 1    
    12    9    8 ar   
    13   11    8 1    
    14   10    9 ar   
    15   23    9 1    
    16   24   10 1    
    17   12   11 am   
    18   25   11 1    
    19   13   12 2    
    20   14   12 am   
    21   15   14 1    
    22   26   14 1    
    23   16   15 1    
    24   19   15 1    
    25   27   15 1    
    26   17   16 1    
    27   28   16 1    
    28   29   16 1    
    29   18   17 1    
    30   30   17 1    
    31   31   17 1    
    32   19   18 1    
    33   32   18 1    
    34   33   18 1    
    35   34   19 1    
    36   35   19 1    
@<TRIPOS>SUBSTRUCTURE
     1 S6I263      1 GROUP   
@<TRIPOS>SET

