#    Name: 4igf_CHV_1_INTS_M
#    Modification time : Tue Mar 25 03:55:48 2014

@<TRIPOS>MOLECULE
4igf_CHV_1_INTS_M
   55     0     9     0     0
SMALL
NO_CHARGES


@<TRIPOS>ATOM
      1 CA         49.3755   90.5195   34.9785 C.3       3 GLC5        0.0000 
      2 CA         51.3000   90.9320   35.0030 C.3       9 GLL5        0.0000 
      3 CA         47.4510   90.1070   34.9540 C.3       6 GLP5        0.0000 
      4 N          48.1950   91.1760   33.3020 N.am      2 SEC2        0.0000 
      5 N          48.8630   92.3040   33.0490 N.am      8 SEL2        0.0000 
      6 N          47.5270   90.0480   33.5550 N.am      5 SEP2        0.0000 
      7 O          48.7805   92.3430   31.7755 O.2       1 ALC1        0.0000 
      8 O          48.8630   92.3040   33.0490 O.2       7 ALL1        0.0000 
      9 O          48.6980   92.3820   30.5020 O.2       4 ALP1        0.0000 
     10 CA         47.2760   94.5745   32.2990 C.3       3 GLC5        0.0000 
     11 CA         49.0990   94.6380   33.4810 C.3       9 GLL5        0.0000 
     12 CA         45.4530   94.5110   31.1170 C.3       6 GLP5        0.0000 
     13 CA         48.1590   97.9250   32.5805 C.3       3 GLC5        0.0000 
     14 CA         49.3100   97.3020   33.8410 C.3       9 GLL5        0.0000 
     15 CA         47.0080   98.5480   31.3200 C.3       6 GLP5        0.0000 
     16 CA         48.6675   98.6550   35.3710 C.3       3 GLC5        0.0000 
     17 CA         48.0250  100.0080   36.9010 C.3       6 GLP5        0.0000 
     18 CA         51.0105   97.6330   33.3395 C.3       3 GLC5        0.0000 
     19 CA         52.7110   97.9640   32.8380 C.3       6 GLP5        0.0000 
     20 CA         47.8385   96.1535   34.6125 C.3       3 GLC5        0.0000 
     21 CA         46.3670   95.0050   35.3840 C.3       6 GLP5        0.0000 
     22 CA         51.6065   88.5710   33.7715 C.3       3 GLC5        0.0000 
     23 CA         53.5110   89.4410   34.3650 C.3       9 GLL5        0.0000 
     24 CA         49.7020   87.7010   33.1780 C.3       6 GLP5        0.0000 
     25 CA         56.6190   90.4415   31.7960 C.3       3 GLC5        0.0000 
     26 CA         55.4350   89.0100   33.0270 C.3       9 GLL5        0.0000 
     27 CA         57.8030   91.8730   30.5650 C.3       6 GLP5        0.0000 
     28 N          55.7655   87.4765   31.5190 N.am      2 SEC2        0.0000 
     29 N          56.5590   88.2770   32.7800 N.am      8 SEL2        0.0000 
     30 N          54.9720   86.6760   30.2580 N.am      5 SEP2        0.0000 
     31 O          56.9850   88.1970   31.3175 O.2       1 ALC1        0.0000 
     32 O          56.5590   88.2770   32.7800 O.2       7 ALL1        0.0000 
     33 O          57.4110   88.1170   29.8550 O.2       4 ALP1        0.0000 
     34 CA         55.0320   89.1110   30.2715 C.3       3 GLC5        0.0000 
     35 CA         55.1180   90.0940   32.2250 C.3       9 GLL5        0.0000 
     36 CA         54.9460   88.1280   28.3180 C.3       6 GLP5        0.0000 
     37 CA         55.9295   90.9360   30.8600 C.3       3 GLC5        0.0000 
     38 CA         56.7410   91.7780   29.4950 C.3       6 GLP5        0.0000 
     39 CA         54.8320   91.8410   31.1010 C.3       3 GLC5        0.0000 
     40 CA         53.9960   90.8500   32.4990 C.3       9 GLL5        0.0000 
     41 CA         55.6680   92.8320   29.7030 C.3       6 GLP5        0.0000 
     42 CA         53.0925   90.5505   30.6465 C.3       3 GLC5        0.0000 
     43 CA         52.1890   90.2510   28.7940 C.3       6 GLP5        0.0000 
     44 CA         50.6782   89.4072   33.8240 C.3       3 GLC5        0.0000 
     45 CA         52.0090   91.2950   33.9370 C.3       9 GLL5        0.0000 
     46 CA         48.6168   91.6398   34.6498 C.3       3 GLC5        0.0000 
     47 CA         50.2000   93.0270   34.8870 C.3       9 GLL5        0.0000 
     48 CA         50.3110   97.3355   35.5348 C.3       3 GLC5        0.0000 
     49 CA         49.7120   95.6440   34.1960 C.3       9 GLL5        0.0000 
     50 CA         51.1110   98.1980   37.0510 C.3       6 GLP5        0.0000 
     51 CA         50.9183   96.4545   36.2178 C.3       3 GLC5        0.0000 
     52 CA         50.6060   95.3690   35.2070 C.3       9 GLL5        0.0000 
     53 CA         54.3042   87.2095   32.7227 C.3       3 GLC5        0.0000 
     54 CA         54.6280   88.6720   34.1040 C.3       9 GLL5        0.0000 
     55 CA         53.5770   85.5780   31.8800 C.3       6 GLP5        0.0000 
@<TRIPOS>BOND
@<TRIPOS>SUBSTRUCTURE
     1 ALC1        7 GROUP        1 X    ALC  0     ROOT ALC X 1
     2 SEC2        4 GROUP        1 X    SEC  0     **** SEC X 2
     3 GLC5        1 GROUP        1 X    GLC  0     **** GLC X 6
     4 ALP1        9 GROUP        1 Y    ALP  0     ROOT ALP Y 8
     5 SEP2        6 GROUP        1 Y    SEP  0     **** SEP Y 9
     6 GLP5        3 GROUP        1 Y    GLP  0     **** GLP Y 13
     7 ALL1        8 GROUP        1 Z    ALL  0     ROOT ALL Z 15
     8 SEL2        5 GROUP        1 Z    SEL  0     **** SEL Z 16
     9 GLL5        2 GROUP        1 Z    GLL  0     **** GLL Z 20
@<TRIPOS>SET

