#    Name: 4igf_CHV_1_ligand
#    Modification time : Tue Mar 25 03:55:48 2014

@<TRIPOS>MOLECULE
4igf_CHV_1_ligand
   30    32     1     0     0
SMALL
NO_CHARGES


@<TRIPOS>ATOM
      1 C1         51.6160   89.7700   35.8310 C.2       1 CHV501      0.0000 
      2 O11        51.0120   89.3380   36.7830 O.2       1 CHV501      0.0000 
      3 C2         51.3000   90.9320   35.0030 C.2       1 CHV501      0.0000 
      4 O13        50.2390   91.7180   35.4000 O.3       1 CHV501      0.0000 
      5 C14        50.2000   93.0270   34.8870 C.ar      1 CHV501      0.0000 
      6 C15        49.3650   93.3180   33.8040 C.ar      1 CHV501      0.0000 
      7 O20        48.8630   92.3040   33.0490 O.3       1 CHV501      0.0000 
      8 C16        49.0990   94.6380   33.4810 C.ar      1 CHV501      0.0000 
      9 C17        49.7120   95.6440   34.1960 C.ar      1 CHV501      0.0000 
     10 CL1        49.3100   97.3020   33.8410 Cl        1 CHV501      0.0000 
     11 C18        50.6060   95.3690   35.2070 C.ar      1 CHV501      0.0000 
     12 C19        50.8450   94.0530   35.5620 C.ar      1 CHV501      0.0000 
     13 C3         52.0090   91.2950   33.9370 C.2       1 CHV501      0.0000 
     14 C4         53.1690   90.5430   33.5790 C.ar      1 CHV501      0.0000 
     15 C5         53.5110   89.4410   34.3650 C.ar      1 CHV501      0.0000 
     16 O6         52.7430   89.0730   35.4560 O.3       1 CHV501      0.0000 
     17 C7         54.6280   88.6720   34.1040 C.ar      1 CHV501      0.0000 
     18 C8         55.4350   89.0100   33.0270 C.ar      1 CHV501      0.0000 
     19 O12        56.5590   88.2770   32.7800 O.3       1 CHV501      0.0000 
     20 C9         55.1180   90.0940   32.2250 C.ar      1 CHV501      0.0000 
     21 C10        53.9960   90.8500   32.4990 C.ar      1 CHV501      0.0000 
     22 H          48.4516   94.8617   32.7165 H         1 CHV501      0.0000 
     23 H          51.0921   96.1312   35.6946 H         1 CHV501      0.0000 
     24 H          51.4998   93.8343   36.3252 H         1 CHV501      0.0000 
     25 H          51.7610   92.1012   33.3488 H         1 CHV501      0.0000 
     26 H          54.8586   87.8682   34.6914 H         1 CHV501      0.0000 
     27 H          55.7211   90.3343   31.4244 H         1 CHV501      0.0000 
     28 H          53.7594   91.6594   31.8965 H         1 CHV501      0.0000 
     29 H          49.0824   92.5510   32.1052 H         1 CHV501      0.0000 
     30 H          56.9549   88.6806   31.9551 H         1 CHV501      0.0000 
@<TRIPOS>BOND
     1    2    1 2    
     2    3    1 1    
     3   16    1 1    
     4    4    3 1    
     5   13    3 2    
     6    5    4 1    
     7    6    5 ar   
     8   12    5 ar   
     9    7    6 1    
    10    8    6 ar   
    11   29    7 1    
    12    9    8 ar   
    13   22    8 1    
    14   10    9 1    
    15   11    9 ar   
    16   12   11 ar   
    17   23   11 1    
    18   24   12 1    
    19   14   13 1    
    20   25   13 1    
    21   15   14 ar   
    22   21   14 ar   
    23   16   15 1    
    24   17   15 ar   
    25   18   17 ar   
    26   26   17 1    
    27   19   18 1    
    28   20   18 ar   
    29   30   19 1    
    30   21   20 ar   
    31   27   20 1    
    32   28   21 1    
@<TRIPOS>SUBSTRUCTURE
     1 CHV501      1 GROUP   
@<TRIPOS>SET

