#    Name: 3mdv_CL6_1_INTS_M
#    Modification time : Mon Mar 24 23:03:08 2014

@<TRIPOS>MOLECULE
3mdv_CL6_1_INTS_M
   56     0     3     0     0
SMALL
NO_CHARGES


@<TRIPOS>ATOM
      1 CA         30.9000    4.0565   28.7365 C.3       1 GLC5        0.0000 
      2 CA         29.5350    3.4660   29.3380 C.3       3 GLL5        0.0000 
      3 CA         32.2650    4.6470   28.1350 C.3       2 GLP5        0.0000 
      4 CA         29.1855    5.1140   29.4315 C.3       1 GLC5        0.0000 
      5 CA         28.8360    6.7620   29.5250 C.3       2 GLP5        0.0000 
      6 CA         29.3055    4.3500   27.4940 C.3       1 GLC5        0.0000 
      7 CA         29.0760    5.2340   25.6500 C.3       2 GLP5        0.0000 
      8 CA         32.3640    3.0985   34.1695 C.3       1 GLC5        0.0000 
      9 CA         32.3960    1.6080   32.7540 C.3       3 GLL5        0.0000 
     10 CA         32.3320    4.5890   35.5850 C.3       2 GLP5        0.0000 
     11 CA         26.1690    3.2123   30.4398 C.3       1 GLC5        0.0000 
     12 CA         28.4310    2.4320   30.1870 C.3       3 GLL5        0.0000 
     13 CA         24.4960    4.1540   31.0210 C.3       2 GLP5        0.0000 
     14 CA         25.7320    1.9278   28.4333 C.3       1 GLC5        0.0000 
     15 CA         27.2530    2.1090   29.5300 C.3       3 GLL5        0.0000 
     16 CA         24.6860    2.1620   27.0390 C.3       2 GLP5        0.0000 
     17 CA         25.4610    2.5930   30.8923 C.3       1 GLC5        0.0000 
     18 CA         26.3030    1.2780   30.1250 C.3       3 GLL5        0.0000 
     19 CA         24.7375    0.1435   30.5252 C.3       1 GLC5        0.0000 
     20 CA         23.0490   -0.7450   30.2870 C.3       2 GLP5        0.0000 
     21 CA         27.6672    0.9071   28.2904 C.3       1 GLC5        0.0000 
     22 CA         28.2620    0.0400   26.5890 C.3       2 GLP5        0.0000 
     23 CA         26.6850   -0.5348   33.0983 C.3       1 GLC5        0.0000 
     24 CA         26.5490    0.7860   31.4020 C.3       3 GLL5        0.0000 
     25 CA         26.2270   -2.0150   34.4700 C.3       2 GLP5        0.0000 
     26 CA         27.2608   -0.6192   30.9636 C.3       1 GLC5        0.0000 
     27 CA         27.7370    1.1050   32.0510 C.3       3 GLL5        0.0000 
     28 CA         27.4400   -2.3070   30.5200 C.3       2 GLP5        0.0000 
     29 CA         31.3783    4.2945   34.0295 C.3       1 GLC5        0.0000 
     30 CA         29.8460    3.6240   32.5870 C.3       3 GLL5        0.0000 
     31 CA         32.4087    4.7343   31.2447 C.3       1 GLC5        0.0000 
     32 CA         31.0030    4.3760   32.3610 C.3       3 GLL5        0.0000 
     33 CA         33.8020    4.4000   30.0660 C.3       2 GLP5        0.0000 
     34 CA         30.3695    7.9610   31.9647 C.3       1 GLC5        0.0000 
     35 CA         31.0280    5.7610   32.4860 C.3       3 GLL5        0.0000 
     36 CA         30.2920    9.8220   31.2600 C.3       2 GLP5        0.0000 
     37 CA         31.0890    6.0130   34.3148 C.3       1 GLC5        0.0000 
     38 CA         29.8660    6.4390   32.8530 C.3       3 GLL5        0.0000 
     39 CA         31.7310    5.9260   35.9600 C.3       2 GLP5        0.0000 
     40 CA         28.7895    7.2675   34.5670 C.3       1 GLC5        0.0000 
     41 CA         28.2980    8.4580   36.1730 C.3       2 GLP5        0.0000 
     42 CA         29.5263    5.3580   34.8033 C.3       1 GLC5        0.0000 
     43 CA         28.6960    5.7150   33.0690 C.3       3 GLL5        0.0000 
     44 CA         30.3580    5.6950   36.6000 C.3       2 GLP5        0.0000 
     45 CA         27.4563    4.5140   34.6663 C.3       1 GLC5        0.0000 
     46 CA         26.2180    4.0070   36.3260 C.3       2 GLP5        0.0000 
     47 CA         27.9990   -0.9235   34.6485 C.3       1 GLC5        0.0000 
     48 CA         29.5590    0.0970   35.4850 C.3       3 GLL5        0.0000 
     49 CA         30.1085   -1.7875   34.8050 C.3       1 GLC5        0.0000 
     50 CA         30.4460   -3.7430   34.7830 C.3       2 GLP5        0.0000 
     51 CA         32.8130    2.9963   31.2062 C.3       1 GLC5        0.0000 
     52 CA         31.2520    1.5770   31.9390 C.3       3 GLL5        0.0000 
     53 CA         33.7525    2.6380   30.8677 C.3       1 GLC5        0.0000 
     54 CA         33.6320    1.1390   32.3110 C.3       3 GLL5        0.0000 
     55 CA         32.9222    2.6040   30.2445 C.3       1 GLC5        0.0000 
     56 CA         32.6610    0.5710   30.1970 C.3       3 GLL5        0.0000 
@<TRIPOS>BOND
@<TRIPOS>SUBSTRUCTURE
     1 GLC5        1 GROUP        1 X    GLC  0     ROOT GLC X 6
     2 GLP5        3 GROUP        1 Y    GLP  0     ROOT GLP Y 13
     3 GLL5        2 GROUP        1 Z    GLL  0     ROOT GLL Z 20
@<TRIPOS>SET

