#    Name: 3mdv_CL6_1_ligand
#    Modification time : Mon Mar 24 23:03:08 2014

@<TRIPOS>MOLECULE
3mdv_CL6_1_ligand
   42    45     1     0     0
SMALL
NO_CHARGES


@<TRIPOS>ATOM
      1 CLAY       29.5350    3.4660   29.3380 Cl        1 CL6506      0.0000 
      2 CAX        28.4310    2.4320   30.1870 C.ar      1 CL6506      0.0000 
      3 CAV        27.2530    2.1090   29.5300 C.ar      1 CL6506      0.0000 
      4 CAT        26.3030    1.2780   30.1250 C.ar      1 CL6506      0.0000 
      5 CAS        26.5490    0.7860   31.4020 C.ar      1 CL6506      0.0000 
      6 CAU        27.7370    1.1050   32.0510 C.ar      1 CL6506      0.0000 
      7 CAW        28.7070    1.9240   31.4740 C.ar      1 CL6506      0.0000 
      8 CAR        29.8920    2.1040   32.4340 C.3       1 CL6506      0.0000 
      9 CAC        29.8460    3.6240   32.5870 C.ar      1 CL6506      0.0000 
     10 CAE        31.0030    4.3760   32.3610 C.ar      1 CL6506      0.0000 
     11 CAF        31.0280    5.7610   32.4860 C.ar      1 CL6506      0.0000 
     12 CAD        29.8660    6.4390   32.8530 C.ar      1 CL6506      0.0000 
     13 CAB        28.6960    5.7150   33.0690 C.ar      1 CL6506      0.0000 
     14 CAA        28.6930    4.3270   32.9440 C.ar      1 CL6506      0.0000 
     15 NAO        29.6510    1.4980   33.7690 N.pl3     1 CL6506      0.0000 
     16 CAM        29.0340    2.1040   34.8140 C.2       1 CL6506      0.0000 
     17 NAN        28.9760    1.2610   35.8590 N.2       1 CL6506      0.0000 
     18 CAQ        29.5590    0.0970   35.4850 C.2       1 CL6506      0.0000 
     19 CAP        29.9830    0.2390   34.1690 C.2       1 CL6506      0.0000 
     20 CAL        31.2520    1.5770   31.9390 C.ar      1 CL6506      0.0000 
     21 CAK        32.3960    1.6080   32.7540 C.ar      1 CL6506      0.0000 
     22 CAI        33.6320    1.1390   32.3110 C.ar      1 CL6506      0.0000 
     23 CAG        33.7740    0.6130   31.0280 C.ar      1 CL6506      0.0000 
     24 CAH        32.6610    0.5710   30.1970 C.ar      1 CL6506      0.0000 
     25 CAJ        31.4240    1.0450   30.6490 C.ar      1 CL6506      0.0000 
     26 H          27.0724    2.4882   28.5840 H         1 CL6506      0.0000 
     27 H          25.4449    1.0373   29.6306 H         1 CL6506      0.0000 
     28 H          25.8542    0.1876   31.8657 H         1 CL6506      0.0000 
     29 H          27.9105    0.7178   33.0055 H         1 CL6506      0.0000 
     30 H          31.8784    3.8767   32.0886 H         1 CL6506      0.0000 
     31 H          31.8929    6.2808   32.3101 H         1 CL6506      0.0000 
     32 H          29.8736    7.4549   32.9619 H         1 CL6506      0.0000 
     33 H          27.8278    6.2078   33.3226 H         1 CL6506      0.0000 
     34 H          27.8153    3.8028   33.1198 H         1 CL6506      0.0000 
     35 H          28.6873    3.0143   34.8017 H         1 CL6506      0.0000 
     36 H          29.6687   -0.6885   36.0128 H         1 CL6506      0.0000 
     37 H          30.4217   -0.4284   33.6575 H         1 CL6506      0.0000 
     38 H          32.3137    1.9933   33.7160 H         1 CL6506      0.0000 
     39 H          34.4494    1.1817   32.9390 H         1 CL6506      0.0000 
     40 H          34.6769    0.2666   30.7076 H         1 CL6506      0.0000 
     41 H          32.7420    0.1906   29.2443 H         1 CL6506      0.0000 
     42 H          30.6036    1.0034   30.0117 H         1 CL6506      0.0000 
@<TRIPOS>BOND
     1    2    1 1    
     2    3    2 ar   
     3    7    2 ar   
     4    4    3 ar   
     5   26    3 1    
     6    5    4 ar   
     7   27    4 1    
     8    6    5 ar   
     9   28    5 1    
    10    7    6 ar   
    11   29    6 1    
    12    8    7 1    
    13    9    8 1    
    14   15    8 1    
    15   20    8 1    
    16   10    9 ar   
    17   14    9 ar   
    18   11   10 ar   
    19   30   10 1    
    20   12   11 ar   
    21   31   11 1    
    22   13   12 ar   
    23   32   12 1    
    24   14   13 ar   
    25   33   13 1    
    26   34   14 1    
    27   16   15 1    
    28   19   15 1    
    29   17   16 2    
    30   35   16 1    
    31   18   17 1    
    32   19   18 2    
    33   36   18 1    
    34   37   19 1    
    35   21   20 ar   
    36   25   20 ar   
    37   22   21 ar   
    38   38   21 1    
    39   23   22 ar   
    40   39   22 1    
    41   24   23 ar   
    42   40   23 1    
    43   25   24 ar   
    44   41   24 1    
    45   42   25 1    
@<TRIPOS>SUBSTRUCTURE
     1 CL6506      1 GROUP   
@<TRIPOS>SET

