#    Name: 4ic7_ANP_2_INTS_M
#    Modification time : Tue Mar 25 03:42:01 2014

@<TRIPOS>MOLECULE
4ic7_ANP_2_INTS_M
   61     0    15     0     0
SMALL
NO_CHARGES


@<TRIPOS>ATOM
      1 NZ         -9.9660    1.3615  -24.4520 N.4       4 LYC4        0.0000 
      2 NZ         -9.2610    2.8730  -25.4050 N.4      14 LYL4        0.0000 
      3 NZ        -10.6710   -0.1500  -23.4990 N.4       9 LYP4        0.0000 
      4 NZ        -12.6415    3.5750  -21.4320 N.4       4 LYC4        0.0000 
      5 NZ        -11.7880    3.7040  -22.5090 N.4      14 LYL4        0.0000 
      6 NZ        -13.4950    3.4460  -20.3550 N.4       9 LYP4        0.0000 
      7 N         -12.6415    3.5750  -21.4320 N.am      2 SEC2        0.0000 
      8 N         -11.7880    3.7040  -22.5090 N.am     12 SEL2        0.0000 
      9 N         -13.4950    3.4460  -20.3550 N.am      7 SEP2        0.0000 
     10 NZ        -11.2710    1.9555  -24.5830 N.4       4 LYC4        0.0000 
     11 NZ        -12.4670    3.0410  -25.0720 N.4      14 LYL4        0.0000 
     12 N         -11.2710    1.9555  -24.5830 N.am      2 SEC2        0.0000 
     13 N         -12.4670    3.0410  -25.0720 N.am     12 SEL2        0.0000 
     14 N         -10.0750    0.8700  -24.0940 N.am      7 SEP2        0.0000 
     15 OD1        -9.1885    4.2790  -23.2960 O.co2     3 ASC3        0.0000 
     16 OD1       -10.4690    4.8960  -24.2580 O.co2    13 ASL3        0.0000 
     17 OD1        -7.9080    3.6620  -22.3340 O.co2     8 ASP3        0.0000 
     18 OD1        -9.1920    5.2640  -23.7920 O.co2     3 ASC3        0.0000 
     19 OD1        -7.9150    5.6320  -23.3260 O.co2     8 ASP3        0.0000 
     20 NZ        -12.9025    4.5770  -20.9115 N.4       4 LYC4        0.0000 
     21 NZ        -12.3100    5.7080  -21.4680 N.4      14 LYL4        0.0000 
     22 N         -12.9025    4.5770  -20.9115 N.am      2 SEC2        0.0000 
     23 N         -12.3100    5.7080  -21.4680 N.am     12 SEL2        0.0000 
     24 CA        -14.4635    9.0845  -25.4660 C.3       5 GLC5        0.0000 
     25 CA        -13.2510    8.5400  -23.7550 C.3      15 GLL5        0.0000 
     26 CA        -15.6760    9.6290  -27.1770 C.3      10 GLP5        0.0000 
     27 CA        -13.2425    7.6605  -25.7510 C.3       5 GLC5        0.0000 
     28 CA        -13.2340    6.7810  -27.7470 C.3      10 GLP5        0.0000 
     29 CA        -14.0465   11.3245  -24.3310 C.3       5 GLC5        0.0000 
     30 CA        -12.6310    9.8370  -23.5510 C.3      15 GLL5        0.0000 
     31 CA        -15.4620   12.8120  -25.1110 C.3      10 GLP5        0.0000 
     32 CA        -14.0890   12.1130  -23.5300 C.3       5 GLC5        0.0000 
     33 CA        -12.7160   11.4140  -21.9490 C.3      15 GLL5        0.0000 
     34 CA        -14.3925   10.3110  -21.8290 C.3       5 GLC5        0.0000 
     35 CA        -16.0690    9.2080  -21.7090 C.3      10 GLP5        0.0000 
     36 CA        -15.5480   11.6925  -16.5615 C.3       5 GLC5        0.0000 
     37 CA        -13.7710   11.5580  -17.2150 C.3      15 GLL5        0.0000 
     38 CA        -17.3250   11.8270  -15.9080 C.3      10 GLP5        0.0000 
     39 O         -14.1115   11.5465  -14.9135 O.2       1 ALC1        0.0000 
     40 O         -13.8590   10.7450  -16.0450 O.2      11 ALL1        0.0000 
     41 O         -14.3640   12.3480  -13.7820 O.2       6 ALP1        0.0000 
     42 N         -13.7745   14.1045  -16.1185 N.am      2 SEC2        0.0000 
     43 N         -14.0350   12.8570  -17.1490 N.am     12 SEL2        0.0000 
     44 N         -13.5140   15.3520  -15.0880 N.am      7 SEP2        0.0000 
     45 CA        -15.7955   13.8385  -18.9780 C.3       5 GLC5        0.0000 
     46 CA        -13.9430   13.5950  -18.2540 C.3      15 GLL5        0.0000 
     47 CA        -17.6480   14.0820  -19.7020 C.3      10 GLP5        0.0000 
     48 CA        -15.6340   12.7110  -17.0810 C.3       5 GLC5        0.0000 
     49 CA        -15.5920   14.4645  -17.1630 C.3       5 GLC5        0.0000 
     50 CA        -17.2410   15.3340  -16.0720 C.3      10 GLP5        0.0000 
     51 CA        -13.1475   14.8575  -16.8720 C.3       5 GLC5        0.0000 
     52 CA        -12.3520   16.1200  -15.4900 C.3      10 GLP5        0.0000 
     53 CA        -14.5050    9.1982  -22.6810 C.3       5 GLC5        0.0000 
     54 CA        -10.7140   11.9778  -20.7505 C.3       5 GLC5        0.0000 
     55 CA         -9.4010   12.7100  -19.3940 C.3      10 GLP5        0.0000 
     56 CA        -15.3253   10.7735  -19.3792 C.3       5 GLC5        0.0000 
     57 CA        -13.3210   11.7910  -19.5550 C.3      15 GLL5        0.0000 
     58 CA        -17.2860   10.1560  -19.7650 C.3      10 GLP5        0.0000 
     59 CA        -11.7191   11.4664  -18.0171 C.3       5 GLC5        0.0000 
     60 CA        -13.4080   10.9910  -18.4320 C.3      15 GLL5        0.0000 
     61 CA         -9.9830   11.4000  -17.3450 C.3      10 GLP5        0.0000 
@<TRIPOS>BOND
@<TRIPOS>SUBSTRUCTURE
     1 ALC1       39 GROUP        1 X    ALC  0     ROOT ALC X 1
     2 SEC2        7 GROUP        1 X    SEC  0     **** SEC X 2
     3 ASC3       15 GROUP        1 X    ASC  0     **** ASC X 3
     4 LYC4        1 GROUP        1 X    LYC  0     **** LYC X 4
     5 GLC5       24 GROUP        1 X    GLC  0     **** GLC X 6
     6 ALP1       41 GROUP        1 Y    ALP  0     ROOT ALP Y 8
     7 SEP2        9 GROUP        1 Y    SEP  0     **** SEP Y 9
     8 ASP3       17 GROUP        1 Y    ASP  0     **** ASP Y 10
     9 LYP4        3 GROUP        1 Y    LYP  0     **** LYP Y 11
    10 GLP5       26 GROUP        1 Y    GLP  0     **** GLP Y 13
    11 ALL1       40 GROUP        1 Z    ALL  0     ROOT ALL Z 15
    12 SEL2        8 GROUP        1 Z    SEL  0     **** SEL Z 16
    13 ASL3       16 GROUP        1 Z    ASL  0     **** ASL Z 17
    14 LYL4        2 GROUP        1 Z    LYL  0     **** LYL Z 18
    15 GLL5       25 GROUP        1 Z    GLL  0     **** GLL Z 20
@<TRIPOS>SET

