#    Name: 4ic7_ANP_2_ligand
#    Modification time : Tue Mar 25 03:42:01 2014

@<TRIPOS>MOLECULE
4ic7_ANP_2_ligand
   43    45     1     0     0
SMALL
NO_CHARGES


@<TRIPOS>ATOM
      1 PG         -9.7550    4.2680  -25.6020 P.3       1 ANP501      0.0000 
      2 O1G        -9.2610    2.8730  -25.4050 O.co2     1 ANP501      0.0000 
      3 O2G       -10.8460    4.3020  -26.7120 O.co2     1 ANP501      0.0000 
      4 O3G        -8.5310    5.2030  -26.0370 O.co2     1 ANP501      0.0000 
      5 PB        -12.0190    4.1240  -24.0230 P.3       1 ANP501      0.0000 
      6 O1B       -11.7880    3.7040  -22.5090 O.co2     1 ANP501      0.0000 
      7 O2B       -12.4670    3.0410  -25.0720 O.co2     1 ANP501      0.0000 
      8 N3B       -10.4690    4.8960  -24.2580 N.4       1 ANP501      0.0000 
      9 PA        -12.2900    6.4270  -22.7630 P.3       1 ANP501      0.0000 
     10 O1A       -10.8470    6.8010  -23.1190 O.co2     1 ANP501      0.0000 
     11 O2A       -12.3100    5.7080  -21.4680 O.co2     1 ANP501      0.0000 
     12 O3A       -12.8870    5.3900  -23.7420 O.3       1 ANP501      0.0000 
     13 O5'       -13.2370    7.6500  -22.6780 O.3       1 ANP501      0.0000 
     14 C5'       -13.2510    8.5400  -23.7550 C.3       1 ANP501      0.0000 
     15 C4'       -12.6310    9.8370  -23.5510 C.3       1 ANP501      0.0000 
     16 O4'       -13.4900   10.6390  -22.8460 O.3       1 ANP501      0.0000 
     17 C3'       -11.4950    9.7340  -22.6420 C.3       1 ANP501      0.0000 
     18 O3'       -10.3590    9.2430  -23.2200 O.3       1 ANP501      0.0000 
     19 C2'       -11.3380   11.0770  -22.2650 C.3       1 ANP501      0.0000 
     20 O2'       -10.8610   11.8610  -23.2820 O.3       1 ANP501      0.0000 
     21 C1'       -12.7160   11.4140  -21.9490 C.3       1 ANP501      0.0000 
     22 N9        -12.9600   10.9860  -20.5650 N.pl3     1 ANP501      0.0000 
     23 C8        -12.8010    9.7420  -20.1030 C.2       1 ANP501      0.0000 
     24 N7        -13.0860    9.7440  -18.8140 N.2       1 ANP501      0.0000 
     25 C5        -13.4080   10.9910  -18.4320 C.ar      1 ANP501      0.0000 
     26 C6        -13.7710   11.5580  -17.2150 C.ar      1 ANP501      0.0000 
     27 N6        -13.8590   10.7450  -16.0450 N.pl3     1 ANP501      0.0000 
     28 N1        -14.0350   12.8570  -17.1490 N.ar      1 ANP501      0.0000 
     29 C2        -13.9430   13.5950  -18.2540 C.ar      1 ANP501      0.0000 
     30 N3        -13.5960   13.1000  -19.4520 N.ar      1 ANP501      0.0000 
     31 C4        -13.3210   11.7910  -19.5550 C.ar      1 ANP501      0.0000 
     32 H         -14.3200    8.7116  -24.1095 H         1 ANP501      0.0000 
     33 H         -12.7705    8.0589  -24.6691 H         1 ANP501      0.0000 
     34 H         -12.3247   10.2760  -24.4603 H         1 ANP501      0.0000 
     35 H         -11.8199    9.1668  -21.7750 H         1 ANP501      0.0000 
     36 H         -10.7678   11.1375  -21.3590 H         1 ANP501      0.0000 
     37 H         -12.8765   12.4447  -22.0646 H         1 ANP501      0.0000 
     38 H         -12.5234    8.9755  -20.6321 H         1 ANP501      0.0000 
     39 H         -13.6644    9.7721  -16.1696 H         1 ANP501      0.0000 
     40 H         -14.1079   11.2167  -15.1991 H         1 ANP501      0.0000 
     41 H         -14.1571   14.6422  -18.1869 H         1 ANP501      0.0000 
     42 H         -10.6402    8.3896  -23.6589 H         1 ANP501      0.0000 
     43 H         -10.3413   11.2382  -23.8668 H         1 ANP501      0.0000 
@<TRIPOS>BOND
     1    2    1 ar   
     2    3    1 ar   
     3    4    1 ar   
     4    8    1 1    
     5    6    5 ar   
     6    7    5 ar   
     7    8    5 1    
     8   12    5 1    
     9   10    9 ar   
    10   11    9 ar   
    11   12    9 1    
    12   13    9 1    
    13   14   13 1    
    14   15   14 1    
    15   32   14 1    
    16   33   14 1    
    17   16   15 1    
    18   17   15 1    
    19   34   15 1    
    20   21   16 1    
    21   18   17 1    
    22   19   17 1    
    23   35   17 1    
    24   42   18 1    
    25   20   19 1    
    26   21   19 1    
    27   36   19 1    
    28   43   20 1    
    29   22   21 1    
    30   37   21 1    
    31   23   22 1    
    32   31   22 1    
    33   24   23 2    
    34   38   23 1    
    35   25   24 1    
    36   26   25 ar   
    37   31   25 ar   
    38   27   26 1    
    39   28   26 ar   
    40   39   27 1    
    41   40   27 1    
    42   29   28 ar   
    43   30   29 ar   
    44   41   29 1    
    45   31   30 ar   
@<TRIPOS>SUBSTRUCTURE
     1 ANP501      1 GROUP   
@<TRIPOS>SET

