#    Name: 2h00_SAH_1_INTS_M
#    Modification time : Tue Mar 25 15:17:48 2014

@<TRIPOS>MOLECULE
2h00_SAH_1_INTS_M
   75     0    12     0     0
SMALL
NO_CHARGES


@<TRIPOS>ATOM
      1 O          89.4425   -3.1780    1.7940 O.2       1 ALC1        0.0000 
      2 O          89.0440   -1.9210    1.3030 O.2       9 ALL1        0.0000 
      3 O          89.8410   -4.4350    2.2850 O.2       5 ALP1        0.0000 
      4 O          89.4960   -0.9580    2.2660 O.2       1 ALC1        0.0000 
      5 O          89.9480    0.0050    3.2290 O.2       5 ALP1        0.0000 
      6 CA         89.6140    0.6105    0.5570 C.3       4 GLC5        0.0000 
      7 CA         89.7450   -1.5710    0.0310 C.3      12 GLL5        0.0000 
      8 CA         89.4830    2.7920    1.0830 C.3       8 GLP5        0.0000 
      9 CA         86.9775   -3.2100   -0.6185 C.3       4 GLC5        0.0000 
     10 CA         88.8850   -3.7170   -1.1450 C.3      12 GLL5        0.0000 
     11 CA         85.0700   -2.7030   -0.0920 C.3       8 GLP5        0.0000 
     12 CA         88.9410   -3.6025   -3.4960 C.3       4 GLC5        0.0000 
     13 CA         89.2100   -5.0380   -2.3500 C.3      12 GLL5        0.0000 
     14 CA         88.6720   -2.1670   -4.6420 C.3       8 GLP5        0.0000 
     15 NZ         87.4485    0.3205   -1.9885 N.4       3 LYC4        0.0000 
     16 NZ         87.6730   -0.3700   -0.5500 N.4      11 LYL4        0.0000 
     17 NZ         86.4800    1.9190   -2.7870 N.4       7 LYP4        0.0000 
     18 N          87.1515    0.8705   -1.0020 N.am      2 SEC2        0.0000 
     19 N          87.6730   -0.3700   -0.5500 N.am     10 SEL2        0.0000 
     20 N          86.6300    2.1110   -1.4540 N.am      6 SEP2        0.0000 
     21 N          87.4485    0.3205   -1.9885 N.am      2 SEC2        0.0000 
     22 N          87.2240    1.0110   -3.4270 N.am      6 SEP2        0.0000 
     23 N          86.6645   -1.0690   -1.4105 N.am      2 SEC2        0.0000 
     24 N          85.6560   -1.7680   -2.2710 N.am      6 SEP2        0.0000 
     25 NZ         88.3265    0.5010   -2.5905 N.4       3 LYC4        0.0000 
     26 NZ         89.4290   -0.0090   -1.7540 N.4      11 LYL4        0.0000 
     27 N          88.3265    0.5010   -2.5905 N.am      2 SEC2        0.0000 
     28 N          89.4290   -0.0090   -1.7540 N.am     10 SEL2        0.0000 
     29 CA         88.0000   -7.7705   -2.1080 C.3       4 GLC5        0.0000 
     30 CA         89.0950   -6.3790   -1.1240 C.3      12 GLL5        0.0000 
     31 CA         86.9050   -9.1620   -3.0920 C.3       8 GLP5        0.0000 
     32 CA         90.3510   -6.6250    1.4690 C.3       4 GLC5        0.0000 
     33 CA         90.4130   -6.7300   -0.3690 C.3      12 GLL5        0.0000 
     34 CA         90.2890   -6.5200    3.3070 C.3       8 GLP5        0.0000 
     35 O          93.1340   -6.3240    0.1720 O.2       1 ALC1        0.0000 
     36 O          92.7670   -6.4370   -1.0470 O.2       9 ALL1        0.0000 
     37 O          93.5010   -6.2110    1.3910 O.2       5 ALP1        0.0000 
     38 CA         89.9705   -9.3600   -1.7000 C.3       4 GLC5        0.0000 
     39 CA         91.8800   -8.6700   -0.7550 C.3      12 GLL5        0.0000 
     40 CA         88.0610  -10.0500   -2.6450 C.3       8 GLP5        0.0000 
     41 O          93.3880   -7.5460    0.3215 O.2       1 ALC1        0.0000 
     42 O          93.2750   -8.8810   -0.7480 O.2       9 ALL1        0.0000 
     43 O          93.9885   -8.4395    0.3390 O.2       1 ALC1        0.0000 
     44 O          94.7020   -7.9980    1.4260 O.2       5 ALP1        0.0000 
     45 CA         90.7805   -7.5695    1.9725 C.3       4 GLC5        0.0000 
     46 CA         91.2720   -8.6190    0.6380 C.3      12 GLL5        0.0000 
     47 CA         92.5710  -10.4055    0.9575 C.3       4 GLC5        0.0000 
     48 CA         93.8700  -12.1920    1.2770 C.3       8 GLP5        0.0000 
     49 CA         88.4835  -12.6555    4.7580 C.3       4 GLC5        0.0000 
     50 CA         90.2220  -12.1400    3.9220 C.3      12 GLL5        0.0000 
     51 CA         86.7450  -13.1710    5.5940 C.3       8 GLP5        0.0000 
     52 O          89.7810  -14.0585    5.3410 O.2       1 ALC1        0.0000 
     53 O          89.7530  -13.3790    4.1010 O.2       9 ALL1        0.0000 
     54 O          89.8090  -14.7380    6.5810 O.2       5 ALP1        0.0000 
     55 CA         89.2295   -9.5960    5.2770 C.3       4 GLC5        0.0000 
     56 CA         91.1730  -10.1390    4.8580 C.3      12 GLL5        0.0000 
     57 CA         87.2860   -9.0530    5.6960 C.3       8 GLP5        0.0000 
     58 CA         90.7310   -8.3295    4.0825 C.3       4 GLC5        0.0000 
     59 CA         91.7035   -9.1650    6.5890 C.3       4 GLC5        0.0000 
     60 CA         92.2340   -8.1910    8.3200 C.3       8 GLP5        0.0000 
     61 CA         92.9025   -9.1155    4.7195 C.3       4 GLC5        0.0000 
     62 CA         94.6320   -8.0920    4.5810 C.3       8 GLP5        0.0000 
     63 CA         92.4330  -11.5390    4.2770 C.3       4 GLC5        0.0000 
     64 CA         93.6930  -12.9390    3.6960 C.3       8 GLP5        0.0000 
     65 CA         92.3080  -11.2375    6.1030 C.3       4 GLC5        0.0000 
     66 CA         93.4430  -12.3360    7.3480 C.3       8 GLP5        0.0000 
     67 CA         90.5645   -8.3800    2.9190 C.3       4 GLC5        0.0000 
     68 CA         90.8400  -10.2400    2.5310 C.3      12 GLL5        0.0000 
     69 CA         92.3550  -11.2160    1.9040 C.3       4 GLC5        0.0000 
     70 CA         91.7343   -2.4790    0.0395 C.3       4 GLC5        0.0000 
     71 CA         90.0940   -2.8870   -0.7470 C.3      12 GLL5        0.0000 
     72 CA         93.5490   -2.7290    0.4370 C.3       8 GLP5        0.0000 
     73 CA         89.0807   -2.7345   -2.7940 C.3       4 GLC5        0.0000 
     74 CA         91.9850  -12.3902    3.4910 C.3       4 GLC5        0.0000 
     75 CA         90.3320  -11.5430    2.6500 C.3      12 GLL5        0.0000 
@<TRIPOS>BOND
@<TRIPOS>SUBSTRUCTURE
     1 ALC1        1 GROUP        1 X    ALC  0     ROOT ALC X 1
     2 SEC2       18 GROUP        1 X    SEC  0     **** SEC X 2
     3 LYC4       15 GROUP        1 X    LYC  0     **** LYC X 4
     4 GLC5        6 GROUP        1 X    GLC  0     **** GLC X 6
     5 ALP1        3 GROUP        1 Y    ALP  0     ROOT ALP Y 8
     6 SEP2       20 GROUP        1 Y    SEP  0     **** SEP Y 9
     7 LYP4       17 GROUP        1 Y    LYP  0     **** LYP Y 11
     8 GLP5        8 GROUP        1 Y    GLP  0     **** GLP Y 13
     9 ALL1        2 GROUP        1 Z    ALL  0     ROOT ALL Z 15
    10 SEL2       19 GROUP        1 Z    SEL  0     **** SEL Z 16
    11 LYL4       16 GROUP        1 Z    LYL  0     **** LYL Z 18
    12 GLL5        7 GROUP        1 Z    GLL  0     **** GLL Z 20
@<TRIPOS>SET

