#    Name: 2h00_SAH_1_ligand
#    Modification time : Tue Mar 25 15:17:48 2014

@<TRIPOS>MOLECULE
2h00_SAH_1_ligand
   46    48     1     0     0
SMALL
NO_CHARGES


@<TRIPOS>ATOM
      1 N          89.0440   -1.9210    1.3030 N.4       1 SAH300      0.0000 
      2 CA         89.7450   -1.5710    0.0310 C.3       1 SAH300      0.0000 
      3 CB         90.0940   -2.8870   -0.7470 C.3       1 SAH300      0.0000 
      4 CG         88.8850   -3.7170   -1.1450 C.3       1 SAH300      0.0000 
      5 SD         89.2100   -5.0380   -2.3500 S.3       1 SAH300      0.0000 
      6 C          88.8920   -0.6030   -0.7950 C.2       1 SAH300      0.0000 
      7 O          87.6730   -0.3700   -0.5500 O.co2     1 SAH300      0.0000 
      8 OXT        89.4290   -0.0090   -1.7540 O.co2     1 SAH300      0.0000 
      9 C5'        89.0950   -6.3790   -1.1240 C.3       1 SAH300      0.0000 
     10 C4'        90.4130   -6.7300   -0.3690 C.3       1 SAH300      0.0000 
     11 O4'        90.1250   -7.8160    0.4790 O.3       1 SAH300      0.0000 
     12 C3'        91.5980   -7.2530   -1.2070 C.3       1 SAH300      0.0000 
     13 O3'        92.7670   -6.4370   -1.0470 O.3       1 SAH300      0.0000 
     14 C2'        91.8800   -8.6700   -0.7550 C.3       1 SAH300      0.0000 
     15 O2'        93.2750   -8.8810   -0.7480 O.3       1 SAH300      0.0000 
     16 C1'        91.2720   -8.6190    0.6380 C.3       1 SAH300      0.0000 
     17 N9         90.8290   -9.9060    1.1830 N.pl3     1 SAH300      0.0000 
     18 C8         90.3270  -11.0040    0.4990 C.2       1 SAH300      0.0000 
     19 N7         90.0210  -11.9850    1.4060 N.2       1 SAH300      0.0000 
     20 C5         90.3320  -11.5430    2.6500 C.ar      1 SAH300      0.0000 
     21 C6         90.2220  -12.1400    3.9220 C.ar      1 SAH300      0.0000 
     22 N6         89.7530  -13.3790    4.1010 N.pl3     1 SAH300      0.0000 
     23 N1         90.6480  -11.4160    4.9900 N.ar      1 SAH300      0.0000 
     24 C2         91.1730  -10.1390    4.8580 C.ar      1 SAH300      0.0000 
     25 N3         91.2500   -9.5510    3.6240 N.ar      1 SAH300      0.0000 
     26 C4         90.8400  -10.2400    2.5310 C.ar      1 SAH300      0.0000 
     27 H          90.6868   -1.0817    0.2740 H         1 SAH300      0.0000 
     28 H          90.7631   -3.4865   -0.1113 H         1 SAH300      0.0000 
     29 H          90.6636   -2.6058   -1.6457 H         1 SAH300      0.0000 
     30 H          88.1106   -3.1423   -1.6441 H         1 SAH300      0.0000 
     31 H          88.4475   -4.2688   -0.3184 H         1 SAH300      0.0000 
     32 H          88.7216   -7.2058   -1.7156 H         1 SAH300      0.0000 
     33 H          88.3172   -6.0229   -0.4597 H         1 SAH300      0.0000 
     34 H          90.7347   -5.8880    0.2013 H         1 SAH300      0.0000 
     35 H          91.2740   -7.2911   -2.2370 H         1 SAH300      0.0000 
     36 H          91.3207   -9.3206   -1.3493 H         1 SAH300      0.0000 
     37 H          91.9672   -8.1366    1.2959 H         1 SAH300      0.0000 
     38 H          90.2165  -11.0578   -0.4492 H         1 SAH300      0.0000 
     39 H          89.7173  -13.7037    5.0461 H         1 SAH300      0.0000 
     40 H          89.4800  -13.8699    3.2737 H         1 SAH300      0.0000 
     41 H          91.5048   -9.6366    5.6982 H         1 SAH300      0.0000 
     42 H          89.2196   -1.2477    2.0212 H         1 SAH300      0.0000 
     43 H          88.0526   -1.9669    1.1803 H         1 SAH300      0.0000 
     44 H          89.3370   -2.8095    1.6562 H         1 SAH300      0.0000 
     45 H          93.2165   -6.7873   -0.2252 H         1 SAH300      0.0000 
     46 H          93.5925   -8.4828    0.1126 H         1 SAH300      0.0000 
@<TRIPOS>BOND
     1    2    1 1    
     2   42    1 1    
     3   43    1 1    
     4   44    1 1    
     5    3    2 1    
     6    6    2 1    
     7   27    2 1    
     8    4    3 1    
     9   28    3 1    
    10   29    3 1    
    11    5    4 1    
    12   30    4 1    
    13   31    4 1    
    14    9    5 1    
    15    7    6 ar   
    16    8    6 ar   
    17   10    9 1    
    18   32    9 1    
    19   33    9 1    
    20   11   10 1    
    21   12   10 1    
    22   34   10 1    
    23   16   11 1    
    24   13   12 1    
    25   14   12 1    
    26   35   12 1    
    27   45   13 1    
    28   15   14 1    
    29   16   14 1    
    30   36   14 1    
    31   46   15 1    
    32   17   16 1    
    33   37   16 1    
    34   18   17 1    
    35   26   17 1    
    36   19   18 2    
    37   38   18 1    
    38   20   19 1    
    39   21   20 ar   
    40   26   20 ar   
    41   22   21 1    
    42   23   21 ar   
    43   39   22 1    
    44   40   22 1    
    45   24   23 ar   
    46   25   24 ar   
    47   41   24 1    
    48   26   25 ar   
@<TRIPOS>SUBSTRUCTURE
     1 SAH300      1 GROUP   
@<TRIPOS>SET

