#    Name: 3kro_IPE_1_INTS_M
#    Modification time : Mon Mar 24 20:22:01 2014

@<TRIPOS>MOLECULE
3kro_IPE_1_INTS_M
   21     0     6     0     0
SMALL
NO_CHARGES


@<TRIPOS>ATOM
      1 CA         -5.7250   50.3500   21.5630 C.3       2 GLC5        0.0000 
      2 CA         -4.9940   48.6070   21.8800 C.3       6 GLL5        0.0000 
      3 CA         -6.4560   52.0930   21.2460 C.3       4 GLP5        0.0000 
      4 CA         -1.2280   48.1675   21.2930 C.3       2 GLC5        0.0000 
      5 CA         -2.6450   49.6720   21.9840 C.3       6 GLL5        0.0000 
      6 CA          0.1890   46.6630   20.6020 C.3       4 GLP5        0.0000 
      7 CA         -1.9425   48.1515   19.5720 C.3       2 GLC5        0.0000 
      8 CA         -2.4650   49.8360   20.4510 C.3       6 GLL5        0.0000 
      9 CA         -1.4200   46.4670   18.6930 C.3       4 GLP5        0.0000 
     10 CA         -3.3150   51.2950   21.0630 C.3       2 GLC5        0.0000 
     11 CA         -4.1650   52.7540   21.6750 C.3       4 GLP5        0.0000 
     12 CA         -0.9415   49.5545   24.5005 C.3       2 GLC5        0.0000 
     13 CA         -1.5590   50.1210   22.9140 C.3       6 GLL5        0.0000 
     14 CA         -0.3240   48.9880   26.0870 C.3       4 GLP5        0.0000 
     15 CA         -0.3630   51.0850   22.1555 C.3       2 GLC5        0.0000 
     16 CA          0.8330   52.0490   21.3970 C.3       4 GLP5        0.0000 
     17 N          -5.6785   44.1550   16.0510 N.am      1 SEC2        0.0000 
     18 N          -6.6150   44.9000   16.6600 N.am      5 SEL2        0.0000 
     19 N          -4.7420   43.4100   15.4420 N.am      3 SEP2        0.0000 
     20 CA         -0.8610   50.9015   21.3072 C.3       2 GLC5        0.0000 
     21 CA         -3.2715   51.2585   22.1365 C.3       2 GLC5        0.0000 
@<TRIPOS>BOND
@<TRIPOS>SUBSTRUCTURE
     1 SEC2       17 GROUP        1 X    SEC  0     ROOT SEC X 2
     2 GLC5        1 GROUP        1 X    GLC  0     **** GLC X 6
     3 SEP2       19 GROUP        1 Y    SEP  0     ROOT SEP Y 9
     4 GLP5        3 GROUP        1 Y    GLP  0     **** GLP Y 13
     5 SEL2       18 GROUP        1 Z    SEL  0     ROOT SEL Z 16
     6 GLL5        2 GROUP        1 Z    GLL  0     **** GLL Z 20
@<TRIPOS>SET

