#    Name: 3kro_IPE_1_ligand
#    Modification time : Mon Mar 24 20:22:01 2014

@<TRIPOS>MOLECULE
3kro_IPE_1_ligand
   21    20     1     0     0
SMALL
NO_CHARGES


@<TRIPOS>ATOM
      1 C1         -4.9940   48.6070   21.8800 C.3       1 IPE2003     0.0000 
      2 O1         -4.8730   47.4060   21.0700 O.3       1 IPE2003     0.0000 
      3 C2         -3.7490   49.1380   22.5800 C.3       1 IPE2003     0.0000 
      4 C3         -2.6450   49.6720   21.9840 C.2       1 IPE2003     0.0000 
      5 C4         -2.4650   49.8360   20.4510 C.3       1 IPE2003     0.0000 
      6 C5         -1.5590   50.1210   22.9140 C.2       1 IPE2003     0.0000 
      7 PA         -6.1020   46.8380   20.0890 P.3       1 IPE2003     0.0000 
      8 O1A        -7.2320   46.1860   20.9960 O.co2     1 IPE2003     0.0000 
      9 O2A        -6.3620   48.1220   19.2240 O.co2     1 IPE2003     0.0000 
     10 O3A        -5.9040   45.6610   19.0980 O.3       1 IPE2003     0.0000 
     11 PB         -7.0580   45.2690   18.1370 P.3       1 IPE2003     0.0000 
     12 O1B        -8.1170   46.3210   17.7830 O.co2     1 IPE2003     0.0000 
     13 O2B        -7.7200   44.0390   18.7560 O.co2     1 IPE2003     0.0000 
     14 O3B        -6.6150   44.9000   16.6600 O.co2     1 IPE2003     0.0000 
     15 H          -5.7861   48.4580   22.6739 H         1 IPE2003     0.0000 
     16 H          -5.4126   49.4523   21.2554 H         1 IPE2003     0.0000 
     17 H          -3.4345   48.2684   23.3154 H         1 IPE2003     0.0000 
     18 H          -4.1685   49.8791   23.3989 H         1 IPE2003     0.0000 
     19 H          -1.5840   50.2504   20.2227 H         1 IPE2003     0.0000 
     20 H          -2.5074   48.9571   19.9759 H         1 IPE2003     0.0000 
     21 H          -3.1744   50.4183   20.0539 H         1 IPE2003     0.0000 
@<TRIPOS>BOND
     1    2    1 1    
     2    3    1 1    
     3   15    1 1    
     4   16    1 1    
     5    7    2 1    
     6    4    3 1    
     7   17    3 1    
     8   18    3 1    
     9    5    4 1    
    10    6    4 2    
    11   19    5 1    
    12   20    5 1    
    13   21    5 1    
    14    8    7 ar   
    15    9    7 ar   
    16   10    7 1    
    17   11   10 1    
    18   12   11 ar   
    19   13   11 ar   
    20   14   11 ar   
@<TRIPOS>SUBSTRUCTURE
     1 IPE2003     1 GROUP   
@<TRIPOS>SET

