#    Name: 2acl_L05_2_INTS_M
#    Modification time : Mon Mar 24 18:59:13 2014

@<TRIPOS>MOLECULE
2acl_L05_2_INTS_M
   70     0     9     0     0
SMALL
NO_CHARGES


@<TRIPOS>ATOM
      1 CA         38.4345   81.0045   94.2870 C.3       3 GLC5        0.0000 
      2 CA         39.0670   79.9640   92.5460 C.3       9 GLL5        0.0000 
      3 CA         37.8020   82.0450   96.0280 C.3       6 GLP5        0.0000 
      4 CA         37.9720   78.6325   91.7930 C.3       3 GLC5        0.0000 
      5 CA         36.8770   77.3010   91.0400 C.3       6 GLP5        0.0000 
      6 N          40.7530   81.3655   91.6980 N.am      2 SEC2        0.0000 
      7 N          39.6520   80.2210   91.2600 N.am      8 SEL2        0.0000 
      8 N          41.8540   82.5100   92.1360 N.am      5 SEP2        0.0000 
      9 CA         42.6595   79.5930   92.7130 C.3       3 GLC5        0.0000 
     10 CA         41.7360   79.0740   91.1670 C.3       9 GLL5        0.0000 
     11 CA         43.5830   80.1120   94.2590 C.3       6 GLP5        0.0000 
     12 CA         43.7530   78.7095   91.9515 C.3       3 GLC5        0.0000 
     13 CA         42.5820   78.0610   90.6650 C.3       9 GLL5        0.0000 
     14 CA         44.9240   79.3580   93.2380 C.3       6 GLP5        0.0000 
     15 CA         43.7075   77.9900   89.0930 C.3       3 GLC5        0.0000 
     16 CA         42.1110   77.1280   89.6780 C.3       9 GLL5        0.0000 
     17 CA         45.3040   78.8520   88.5080 C.3       6 GLP5        0.0000 
     18 O          43.0870   76.7170   87.6050 O.2       1 ALC1        0.0000 
     19 O          42.9070   76.0830   89.1320 O.2       7 ALL1        0.0000 
     20 O          43.2670   77.3510   86.0780 O.2       4 ALP1        0.0000 
     21 CA         42.6185   74.3915   88.5430 C.3       3 GLC5        0.0000 
     22 CA         43.9730   75.3360   89.6540 C.3       9 GLL5        0.0000 
     23 CA         41.2640   73.4470   87.4320 C.3       6 GLP5        0.0000 
     24 CA         44.6385   77.0940   89.0810 C.3       3 GLC5        0.0000 
     25 CA         48.3040   75.1745   90.2785 C.3       3 GLC5        0.0000 
     26 CA         47.3480   73.7520   89.3030 C.3       9 GLL5        0.0000 
     27 CA         49.2600   76.5970   91.2540 C.3       6 GLP5        0.0000 
     28 CA         50.1125   71.0295   88.2610 C.3       3 GLC5        0.0000 
     29 CA         48.2590   71.3570   89.2140 C.3       9 GLL5        0.0000 
     30 CA         51.9660   70.7020   87.3080 C.3       6 GLP5        0.0000 
     31 CA         44.7550   70.4560   87.7245 C.3       3 GLC5        0.0000 
     32 CA         46.4780   70.6610   87.1120 C.3       9 GLL5        0.0000 
     33 CA         43.0320   70.2510   88.3370 C.3       6 GLP5        0.0000 
     34 CA         46.9865   73.5815   86.1970 C.3       3 GLC5        0.0000 
     35 CA         46.4570   71.9800   87.6510 C.3       9 GLL5        0.0000 
     36 CA         47.5160   75.1830   84.7430 C.3       6 GLP5        0.0000 
     37 CA         42.8280   77.2205   94.8170 C.3       3 GLC5        0.0000 
     38 CA         42.7510   75.2870   94.4010 C.3       9 GLL5        0.0000 
     39 CA         42.9050   79.1540   95.2330 C.3       6 GLP5        0.0000 
     40 CA         44.2865   77.3010   93.2710 C.3       3 GLC5        0.0000 
     41 CA         43.6490   75.2440   93.3040 C.3       9 GLL5        0.0000 
     42 CA         41.8753   80.9288   90.9727 C.3       3 GLC5        0.0000 
     43 CA         40.3930   79.1850   90.6960 C.3       9 GLL5        0.0000 
     44 CA         42.6860   82.7280   91.0140 C.3       6 GLP5        0.0000 
     45 CA         43.2635   79.3128   89.7205 C.3       3 GLC5        0.0000 
     46 CA         44.3680   80.0580   88.5250 C.3       6 GLP5        0.0000 
     47 CA         48.1500   69.6182   90.5412 C.3       3 GLC5        0.0000 
     48 CA         48.0300   68.5380   92.1380 C.3       6 GLP5        0.0000 
     49 CA         49.2963   73.2330   88.0671 C.3       3 GLC5        0.0000 
     50 CA         50.7890   74.2620   87.0230 C.3       6 GLP5        0.0000 
     51 CA         46.2122   69.9780   89.2092 C.3       3 GLC5        0.0000 
     52 CA         48.2810   70.0400   88.6750 C.3       9 GLL5        0.0000 
     53 CA         44.5880   70.0900   90.2680 C.3       6 GLP5        0.0000 
     54 CA         49.5063   69.1580   87.3932 C.3       3 GLC5        0.0000 
     55 CA         47.3920   69.6920   87.6260 C.3       9 GLL5        0.0000 
     56 CA         51.1760   68.4500   86.6360 C.3       6 GLP5        0.0000 
     57 CA         45.9955   68.8157   86.2650 C.3       3 GLC5        0.0000 
     58 CA         45.0560   67.4550   85.1610 C.3       6 GLP5        0.0000 
     59 CA         45.8591   71.0034   89.2877 C.3       3 GLC5        0.0000 
     60 CA         41.1930   72.7373   94.1480 C.3       3 GLC5        0.0000 
     61 CA         40.9420   74.4760   92.9470 C.3       9 GLL5        0.0000 
     62 CA         41.2130   70.7840   94.7110 C.3       6 GLP5        0.0000 
     63 CA         41.6313   74.4535   96.0760 C.3       3 GLC5        0.0000 
     64 CA         41.4040   74.9050   94.2230 C.3       9 GLL5        0.0000 
     65 CA         41.1850   73.8110   97.8400 C.3       6 GLP5        0.0000 
     66 CA         44.6780   75.4772   95.0967 C.3       3 GLC5        0.0000 
     67 CA         46.1560   75.6890   96.3410 C.3       6 GLP5        0.0000 
     68 CA         40.4357   78.7722   87.7883 C.3       3 GLC5        0.0000 
     69 CA         40.7720   77.2510   89.2200 C.3       9 GLL5        0.0000 
     70 CA         40.5300   79.7850   86.1080 C.3       6 GLP5        0.0000 
@<TRIPOS>BOND
@<TRIPOS>SUBSTRUCTURE
     1 ALC1       18 GROUP        1 X    ALC  0     ROOT ALC X 1
     2 SEC2        6 GROUP        1 X    SEC  0     **** SEC X 2
     3 GLC5        1 GROUP        1 X    GLC  0     **** GLC X 6
     4 ALP1       20 GROUP        1 Y    ALP  0     ROOT ALP Y 8
     5 SEP2        8 GROUP        1 Y    SEP  0     **** SEP Y 9
     6 GLP5        3 GROUP        1 Y    GLP  0     **** GLP Y 13
     7 ALL1       19 GROUP        1 Z    ALL  0     ROOT ALL Z 15
     8 SEL2        7 GROUP        1 Z    SEL  0     **** SEL Z 16
     9 GLL5        2 GROUP        1 Z    GLL  0     **** GLL Z 20
@<TRIPOS>SET

