#    Name: 2acl_L05_2_ligand
#    Modification time : Mon Mar 24 18:59:13 2014

@<TRIPOS>MOLECULE
2acl_L05_2_ligand
   49    52     1     0     0
SMALL
NO_CHARGES


@<TRIPOS>ATOM
      1 C1         39.0670   79.9640   92.5460 C.3       1 L05101      0.0000 
      2 O2         39.6520   80.2210   91.2600 O.3       1 L05101      0.0000 
      3 C3         40.3930   79.1850   90.6960 C.ar      1 L05101      0.0000 
      4 C4         41.7360   79.0740   91.1670 C.ar      1 L05101      0.0000 
      5 C5         42.5820   78.0610   90.6650 C.ar      1 L05101      0.0000 
      6 C6         42.1110   77.1280   89.6780 C.ar      1 L05101      0.0000 
      7 N7         42.9070   76.0830   89.1320 N.pl3     1 L05101      0.0000 
      8 C8         43.9730   75.3360   89.6540 C.2       1 L05101      0.0000 
      9 C9         44.1390   74.7710   90.8810 C.2       1 L05101      0.0000 
     10 C10        45.4560   74.0900   90.9020 C.2       1 L05101      0.0000 
     11 O11        45.9100   73.4850   91.8510 O.2       1 L05101      0.0000 
     12 N12        46.0280   74.2740   89.6820 N.am      1 L05101      0.0000 
     13 C13        47.3480   73.7520   89.3030 C.3       1 L05101      0.0000 
     14 C14        47.3480   72.3500   88.7140 C.ar      1 L05101      0.0000 
     15 C15        48.2590   71.3570   89.2140 C.ar      1 L05101      0.0000 
     16 C16        48.2810   70.0400   88.6750 C.ar      1 L05101      0.0000 
     17 C17        47.3920   69.6920   87.6260 C.ar      1 L05101      0.0000 
     18 C18        46.4780   70.6610   87.1120 C.ar      1 L05101      0.0000 
     19 C19        46.4570   71.9800   87.6510 C.ar      1 L05101      0.0000 
     20 C20        45.2190   75.0090   88.8670 C.2       1 L05101      0.0000 
     21 O21        45.4580   75.3380   87.7170 O.2       1 L05101      0.0000 
     22 C22        43.2020   74.8110   92.0140 C.ar      1 L05101      0.0000 
     23 C23        41.8310   74.4270   91.8490 C.ar      1 L05101      0.0000 
     24 C24        40.9420   74.4760   92.9470 C.ar      1 L05101      0.0000 
     25 C25        41.4040   74.9050   94.2230 C.ar      1 L05101      0.0000 
     26 C26        42.7510   75.2870   94.4010 C.ar      1 L05101      0.0000 
     27 C27        43.6490   75.2440   93.3040 C.ar      1 L05101      0.0000 
     28 C28        40.7720   77.2510   89.2200 C.ar      1 L05101      0.0000 
     29 C29        39.9110   78.2680   89.7170 C.ar      1 L05101      0.0000 
     30 H          42.0787   79.7309   91.8675 H         1 L05101      0.0000 
     31 H          43.5452   77.9807   91.0013 H         1 L05101      0.0000 
     32 H          42.6249   75.8111   88.0919 H         1 L05101      0.0000 
     33 H          48.0269   73.7531   90.1883 H         1 L05101      0.0000 
     34 H          47.8305   74.4352   88.5647 H         1 L05101      0.0000 
     35 H          48.9006   71.6074   89.9710 H         1 L05101      0.0000 
     36 H          48.9333   69.3517   89.0425 H         1 L05101      0.0000 
     37 H          47.4024   68.7516   87.2364 H         1 L05101      0.0000 
     38 H          45.8415   70.4083   86.3601 H         1 L05101      0.0000 
     39 H          45.8046   72.6708   87.2812 H         1 L05101      0.0000 
     40 H          41.5047   74.1191   90.9344 H         1 L05101      0.0000 
     41 H          39.9658   74.2040   92.8288 H         1 L05101      0.0000 
     42 H          40.7537   74.9347   95.0102 H         1 L05101      0.0000 
     43 H          43.0810   75.5938   95.3155 H         1 L05101      0.0000 
     44 H          44.6229   75.5227   93.4287 H         1 L05101      0.0000 
     45 H          40.4177   76.5923   88.5154 H         1 L05101      0.0000 
     46 H          38.9575   78.3416   89.3770 H         1 L05101      0.0000 
     47 H          39.7609   79.7502   93.2336 H         1 L05101      0.0000 
     48 H          38.5524   80.7520   92.8841 H         1 L05101      0.0000 
     49 H          38.4338   79.1905   92.5181 H         1 L05101      0.0000 
@<TRIPOS>BOND
     1    2    1 1    
     2   47    1 1    
     3   48    1 1    
     4   49    1 1    
     5    3    2 1    
     6    4    3 ar   
     7   29    3 ar   
     8    5    4 ar   
     9   30    4 1    
    10    6    5 ar   
    11   31    5 1    
    12    7    6 1    
    13   28    6 ar   
    14    8    7 1    
    15   32    7 1    
    16    9    8 2    
    17   20    8 1    
    18   10    9 1    
    19   22    9 1    
    20   11   10 2    
    21   12   10 am   
    22   13   12 1    
    23   20   12 am   
    24   14   13 1    
    25   33   13 1    
    26   34   13 1    
    27   15   14 ar   
    28   19   14 ar   
    29   16   15 ar   
    30   35   15 1    
    31   17   16 ar   
    32   36   16 1    
    33   18   17 ar   
    34   37   17 1    
    35   19   18 ar   
    36   38   18 1    
    37   39   19 1    
    38   21   20 2    
    39   23   22 ar   
    40   27   22 ar   
    41   24   23 ar   
    42   40   23 1    
    43   25   24 ar   
    44   41   24 1    
    45   26   25 ar   
    46   42   25 1    
    47   27   26 ar   
    48   43   26 1    
    49   44   27 1    
    50   29   28 ar   
    51   45   28 1    
    52   46   29 1    
@<TRIPOS>SUBSTRUCTURE
     1 L05101      1 GROUP   
@<TRIPOS>SET

