#    Name: 1ROZ_2_CAVITY_N1_6.mol2
#    Modification time : Tue Mar 11 06:13:41 2014

@<TRIPOS>MOLECULE
1ROZ_2_CAVITY_N1_6.mol2
   58     0     6     0     0
SMALL
NO_CHARGES


@<TRIPOS>ATOM
      1 CA         41.3131   -3.3577   39.3089 C.3       5 GLY6        0.0000 
      2 O          40.4219   -4.0807   38.3429 O.2       2 ALA2        0.0000 
      3 CA         41.9053   -1.3389   39.5808 C.3       5 GLY6        0.0000 
      4 OG         43.0743   -1.5587   38.6669 O.2       1 SER1        0.0000 
      5 O          41.0141   -2.0619   38.6149 O.2       2 ALA2        0.0000 
      6 DU         42.1831   -2.2817   37.7009 H         6 CUB7        0.0000 
      7 O          40.1230   -2.7849   37.6489 O.2       2 ALA2        0.0000 
      8 OG         42.4975    0.6798   39.8528 O.2       1 SER1        0.0000 
      9 N          43.6665    0.4600   38.9389 N.2       2 ALA2        0.0000 
     10 N          44.8354    0.2402   38.0250 N.2       2 ALA2        0.0000 
     11 CA         41.6064   -0.0432   38.8868 C.3       5 GLY6        0.0000 
     12 DU         42.7753   -0.2630   37.9729 H         6 CUB7        0.0000 
     13 N          43.9442   -0.4827   37.0590 N.2       2 ALA2        0.0000 
     14 CA         40.7152   -0.7662   37.9209 C.3       5 GLY6        0.0000 
     15 OG         41.8841   -0.9859   37.0069 O.2       1 SER1        0.0000 
     16 O          39.8240   -1.4892   36.9549 O.2       2 ALA2        0.0000 
     17 CA         38.9328   -2.2121   35.9889 C.3       5 GLY6        0.0000 
     18 CA         40.1018   -2.4319   35.0750 C.3       5 GLY6        0.0000 
     19 CA         43.0897    2.6986   40.1247 C.3       5 GLY6        0.0000 
     20 N          46.5966    2.0392   37.3830 N.2       2 ALA2        0.0000 
     21 N          47.7655    1.8194   36.4691 N.2       2 ALA2        0.0000 
     22 CA         41.0296    2.1954   40.0727 C.3       5 GLY6        0.0000 
     23 OG         42.1986    1.9756   39.1588 O.2       1 SER1        0.0000 
     24 N          43.3675    1.7558   38.2449 N.2       2 ALA2        0.0000 
     25 N          44.5365    1.5360   37.3309 N.2       2 ALA2        0.0000 
     26 N          45.7054    1.3162   36.4170 N.2       2 ALA2        0.0000 
     27 CA         41.3074    1.2526   38.1928 C.3       5 GLY6        0.0000 
     28 OG         42.4763    1.0328   37.2789 O.2       1 SER1        0.0000 
     29 OG         43.6453    0.8130   36.3650 O.2       1 SER1        0.0000 
     30 OG         40.4162    0.5296   37.2268 O.2       1 SER1        0.0000 
     31 CA         42.7908    3.9943   39.4307 C.3       5 GLY6        0.0000 
     32 NZ         43.9597    3.7745   38.5168 N.2       3 LYS4        0.0000 
     33 NZ         45.1287    3.5547   37.6029 N.2       3 LYS4        0.0000 
     34 CZ         46.2976    3.3350   36.6890 C.ar      4 PHE5        0.0000 
     35 CZ         47.4666    3.1152   35.7751 C.ar      4 PHE5        0.0000 
     36 CA         40.7306    3.4911   39.3787 C.3       5 GLY6        0.0000 
     37 O          41.8996    3.2713   38.4648 O.2       2 ALA2        0.0000 
     38 NZ         43.0685    3.0515   37.5508 N.2       3 LYS4        0.0000 
     39 DU         44.2375    2.8317   36.6369 H         6 CUB7        0.0000 
     40 DU         45.4064    2.6120   35.7230 H         6 CUB7        0.0000 
     41 DU         46.5754    2.3922   34.8091 H         6 CUB7        0.0000 
     42 CA         39.8395    2.7681   38.4127 C.3       5 GLY6        0.0000 
     43 OG         41.0084    2.5483   37.4988 O.2       1 SER1        0.0000 
     44 OG         42.1774    2.3285   36.5849 O.2       1 SER1        0.0000 
     45 OG         43.3463    2.1088   35.6710 O.2       1 SER1        0.0000 
     46 OG         44.5153    1.8890   34.7570 O.2       1 SER1        0.0000 
     47 DU         45.6842    1.6692   33.8431 H         6 CUB7        0.0000 
     48 NZ         45.9986    4.6307   35.9950 N.2       3 LYS4        0.0000 
     49 NZ         47.1676    4.4109   35.0810 N.2       3 LYS4        0.0000 
     50 CA         42.7696    4.3473   36.8568 C.3       5 GLY6        0.0000 
     51 NZ         43.9385    4.1275   35.9429 N.2       3 LYS4        0.0000 
     52 NZ         45.1075    3.9077   35.0290 N.2       3 LYS4        0.0000 
     53 NZ         46.2764    3.6879   34.1151 N.2       3 LYS4        0.0000 
     54 CA         44.2163    3.1847   34.0630 C.3       5 GLY6        0.0000 
     55 DU         45.3852    2.9649   33.1491 H         6 CUB7        0.0000 
     56 NZ         44.8085    5.2035   34.3350 N.2       3 LYS4        0.0000 
     57 CA         45.9775    4.9837   33.4211 C.3       5 GLY6        0.0000 
     58 CA         43.9173    4.4805   33.3690 C.3       5 GLY6        0.0000 
@<TRIPOS>BOND
@<TRIPOS>SUBSTRUCTURE
     1 SER1        4 GROUP   
     2 ALA2        2 GROUP   
     3 LYS4       32 GROUP   
     4 PHE5       34 GROUP   
     5 GLY6        1 GROUP   
     6 CUB7        6 GROUP   
@<TRIPOS>SET

