#    Name: 1roz_NAD_2_INTS_M
#    Modification time : Tue Mar 25 01:00:55 2014

@<TRIPOS>MOLECULE
1roz_NAD_2_INTS_M
   76     0     9     0     0
SMALL
NO_CHARGES


@<TRIPOS>ATOM
      1 CA         41.4860   -3.1290   40.5175 C.3       3 GLC5        0.0000 
      2 CA         41.6960   -4.1650   38.8160 C.3       9 GLL5        0.0000 
      3 CA         41.2760   -2.0930   42.2190 C.3       6 GLP5        0.0000 
      4 CA         39.0555   -3.2325   38.8730 C.3       3 GLC5        0.0000 
      5 CA         40.9590   -3.2790   37.8550 C.3       9 GLL5        0.0000 
      6 CA         37.1520   -3.1860   39.8910 C.3       6 GLP5        0.0000 
      7 N          39.3150   -2.0265   39.1935 N.am      2 SEC2        0.0000 
      8 N          40.6250   -2.0460   38.5170 N.am      8 SEL2        0.0000 
      9 N          38.0050   -2.0070   39.8700 N.am      5 SEP2        0.0000 
     10 N          40.4835   -0.2245   34.9450 N.am      2 SEC2        0.0000 
     11 N          39.9340   -1.7720   35.3440 N.am      8 SEL2        0.0000 
     12 N          41.0330    1.3230   34.5460 N.am      5 SEP2        0.0000 
     13 CA         39.5905   -0.3210   38.9380 C.3       3 GLC5        0.0000 
     14 CA         40.6360   -0.9630   37.5700 C.3       9 GLL5        0.0000 
     15 CA         38.5450    0.3210   40.3060 C.3       6 GLP5        0.0000 
     16 CA         38.7280    0.1935   37.4985 C.3       3 GLC5        0.0000 
     17 CA         36.8200    1.3500   37.4270 C.3       6 GLP5        0.0000 
     18 N          44.8325    1.0375   39.3760 N.am      2 SEC2        0.0000 
     19 N          43.4840    0.9470   38.8000 N.am      8 SEL2        0.0000 
     20 N          46.1810    1.1280   39.9520 N.am      5 SEP2        0.0000 
     21 CA         43.4190    4.0830   40.2415 C.3       3 GLC5        0.0000 
     22 CA         42.7310    3.3480   38.3470 C.3       9 GLL5        0.0000 
     23 CA         44.1070    4.8180   42.1360 C.3       6 GLP5        0.0000 
     24 CA         42.3555    5.0820   37.1290 C.3       3 GLC5        0.0000 
     25 CA         41.9800    6.8160   35.9110 C.3       6 GLP5        0.0000 
     26 CA         41.6720    4.9345   39.4790 C.3       3 GLC5        0.0000 
     27 CA         40.6130    6.5210   40.6110 C.3       6 GLP5        0.0000 
     28 O          44.0235    5.3770   38.0730 O.2       1 ALC1        0.0000 
     29 O          43.8650    4.0060   38.6080 O.2       7 ALL1        0.0000 
     30 O          44.1820    6.7480   37.5380 O.2       4 ALP1        0.0000 
     31 N          41.5405    5.4795   38.1440 N.am      2 SEC2        0.0000 
     32 N          41.6300    4.0610   37.9860 N.am      8 SEL2        0.0000 
     33 N          41.4510    6.8980   38.3020 N.am      5 SEP2        0.0000 
     34 CA         39.5250    1.8625   38.9945 C.3       3 GLC5        0.0000 
     35 CA         40.5050    3.4040   37.6830 C.3       9 GLL5        0.0000 
     36 CA         38.8540    3.0765   37.2980 C.3       3 GLC5        0.0000 
     37 CA         37.2030    2.7490   36.9130 C.3       6 GLP5        0.0000 
     38 CA         40.6895    3.5155   35.7670 C.3       3 GLC5        0.0000 
     39 CA         40.8740    3.6270   33.8510 C.3       6 GLP5        0.0000 
     40 CA         41.2425    5.1100   36.7970 C.3       3 GLC5        0.0000 
     41 CA         40.5590    4.9625   39.1470 C.3       3 GLC5        0.0000 
     42 N          39.4065    2.1045   36.3325 N.am      2 SEC2        0.0000 
     43 N          40.2920    2.0910   37.6280 N.am      8 SEL2        0.0000 
     44 N          38.5210    2.1180   35.0370 N.am      5 SEP2        0.0000 
     45 CA         39.9690    0.8660   39.1630 C.3       3 GLC5        0.0000 
     46 CA         41.3930    1.4110   38.0200 C.3       9 GLL5        0.0000 
     47 N          44.1245   -3.2275   44.3985 N.am      2 SEC2        0.0000 
     48 N          43.6770   -4.4940   43.7500 N.am      8 SEL2        0.0000 
     49 N          44.5720   -1.9610   45.0470 N.am      5 SEP2        0.0000 
     50 N          43.7385   -4.6730   45.0210 N.am      2 SEC2        0.0000 
     51 N          43.8000   -4.8520   46.2920 N.am      5 SEP2        0.0000 
     52 O          45.5485  -10.0060   45.1310 O.2       1 ALC1        0.0000 
     53 O          44.5470   -8.7870   45.3500 O.2       7 ALL1        0.0000 
     54 O          46.5500  -11.2250   44.9120 O.2       4 ALP1        0.0000 
     55 CA         46.5790   -5.2160   45.5660 C.3       3 GLC5        0.0000 
     56 CA         46.4650   -7.3260   45.5980 C.3       9 GLL5        0.0000 
     57 CA         46.6930   -3.1060   45.5340 C.3       6 GLP5        0.0000 
     58 CA         46.7290   -7.7205   47.7765 C.3       3 GLC5        0.0000 
     59 CA         46.9930   -8.1150   49.9550 C.3       6 GLP5        0.0000 
     60 N          47.1335   -6.5905   47.8010 N.am      2 SEC2        0.0000 
     61 N          46.5880   -7.8640   46.9040 N.am      8 SEL2        0.0000 
     62 N          47.6790   -5.3170   48.6980 N.am      5 SEP2        0.0000 
     63 O          47.4905   -8.8010   47.0910 O.2       1 ALC1        0.0000 
     64 O          46.5880   -7.8640   46.9040 O.2       7 ALL1        0.0000 
     65 O          48.3930   -9.7380   47.2780 O.2       4 ALP1        0.0000 
     66 CA         48.6615   -4.8135   46.3670 C.3       3 GLC5        0.0000 
     67 CA         48.6920   -5.3820   44.2680 C.3       9 GLL5        0.0000 
     68 CA         48.6310   -4.2450   48.4660 C.3       6 GLP5        0.0000 
     69 CA         44.6317   -6.7950   46.0558 C.3       3 GLC5        0.0000 
     70 CA         43.3840   -6.0560   46.9460 C.3       6 GLP5        0.0000 
     71 CA         47.9875   -4.0782   44.8543 C.3       3 GLC5        0.0000 
     72 CA         50.5353   -7.9727   47.1980 C.3       3 GLC5        0.0000 
     73 CA         50.8470   -6.0340   45.8490 C.3       9 GLL5        0.0000 
     74 CA         50.7460   -9.4690   48.6050 C.3       6 GLP5        0.0000 
     75 CA         49.4787   -5.2230   47.0267 C.3       3 GLC5        0.0000 
     76 CA         49.8020   -6.9190   45.7330 C.3       9 GLL5        0.0000 
@<TRIPOS>BOND
@<TRIPOS>SUBSTRUCTURE
     1 ALC1       28 GROUP        1 X    ALC  0     ROOT ALC X 1
     2 SEC2        7 GROUP        1 X    SEC  0     **** SEC X 2
     3 GLC5        1 GROUP        1 X    GLC  0     **** GLC X 6
     4 ALP1       30 GROUP        1 Y    ALP  0     ROOT ALP Y 8
     5 SEP2        9 GROUP        1 Y    SEP  0     **** SEP Y 9
     6 GLP5        3 GROUP        1 Y    GLP  0     **** GLP Y 13
     7 ALL1       29 GROUP        1 Z    ALL  0     ROOT ALL Z 15
     8 SEL2        8 GROUP        1 Z    SEL  0     **** SEL Z 16
     9 GLL5        2 GROUP        1 Z    GLL  0     **** GLL Z 20
@<TRIPOS>SET

