#    Name: 1roz_NAD_2_ligand
#    Modification time : Tue Mar 25 01:00:55 2014

@<TRIPOS>MOLECULE
1roz_NAD_2_ligand
   70    74     1     0     0
SMALL
NO_CHARGES


@<TRIPOS>ATOM
      1 PA         44.0610   -4.4100   39.9160 P.3       1 NAD801      0.0000 
      2 O1A        45.3150   -3.6090   39.9170 O.co2     1 NAD801      0.0000 
      3 O2A        44.0650   -5.8050   39.4530 O.co2     1 NAD801      0.0000 
      4 O5B        42.9620   -3.5990   39.0970 O.3       1 NAD801      0.0000 
      5 C5B        41.6960   -4.1650   38.8160 C.3       1 NAD801      0.0000 
      6 C4B        40.9590   -3.2790   37.8550 C.3       1 NAD801      0.0000 
      7 O4B        40.6250   -2.0460   38.5170 O.3       1 NAD801      0.0000 
      8 C3B        41.7450   -2.8420   36.6260 C.3       1 NAD801      0.0000 
      9 O3B        41.7280   -3.8470   35.6040 O.3       1 NAD801      0.0000 
     10 C2B        41.0490   -1.5560   36.2220 C.3       1 NAD801      0.0000 
     11 O2B        39.9340   -1.7720   35.3440 O.3       1 NAD801      0.0000 
     12 C1B        40.6360   -0.9630   37.5700 C.3       1 NAD801      0.0000 
     13 N9A        41.5720    0.0450   38.0550 N.pl3     1 NAD801      0.0000 
     14 C8A        42.8060   -0.1550   38.6060 C.2       1 NAD801      0.0000 
     15 N7A        43.4840    0.9470   38.8000 N.2       1 NAD801      0.0000 
     16 C5A        42.6100    1.9470   38.4130 C.ar      1 NAD801      0.0000 
     17 C6A        42.7310    3.3480   38.3470 C.ar      1 NAD801      0.0000 
     18 N6A        43.8650    4.0060   38.6080 N.pl3     1 NAD801      0.0000 
     19 N1A        41.6300    4.0610   37.9860 N.ar      1 NAD801      0.0000 
     20 C2A        40.5050    3.4040   37.6830 C.ar      1 NAD801      0.0000 
     21 N3A        40.2920    2.0910   37.6280 N.ar      1 NAD801      0.0000 
     22 C4A        41.3930    1.4110   38.0200 C.ar      1 NAD801      0.0000 
     23 O3         43.4510   -4.4080   41.3750 O.3       1 NAD801      0.0000 
     24 PN         43.5420   -5.4060   42.6040 P.3       1 NAD801      0.0000 
     25 O1N        42.3750   -6.3280   42.5840 O.co2     1 NAD801      0.0000 
     26 O2N        43.6770   -4.4940   43.7500 O.co2     1 NAD801      0.0000 
     27 O5D        44.9370   -6.2270   42.4050 O.3       1 NAD801      0.0000 
     28 C5D        45.0150   -7.6730   42.2410 C.3       1 NAD801      0.0000 
     29 C4D        45.8370   -8.2070   43.4010 C.3       1 NAD801      0.0000 
     30 O4D        47.1970   -7.7350   43.3570 O.3       1 NAD801      0.0000 
     31 C3D        45.2940   -7.7420   44.7330 C.3       1 NAD801      0.0000 
     32 O3D        44.5470   -8.7870   45.3500 O.3       1 NAD801      0.0000 
     33 C2D        46.4650   -7.3260   45.5980 C.3       1 NAD801      0.0000 
     34 O2D        46.5880   -7.8640   46.9040 O.3       1 NAD801      0.0000 
     35 C1D        47.6490   -7.6270   44.7280 C.3       1 NAD801      0.0000 
     36 N1N        48.6990   -6.6410   44.8840 N.pl3     1 NAD801      0.0000 
     37 C2N        48.6920   -5.3820   44.2680 C.ar      1 NAD801      0.0000 
     38 C3N        49.8720   -4.7190   44.0810 C.ar      1 NAD801      0.0000 
     39 C7N        49.9000   -3.5290   43.2180 C.2       1 NAD801      0.0000 
     40 O7N        50.2070   -3.6280   41.9090 O.2       1 NAD801      0.0000 
     41 N7N        49.6770   -2.4010   43.8300 N.am      1 NAD801      0.0000 
     42 C4N        50.8550   -4.9320   45.0350 C.ar      1 NAD801      0.0000 
     43 C5N        50.8470   -6.0340   45.8490 C.ar      1 NAD801      0.0000 
     44 C6N        49.8020   -6.9190   45.7330 C.ar      1 NAD801      0.0000 
     45 H          41.0867   -4.2693   39.7243 H         1 NAD801      0.0000 
     46 H          41.7878   -5.1619   38.3636 H         1 NAD801      0.0000 
     47 H          40.0520   -3.7589   37.5234 H         1 NAD801      0.0000 
     48 H          42.7355   -2.5904   36.9559 H         1 NAD801      0.0000 
     49 H          41.7955   -0.9017   35.8050 H         1 NAD801      0.0000 
     50 H          39.6492   -0.5540   37.4708 H         1 NAD801      0.0000 
     51 H          43.1359   -1.0780   38.8313 H         1 NAD801      0.0000 
     52 H          43.8127    5.0040   38.5729 H         1 NAD801      0.0000 
     53 H          44.6638    3.4412   38.8149 H         1 NAD801      0.0000 
     54 H          39.6310    4.0427   37.4453 H         1 NAD801      0.0000 
     55 H          45.5096   -7.9358   41.3151 H         1 NAD801      0.0000 
     56 H          44.0322   -8.1244   42.2752 H         1 NAD801      0.0000 
     57 H          45.8154   -9.2849   43.3909 H         1 NAD801      0.0000 
     58 H          44.6817   -6.8682   44.5552 H         1 NAD801      0.0000 
     59 H          46.4246   -6.2019   45.6295 H         1 NAD801      0.0000 
     60 H          48.0313   -8.6165   45.0456 H         1 NAD801      0.0000 
     61 H          47.7992   -4.9750   43.9655 H         1 NAD801      0.0000 
     62 H          49.7265   -1.5769   43.2657 H         1 NAD801      0.0000 
     63 H          49.4768   -2.4630   44.8078 H         1 NAD801      0.0000 
     64 H          51.6216   -4.2274   45.1307 H         1 NAD801      0.0000 
     65 H          51.5966   -6.1953   46.5245 H         1 NAD801      0.0000 
     66 H          49.8008   -7.8058   46.2638 H         1 NAD801      0.0000 
     67 H          41.0358   -3.5401   34.9508 H         1 NAD801      0.0000 
     68 H          39.1469   -1.8891   35.9495 H         1 NAD801      0.0000 
     69 H          45.0047   -9.6313   45.0715 H         1 NAD801      0.0000 
     70 H          47.3008   -8.5615   46.8304 H         1 NAD801      0.0000 
@<TRIPOS>BOND
     1    2    1 ar   
     2    3    1 ar   
     3    4    1 1    
     4   23    1 1    
     5    5    4 1    
     6    6    5 1    
     7   45    5 1    
     8   46    5 1    
     9    7    6 1    
    10    8    6 1    
    11   47    6 1    
    12   12    7 1    
    13    9    8 1    
    14   10    8 1    
    15   48    8 1    
    16   67    9 1    
    17   11   10 1    
    18   12   10 1    
    19   49   10 1    
    20   68   11 1    
    21   13   12 1    
    22   50   12 1    
    23   14   13 1    
    24   22   13 1    
    25   15   14 2    
    26   51   14 1    
    27   16   15 1    
    28   17   16 ar   
    29   22   16 ar   
    30   18   17 1    
    31   19   17 ar   
    32   52   18 1    
    33   53   18 1    
    34   20   19 ar   
    35   21   20 ar   
    36   54   20 1    
    37   22   21 ar   
    38   24   23 1    
    39   25   24 ar   
    40   26   24 ar   
    41   27   24 1    
    42   28   27 1    
    43   29   28 1    
    44   55   28 1    
    45   56   28 1    
    46   30   29 1    
    47   31   29 1    
    48   57   29 1    
    49   35   30 1    
    50   32   31 1    
    51   33   31 1    
    52   58   31 1    
    53   69   32 1    
    54   34   33 1    
    55   35   33 1    
    56   59   33 1    
    57   70   34 1    
    58   36   35 1    
    59   60   35 1    
    60   37   36 ar   
    61   44   36 ar   
    62   38   37 ar   
    63   61   37 1    
    64   39   38 1    
    65   42   38 ar   
    66   40   39 2    
    67   41   39 am   
    68   62   41 1    
    69   63   41 1    
    70   43   42 ar   
    71   64   42 1    
    72   44   43 ar   
    73   65   43 1    
    74   66   44 1    
@<TRIPOS>SUBSTRUCTURE
     1 NAD801      1 GROUP   
@<TRIPOS>SET

