#    Name: 3br9_DEY_2_INTS_M
#    Modification time : Mon Mar 24 20:00:08 2014

@<TRIPOS>MOLECULE
3br9_DEY_2_INTS_M
   66     0     9     0     0
SMALL
NO_CHARGES


@<TRIPOS>ATOM
      1 CA         53.8395   -6.2145   46.3265 C.3       3 GLC5        0.0000 
      2 CA         52.5470   -7.8520   46.6220 C.3       9 GLL5        0.0000 
      3 CA         55.1320   -4.5770   46.0310 C.3       6 GLP5        0.0000 
      4 CA         51.5060   -5.4730   42.6035 C.3       3 GLC5        0.0000 
      5 CA         51.9240   -6.9190   43.4840 C.3       9 GLL5        0.0000 
      6 CA         51.0880   -4.0270   41.7230 C.3       6 GLP5        0.0000 
      7 N          53.6525   -8.1465   40.4975 N.am      2 SEC2        0.0000 
      8 N          54.2310   -7.9740   41.7580 N.am      8 SEL2        0.0000 
      9 N          53.0740   -8.3190   39.2370 N.am      5 SEP2        0.0000 
     10 O          52.6020  -11.1190   42.9905 O.2       1 ALC1        0.0000 
     11 O          53.3450   -9.9660   42.3840 O.2       7 ALL1        0.0000 
     12 O          51.8590  -12.2720   43.5970 O.2       4 ALP1        0.0000 
     13 CA         49.4170  -10.6255   48.8730 C.3       3 GLC5        0.0000 
     14 CA         50.8850   -9.7520   47.8540 C.3       9 GLL5        0.0000 
     15 CA         47.9490  -11.4990   49.8920 C.3       6 GLP5        0.0000 
     16 CA         51.8350   -5.4305   52.0880 C.3       3 GLC5        0.0000 
     17 CA         52.1920   -7.3680   53.1220 C.3       9 GLL5        0.0000 
     18 CA         51.4780   -3.4930   51.0540 C.3       6 GLP5        0.0000 
     19 N          52.3500   -4.7405   52.6160 N.am      2 SEC2        0.0000 
     20 N          52.6950   -6.1260   52.8190 N.am      8 SEL2        0.0000 
     21 N          52.0050   -3.3550   52.4130 N.am      5 SEP2        0.0000 
     22 CA         50.6075  -11.2350   56.3765 C.3       3 GLC5        0.0000 
     23 CA         49.9580  -10.6850   54.4560 C.3       9 GLL5        0.0000 
     24 CA         51.2570  -11.7850   58.2970 C.3       6 GLP5        0.0000 
     25 CA         46.3080  -10.5805   54.2300 C.3       3 GLC5        0.0000 
     26 CA         48.4890  -10.2390   54.5880 C.3       9 GLL5        0.0000 
     27 CA         44.1270  -10.9220   53.8720 C.3       6 GLP5        0.0000 
     28 CA         48.3400   -7.4795   54.0180 C.3       3 GLC5        0.0000 
     29 CA         48.2600   -8.9740   55.4500 C.3       9 GLL5        0.0000 
     30 CA         48.4200   -5.9850   52.5860 C.3       6 GLP5        0.0000 
     31 CA         45.6760   -8.1570   56.9370 C.3       3 GLC5        0.0000 
     32 CA         46.8000   -8.5600   55.5940 C.3       9 GLL5        0.0000 
     33 CA         44.5520   -7.7540   58.2800 C.3       6 GLP5        0.0000 
     34 CA         45.4635   -9.7410   54.7330 C.3       3 GLC5        0.0000 
     35 CA         46.9815   -7.0120   54.2375 C.3       3 GLC5        0.0000 
     36 CA         47.1630   -5.4640   52.8810 C.3       6 GLP5        0.0000 
     37 CA         50.0425  -10.4525   57.5805 C.3       3 GLC5        0.0000 
     38 CA         48.8280   -9.1200   56.8640 C.3       9 GLL5        0.0000 
     39 CA         54.9835   -7.0250   59.1865 C.3       3 GLC5        0.0000 
     40 CA         54.6070   -6.3140   57.1810 C.3       9 GLL5        0.0000 
     41 CA         55.3600   -7.7360   61.1920 C.3       6 GLP5        0.0000 
     42 CA         50.2495   -9.0805   44.5385 C.3       3 GLC5        0.0000 
     43 CA         52.0010   -8.9060   45.8790 C.3       9 GLL5        0.0000 
     44 CA         48.9120   -8.7790   42.8900 C.3       6 GLP5        0.0000 
     45 CA         50.6685   -8.1250   43.2680 C.3       3 GLC5        0.0000 
     46 CA         49.0390   -9.6065   47.2077 C.3       3 GLC5        0.0000 
     47 CA         51.1730   -9.8580   46.4950 C.3       9 GLL5        0.0000 
     48 CA         47.0490   -9.4080   47.2410 C.3       6 GLP5        0.0000 
     49 CA         49.9010  -11.5330   46.7317 C.3       3 GLC5        0.0000 
     50 CA         48.7730  -13.2610   46.2890 C.3       6 GLP5        0.0000 
     51 CA         48.8392  -11.4550   52.9135 C.3       3 GLC5        0.0000 
     52 CA         48.4550  -12.4480   51.3050 C.3       6 GLP5        0.0000 
     53 CA         47.6200   -7.9770   57.5680 C.3       3 GLC5        0.0000 
     54 CA         46.6960   -6.9070   58.9790 C.3       6 GLP5        0.0000 
     55 CA         47.2828  -10.4078   56.7131 C.3       3 GLC5        0.0000 
     56 CA         46.3580  -11.7140   57.3410 C.3       6 GLP5        0.0000 
     57 CA         48.8270   -7.2103   56.1945 C.3       3 GLC5        0.0000 
     58 CA         49.4750   -5.4770   56.1960 C.3       6 GLP5        0.0000 
     59 CA         53.4202   -3.8370   55.0510 C.3       3 GLC5        0.0000 
     60 CA         53.3480   -5.6870   55.3240 C.3       9 GLL5        0.0000 
     61 CA         53.0550   -2.1770   54.2720 C.3       6 GLP5        0.0000 
     62 CA         55.1810   -5.0362   58.2593 C.3       3 GLC5        0.0000 
     63 CA         55.9470   -4.2620   59.7600 C.3       6 GLP5        0.0000 
     64 CA         52.6402   -6.1008   57.3545 C.3       3 GLC5        0.0000 
     65 CA         54.2230   -5.3070   56.3360 C.3       9 GLL5        0.0000 
     66 CA         51.3120   -5.7660   58.3100 C.3       6 GLP5        0.0000 
@<TRIPOS>BOND
@<TRIPOS>SUBSTRUCTURE
     1 ALC1       10 GROUP        1 X    ALC  0     ROOT ALC X 1
     2 SEC2        7 GROUP        1 X    SEC  0     **** SEC X 2
     3 GLC5        1 GROUP        1 X    GLC  0     **** GLC X 6
     4 ALP1       12 GROUP        1 Y    ALP  0     ROOT ALP Y 8
     5 SEP2        9 GROUP        1 Y    SEP  0     **** SEP Y 9
     6 GLP5        3 GROUP        1 Y    GLP  0     **** GLP Y 13
     7 ALL1       11 GROUP        1 Z    ALL  0     ROOT ALL Z 15
     8 SEL2        8 GROUP        1 Z    SEL  0     **** SEL Z 16
     9 GLL5        2 GROUP        1 Z    GLL  0     **** GLL Z 20
@<TRIPOS>SET

