#    Name: 3br9_DEY_2_ligand
#    Modification time : Mon Mar 24 20:00:09 2014

@<TRIPOS>MOLECULE
3br9_DEY_2_ligand
   61    64     1     0     0
SMALL
NO_CHARGES


@<TRIPOS>ATOM
      1 O32        52.0550   -5.2570   48.5740 O.2       1 DEY579      0.0000 
      2 S36        52.9080   -6.3830   48.9000 S.o2      1 DEY579      0.0000 
      3 O31        54.3340   -6.2420   48.7550 O.2       1 DEY579      0.0000 
      4 C9         52.2700   -7.7590   47.9890 C.ar      1 DEY579      0.0000 
      5 C5         52.5470   -7.8520   46.6220 C.ar      1 DEY579      0.0000 
      6 C8         52.0010   -8.9060   45.8790 C.ar      1 DEY579      0.0000 
      7 O34        52.2660   -9.0610   44.5420 O.3       1 DEY579      0.0000 
      8 C22        52.9260   -8.0230   43.8080 C.3       1 DEY579      0.0000 
      9 C17        51.9240   -6.9190   43.4840 C.3       1 DEY579      0.0000 
     10 C16        53.5590   -8.6190   42.5500 C.2       1 DEY579      0.0000 
     11 O30        54.2310   -7.9740   41.7580 O.2       1 DEY579      0.0000 
     12 N28        53.3450   -9.9660   42.3840 N.am      1 DEY579      0.0000 
     13 C3         51.1730   -9.8580   46.4950 C.ar      1 DEY579      0.0000 
     14 N26        52.5610   -6.8320   50.4710 N.pl3     1 DEY579      0.0000 
     15 C14        51.7210   -7.9180   50.7970 C.2       1 DEY579      0.0000 
     16 N24        51.0750   -8.6850   49.9690 N.2       1 DEY579      0.0000 
     17 C7         51.4180   -8.6930   48.6130 C.ar      1 DEY579      0.0000 
     18 C2         50.8850   -9.7520   47.8540 C.ar      1 DEY579      0.0000 
     19 C12        51.5750   -8.1450   52.2200 C.2       1 DEY579      0.0000 
     20 C13        52.1920   -7.3680   53.1220 C.2       1 DEY579      0.0000 
     21 O33        52.6950   -6.1260   52.8190 O.3       1 DEY579      0.0000 
     22 C15        50.7070   -9.2550   52.6650 C.2       1 DEY579      0.0000 
     23 O29        50.0790   -9.8930   51.8280 O.2       1 DEY579      0.0000 
     24 N27        50.7490   -9.5530   54.0140 N.am      1 DEY579      0.0000 
     25 C21        49.9580  -10.6850   54.4560 C.3       1 DEY579      0.0000 
     26 C20        48.4890  -10.2390   54.5880 C.3       1 DEY579      0.0000 
     27 C23        48.2600   -8.9740   55.4500 C.3       1 DEY579      0.0000 
     28 C19        46.8000   -8.5600   55.5940 C.3       1 DEY579      0.0000 
     29 C18        48.8280   -9.1200   56.8640 C.3       1 DEY579      0.0000 
     30 N25        51.5100   -8.8550   54.9420 N.2       1 DEY579      0.0000 
     31 C11        52.1990   -7.8300   54.5240 C.2       1 DEY579      0.0000 
     32 C10        53.0380   -7.0170   55.4120 C.2       1 DEY579      0.0000 
     33 C4         53.3480   -5.6870   55.3240 C.2       1 DEY579      0.0000 
     34 S35        53.8510   -7.7690   56.7110 S.3       1 DEY579      0.0000 
     35 C6         54.6070   -6.3140   57.1810 C.2       1 DEY579      0.0000 
     36 C1         54.2230   -5.3070   56.3360 C.2       1 DEY579      0.0000 
     37 H          53.1426   -7.1574   46.1677 H         1 DEY579      0.0000 
     38 H          53.7222   -7.5886   44.4089 H         1 DEY579      0.0000 
     39 H          52.7695  -10.4082   43.0719 H         1 DEY579      0.0000 
     40 H          53.7835  -10.3866   41.5897 H         1 DEY579      0.0000 
     41 H          50.7835  -10.6277   45.9418 H         1 DEY579      0.0000 
     42 H          53.0224   -6.2357   51.1423 H         1 DEY579      0.0000 
     43 H          50.2814  -10.4468   48.3104 H         1 DEY579      0.0000 
     44 H          50.2860  -11.0470   55.4278 H         1 DEY579      0.0000 
     45 H          49.9959  -11.5031   53.7403 H         1 DEY579      0.0000 
     46 H          47.9027  -11.0689   55.0203 H         1 DEY579      0.0000 
     47 H          48.0812  -10.0542   53.5786 H         1 DEY579      0.0000 
     48 H          48.7960   -8.1352   54.9792 H         1 DEY579      0.0000 
     49 H          53.0076   -5.0776   54.6475 H         1 DEY579      0.0000 
     50 H          55.1531   -6.3833   57.9095 H         1 DEY579      0.0000 
     51 H          54.5419   -4.3657   56.4306 H         1 DEY579      0.0000 
     52 H          52.3471   -6.1725   42.9705 H         1 DEY579      0.0000 
     53 H          51.1621   -7.2590   42.9328 H         1 DEY579      0.0000 
     54 H          51.5311   -6.5193   44.3122 H         1 DEY579      0.0000 
     55 H          46.7001   -7.7419   56.1604 H         1 DEY579      0.0000 
     56 H          46.3827   -8.3561   54.7084 H         1 DEY579      0.0000 
     57 H          46.2501   -9.2793   56.0185 H         1 DEY579      0.0000 
     58 H          49.8139   -9.2867   56.8528 H         1 DEY579      0.0000 
     59 H          48.6760   -8.2975   57.4121 H         1 DEY579      0.0000 
     60 H          48.4075   -9.8821   57.3563 H         1 DEY579      0.0000 
     61 H          53.6558   -6.1620   53.0937 H         1 DEY579      0.0000 
@<TRIPOS>BOND
     1    2    1 2    
     2    3    2 2    
     3    4    2 1    
     4   14    2 1    
     5    5    4 ar   
     6   17    4 ar   
     7    6    5 ar   
     8   37    5 1    
     9    7    6 1    
    10   13    6 ar   
    11    8    7 1    
    12    9    8 1    
    13   10    8 1    
    14   38    8 1    
    15   52    9 1    
    16   53    9 1    
    17   54    9 1    
    18   11   10 2    
    19   12   10 am   
    20   39   12 1    
    21   40   12 1    
    22   18   13 ar   
    23   41   13 1    
    24   15   14 1    
    25   42   14 1    
    26   16   15 2    
    27   19   15 1    
    28   17   16 1    
    29   18   17 ar   
    30   43   18 1    
    31   20   19 2    
    32   22   19 1    
    33   21   20 1    
    34   31   20 1    
    35   61   21 1    
    36   23   22 2    
    37   24   22 am   
    38   25   24 1    
    39   30   24 1    
    40   26   25 1    
    41   44   25 1    
    42   45   25 1    
    43   27   26 1    
    44   46   26 1    
    45   47   26 1    
    46   28   27 1    
    47   29   27 1    
    48   48   27 1    
    49   55   28 1    
    50   56   28 1    
    51   57   28 1    
    52   58   29 1    
    53   59   29 1    
    54   60   29 1    
    55   31   30 2    
    56   32   31 1    
    57   33   32 2    
    58   34   32 1    
    59   36   33 1    
    60   49   33 1    
    61   35   34 1    
    62   36   35 2    
    63   50   35 1    
    64   51   36 1    
@<TRIPOS>SUBSTRUCTURE
     1 DEY579      1 GROUP   
@<TRIPOS>SET

