#    Name: 2ivi_ACW_1_INTS_M
#    Modification time : Tue Mar 25 18:44:37 2014

@<TRIPOS>MOLECULE
2ivi_ACW_1_INTS_M
   61     0     9     0     0
SMALL
NO_CHARGES


@<TRIPOS>ATOM
      1 CA         16.2135   34.5585    6.8245 C.3       3 GLC5        0.0000 
      2 CA         15.7680   36.4050    6.1490 C.3       9 GLL5        0.0000 
      3 CA         16.6590   32.7120    7.5000 C.3       6 GLP5        0.0000 
      4 CA         14.3535   34.8940    5.9715 C.3       3 GLC5        0.0000 
      5 CA         12.9390   33.3830    5.7940 C.3       6 GLP5        0.0000 
      6 CA         16.2345   39.1315    4.8185 C.3       3 GLC5        0.0000 
      7 CA         15.2250   37.6330    5.4240 C.3       9 GLL5        0.0000 
      8 CA         17.2440   40.6300    4.2130 C.3       6 GLP5        0.0000 
      9 CA         15.3040   39.9570    4.7215 C.3       3 GLC5        0.0000 
     10 CA         13.3640   39.2840    5.2300 C.3       9 GLL5        0.0000 
     11 CA         12.9675   41.1605    4.8830 C.3       3 GLC5        0.0000 
     12 CA         12.5710   43.0370    4.5360 C.3       6 GLP5        0.0000 
     13 CA         10.5380   38.2135    3.5340 C.3       3 GLC5        0.0000 
     14 CA          9.5600   39.6860    4.8810 C.3       9 GLL5        0.0000 
     15 CA         11.5160   36.7410    2.1870 C.3       6 GLP5        0.0000 
     16 CA         10.8475   41.8300    4.1300 C.3       3 GLC5        0.0000 
     17 CA          9.1240   40.6230    3.7240 C.3       9 GLL5        0.0000 
     18 CA         10.5640   38.4960    1.5150 C.3       3 GLC5        0.0000 
     19 CA          9.4290   39.8090    2.1330 C.3       9 GLL5        0.0000 
     20 CA         11.6990   37.1830    0.8970 C.3       6 GLP5        0.0000 
     21 NZ         18.6710   35.5960    3.9730 N.4       2 LYC4        0.0000 
     22 NZ         17.3550   35.9090    4.4440 N.4       8 LYL4        0.0000 
     23 NZ         21.0070   35.4950    4.3360 N.4       5 LYP4        0.0000 
     24 N          18.6710   35.5960    3.9730 N.am      1 SEC2        0.0000 
     25 N          17.3550   35.9090    4.4440 N.am      7 SEL2        0.0000 
     26 N          19.9870   35.2830    3.5020 N.am      4 SEP2        0.0000 
     27 N          16.8930   34.8600    3.7465 N.am      1 SEC2        0.0000 
     28 N          16.4310   33.8110    3.0490 N.am      4 SEP2        0.0000 
     29 NZ         19.4580   36.1610    6.0260 N.4       2 LYC4        0.0000 
     30 NZ         18.1450   36.3100    6.5110 N.4       8 LYL4        0.0000 
     31 N          19.4580   36.1610    6.0260 N.am      1 SEC2        0.0000 
     32 N          18.1450   36.3100    6.5110 N.am      7 SEL2        0.0000 
     33 N          20.7710   36.0120    5.5410 N.am      4 SEP2        0.0000 
     34 CA          7.0775   35.9290    5.6275 C.3       3 GLC5        0.0000 
     35 CA          6.6180   37.3200    4.5800 C.3       9 GLL5        0.0000 
     36 CA          7.5370   34.5380    6.6750 C.3       6 GLP5        0.0000 
     37 CA          9.4075   36.7505    2.1690 C.3       3 GLC5        0.0000 
     38 CA          7.2990   36.7600    2.1510 C.3       9 GLL5        0.0000 
     39 CA          3.6345   38.7655    1.8020 C.3       3 GLC5        0.0000 
     40 CA          5.5120   38.5690    2.5350 C.3       9 GLL5        0.0000 
     41 CA          1.7570   38.9620    1.0690 C.3       6 GLP5        0.0000 
     42 CA          4.0820   39.3460    3.5170 C.3       3 GLC5        0.0000 
     43 CA          2.6520   40.1230    4.4990 C.3       6 GLP5        0.0000 
     44 N           4.4420   38.1550    7.3745 N.am      1 SEC2        0.0000 
     45 N           5.2030   38.1810    6.3380 N.am      7 SEL2        0.0000 
     46 N           3.6810   38.1290    8.4110 N.am      4 SEP2        0.0000 
     47 N           4.4960   35.1875    4.5745 N.am      1 SEC2        0.0000 
     48 N           4.5180   36.4460    5.1250 N.am      7 SEL2        0.0000 
     49 N           4.4740   33.9290    4.0240 N.am      4 SEP2        0.0000 
     50 CA         13.1928   37.2189    4.1143 C.3       3 GLC5        0.0000 
     51 CA         13.7850   37.9580    5.9300 C.3       9 GLL5        0.0000 
     52 CA         12.4510   35.8980    2.7750 C.3       6 GLP5        0.0000 
     53 CA          8.5100   41.6003    5.0328 C.3       3 GLC5        0.0000 
     54 CA          7.6780   43.0460    5.7630 C.3       6 GLP5        0.0000 
     55 CA          8.8997   41.8785    2.2992 C.3       3 GLC5        0.0000 
     56 CA          8.5230   43.5410    1.6700 C.3       6 GLP5        0.0000 
     57 CA          6.3003   34.7000    1.4692 C.3       3 GLC5        0.0000 
     58 CA          5.8850   33.0210    0.6910 C.3       6 GLP5        0.0000 
     59 CA          8.1058   35.0420    1.9643 C.3       3 GLC5        0.0000 
     60 CA          6.1320   35.9980    2.3440 C.3       9 GLL5        0.0000 
     61 CA          9.4960   33.7050    1.6810 C.3       6 GLP5        0.0000 
@<TRIPOS>BOND
@<TRIPOS>SUBSTRUCTURE
     1 SEC2       24 GROUP        1 X    SEC  0     ROOT SEC X 2
     2 LYC4       21 GROUP        1 X    LYC  0     **** LYC X 4
     3 GLC5        1 GROUP        1 X    GLC  0     **** GLC X 6
     4 SEP2       26 GROUP        1 Y    SEP  0     ROOT SEP Y 9
     5 LYP4       23 GROUP        1 Y    LYP  0     **** LYP Y 11
     6 GLP5        3 GROUP        1 Y    GLP  0     **** GLP Y 13
     7 SEL2       25 GROUP        1 Z    SEL  0     ROOT SEL Z 16
     8 LYL4       22 GROUP        1 Z    LYL  0     **** LYL Z 18
     9 GLL5        2 GROUP        1 Z    GLL  0     **** GLL Z 20
@<TRIPOS>SET

