#    Name: 2ivi_ACW_1_ligand
#    Modification time : Tue Mar 25 18:44:37 2014

@<TRIPOS>MOLECULE
2ivi_ACW_1_ligand
   48    48     1     0     0
SMALL
NO_CHARGES


@<TRIPOS>ATOM
      1 C1         17.2040   36.1850    5.6680 C.2       1 ACW1332     0.0000 
      2 C2         15.7680   36.4050    6.1490 C.3       1 ACW1332     0.0000 
      3 C3         15.2250   37.6330    5.4240 C.3       1 ACW1332     0.0000 
      4 C4         13.7850   37.9580    5.9300 C.3       1 ACW1332     0.0000 
      5 C7         13.3640   39.2840    5.2300 C.3       1 ACW1332     0.0000 
      6 C10        11.9410   39.5670    5.5930 C.2       1 ACW1332     0.0000 
      7 N11        10.9890   39.4380    4.6880 N.am      1 ACW1332     0.0000 
      8 C12         9.5600   39.6860    4.8810 C.3       1 ACW1332     0.0000 
      9 C13         8.8320   38.3460    4.8480 C.2       1 ACW1332     0.0000 
     10 N14        15.7770   36.5660    7.6670 N.4       1 ACW1332     0.0000 
     11 O15        11.6440   39.9400    6.7520 O.2       1 ACW1332     0.0000 
     12 C16         9.1240   40.6230    3.7240 C.3       1 ACW1332     0.0000 
     13 S17         9.4290   39.8090    2.1330 S.3       1 ACW1332     0.0000 
     14 O18         9.3720   37.2610    4.7490 O.2       1 ACW1332     0.0000 
     15 O19        17.3550   35.9090    4.4440 O.co2     1 ACW1332     0.0000 
     16 O20        18.1450   36.3100    6.5110 O.co2     1 ACW1332     0.0000 
     17 N29         7.5040   38.4350    4.9250 N.am      1 ACW1332     0.0000 
     18 C30         6.6180   37.3200    4.5800 C.3       1 ACW1332     0.0000 
     19 C31         5.3580   37.3550    5.4320 C.2       1 ACW1332     0.0000 
     20 C32         6.2880   37.3220    3.0470 C.3       1 ACW1332     0.0000 
     21 C33         7.2990   36.7600    2.1510 C.3       1 ACW1332     0.0000 
     22 C37         5.5120   38.5690    2.5350 C.3       1 ACW1332     0.0000 
     23 O42         5.2030   38.1810    6.3380 O.co2     1 ACW1332     0.0000 
     24 O43         4.5180   36.4460    5.1250 O.co2     1 ACW1332     0.0000 
     25 C40         6.1320   35.9980    2.3440 C.3       1 ACW1332     0.0000 
     26 H          15.1900   35.5463    5.8783 H         1 ACW1332     0.0000 
     27 H          15.1806   37.4429    4.3598 H         1 ACW1332     0.0000 
     28 H          15.8593   38.4872    5.6204 H         1 ACW1332     0.0000 
     29 H          13.8075   38.1057    6.9827 H         1 ACW1332     0.0000 
     30 H          13.1249   37.1780    5.6360 H         1 ACW1332     0.0000 
     31 H          13.4680   39.1521    4.1656 H         1 ACW1332     0.0000 
     32 H          14.0115   40.0712    5.5797 H         1 ACW1332     0.0000 
     33 H          11.2339   39.1203    3.6881 H         1 ACW1332     0.0000 
     34 H           9.3877   40.1766    5.8034 H         1 ACW1332     0.0000 
     35 H           9.7100   41.4990    3.6555 H         1 ACW1332     0.0000 
     36 H           8.0828   40.7989    3.7017 H         1 ACW1332     0.0000 
     37 H           7.0233   39.3089    5.2369 H         1 ACW1332     0.0000 
     38 H           7.1349   36.3718    4.7855 H         1 ACW1332     0.0000 
     39 H           8.0385   36.4171    2.6790 H         1 ACW1332     0.0000 
     40 H           7.2763   37.2365    1.3050 H         1 ACW1332     0.0000 
     41 H           5.5068   36.1253    1.6241 H         1 ACW1332     0.0000 
     42 H           6.2690   35.3060    2.9980 H         1 ACW1332     0.0000 
     43 H          15.4091   37.4521    7.9487 H         1 ACW1332     0.0000 
     44 H          15.2268   35.8634    8.1183 H         1 ACW1332     0.0000 
     45 H          16.7017   36.4999    8.0420 H         1 ACW1332     0.0000 
     46 H           6.0207   39.4148    2.6958 H         1 ACW1332     0.0000 
     47 H           5.3325   38.5172    1.5526 H         1 ACW1332     0.0000 
     48 H           4.6270   38.6682    2.9898 H         1 ACW1332     0.0000 
@<TRIPOS>BOND
     1    2    1 1    
     2   15    1 ar   
     3   16    1 ar   
     4    3    2 1    
     5   10    2 1    
     6   26    2 1    
     7    4    3 1    
     8   27    3 1    
     9   28    3 1    
    10    5    4 1    
    11   29    4 1    
    12   30    4 1    
    13    6    5 1    
    14   31    5 1    
    15   32    5 1    
    16    7    6 am   
    17   11    6 2    
    18    8    7 1    
    19   33    7 1    
    20    9    8 1    
    21   12    8 1    
    22   34    8 1    
    23   14    9 2    
    24   17    9 am   
    25   43   10 1    
    26   44   10 1    
    27   45   10 1    
    28   13   12 1    
    29   35   12 1    
    30   36   12 1    
    31   18   17 1    
    32   37   17 1    
    33   19   18 1    
    34   20   18 1    
    35   38   18 1    
    36   23   19 ar   
    37   24   19 ar   
    38   21   20 1    
    39   22   20 1    
    40   25   20 1    
    41   25   21 1    
    42   39   21 1    
    43   40   21 1    
    44   46   22 1    
    45   47   22 1    
    46   48   22 1    
    47   41   25 1    
    48   42   25 1    
@<TRIPOS>SUBSTRUCTURE
     1 ACW1332     1 GROUP   
@<TRIPOS>SET

