#    Name: 2ycq_UPX_1_INTS_M
#    Modification time : Tue Mar 25 08:41:14 2014

@<TRIPOS>MOLECULE
2ycq_UPX_1_INTS_M
   66     0     9     0     0
SMALL
NO_CHARGES


@<TRIPOS>ATOM
      1 N         -49.4625  -14.6505  -12.2845 N.am      2 SEC2        0.0000 
      2 N         -49.5680  -15.8120  -11.4110 N.am      8 SEL2        0.0000 
      3 N         -49.3570  -13.4890  -13.1580 N.am      5 SEP2        0.0000 
      4 CA        -47.8430  -17.4480   -6.4355 C.3       3 GLC5        0.0000 
      5 CA        -46.6330  -17.0350   -7.9760 C.3       9 GLL5        0.0000 
      6 CA        -49.0530  -17.8610   -4.8950 C.3       6 GLP5        0.0000 
      7 CA        -48.9080  -18.9750   -9.9235 C.3       3 GLC5        0.0000 
      8 CA        -47.6710  -17.1180   -9.9160 C.3       9 GLL5        0.0000 
      9 CA        -50.1450  -20.8320   -9.9310 C.3       6 GLP5        0.0000 
     10 CA        -49.1650  -17.3885   -8.3500 C.3       3 GLC5        0.0000 
     11 CA        -50.6590  -17.6590   -6.7840 C.3       6 GLP5        0.0000 
     12 CA        -49.0845  -16.8415   -7.4355 C.3       3 GLC5        0.0000 
     13 CA        -47.5100  -16.0240   -8.0870 C.3       9 GLL5        0.0000 
     14 CA        -48.1700  -15.9740   -4.8850 C.3       3 GLC5        0.0000 
     15 CA        -47.2870  -14.0870   -4.8750 C.3       9 GLL5        0.0000 
     16 CA        -47.4875  -14.8785   -1.6440 C.3       3 GLC5        0.0000 
     17 CA        -46.6170  -13.5380   -2.5870 C.3       9 GLL5        0.0000 
     18 CA        -48.3580  -16.2190   -0.7010 C.3       6 GLP5        0.0000 
     19 CA        -45.0520  -12.4915   -1.6940 C.3       3 GLC5        0.0000 
     20 CA        -43.4870  -11.4450   -0.8010 C.3       6 GLP5        0.0000 
     21 CA        -49.7815  -13.8805   -3.7400 C.3       3 GLC5        0.0000 
     22 CA        -48.2170  -13.0670   -4.8260 C.3       9 GLL5        0.0000 
     23 CA        -51.3460  -14.6940   -2.6540 C.3       6 GLP5        0.0000 
     24 CA        -49.1645  -11.8545   -6.0885 C.3       3 GLC5        0.0000 
     25 CA        -50.1120  -10.6420   -7.3510 C.3       6 GLP5        0.0000 
     26 CA        -50.1015  -11.9810   -4.7685 C.3       3 GLC5        0.0000 
     27 CA        -48.3440  -12.2810   -3.6710 C.3       9 GLL5        0.0000 
     28 CA        -51.8590  -11.6810   -5.8660 C.3       6 GLP5        0.0000 
     29 CA        -45.9355  -11.3280   -1.7215 C.3       3 GLC5        0.0000 
     30 CA        -47.5480  -12.4930   -2.5420 C.3       9 GLL5        0.0000 
     31 CA        -44.3230  -10.1630   -0.9010 C.3       6 GLP5        0.0000 
     32 CA        -48.2540   -9.0500   -2.9695 C.3       3 GLC5        0.0000 
     33 CA        -48.2940  -10.2880   -1.4510 C.3       9 GLL5        0.0000 
     34 CA        -48.2140   -7.8120   -4.4880 C.3       6 GLP5        0.0000 
     35 CA        -50.0950  -10.6685   -0.5100 C.3       3 GLC5        0.0000 
     36 CA        -51.8960  -11.0490    0.4310 C.3       6 GLP5        0.0000 
     37 CA        -46.3085  -10.2255   -1.1760 C.3       3 GLC5        0.0000 
     38 O         -47.3200  -10.1885    1.1520 O.2       1 ALC1        0.0000 
     39 O         -47.3570  -11.5860    0.8690 O.2       7 ALL1        0.0000 
     40 O         -47.2830   -8.7910    1.4350 O.2       4 ALP1        0.0000 
     41 CA        -45.5130  -10.8710    4.3750 C.3       3 GLC5        0.0000 
     42 CA        -46.5010  -12.6080    4.2190 C.3       9 GLL5        0.0000 
     43 CA        -44.5250   -9.1340    4.5310 C.3       6 GLP5        0.0000 
     44 CA        -46.4370  -15.5370    4.1855 C.3       3 GLC5        0.0000 
     45 CA        -46.1550  -13.8310    3.4020 C.3       9 GLL5        0.0000 
     46 CA        -46.7190  -17.2430    4.9690 C.3       6 GLP5        0.0000 
     47 CA        -45.8040  -17.7578  -11.9415 C.3       3 GLC5        0.0000 
     48 CA        -47.3380  -18.7390  -11.6610 C.3       9 GLL5        0.0000 
     49 CA        -43.9420  -17.3430  -12.4650 C.3       6 GLP5        0.0000 
     50 CA        -48.5828  -19.8016  -10.5362 C.3       3 GLC5        0.0000 
     51 CA        -46.3750  -19.3700  -10.8650 C.3       9 GLL5        0.0000 
     52 CA        -45.2050  -17.8873  -11.0697 C.3       3 GLC5        0.0000 
     53 CA        -45.5892  -15.2528   -8.2963 C.3       3 GLC5        0.0000 
     54 CA        -44.1070  -13.9760   -8.5610 C.3       6 GLP5        0.0000 
     55 CA        -48.1808  -15.1790   -3.0323 C.3       3 GLC5        0.0000 
     56 CA        -49.4690  -16.1600   -1.7560 C.3       6 GLP5        0.0000 
     57 CA        -46.8205  -12.8825   -6.6318 C.3       3 GLC5        0.0000 
     58 CA        -45.8890  -12.1880   -8.4130 C.3       6 GLP5        0.0000 
     59 CA        -45.3139  -12.6500   -4.2209 C.3       3 GLC5        0.0000 
     60 CA        -43.8730  -11.4320   -4.9940 C.3       6 GLP5        0.0000 
     61 CA        -49.1335  -13.6550   -2.3247 C.3       3 GLC5        0.0000 
     62 CA        -50.3210  -14.9230   -1.5430 C.3       6 GLP5        0.0000 
     63 CA        -46.3426  -11.3978   -4.2536 C.3       3 GLC5        0.0000 
     64 CA        -44.7710  -10.2120   -5.1120 C.3       6 GLP5        0.0000 
     65 CA        -48.3410  -13.2338    3.1753 C.3       3 GLC5        0.0000 
     66 CA        -50.3540  -13.2480    2.5400 C.3       6 GLP5        0.0000 
@<TRIPOS>BOND
@<TRIPOS>SUBSTRUCTURE
     1 ALC1       38 GROUP        1 X    ALC  0     ROOT ALC X 1
     2 SEC2        1 GROUP        1 X    SEC  0     **** SEC X 2
     3 GLC5        4 GROUP        1 X    GLC  0     **** GLC X 6
     4 ALP1       40 GROUP        1 Y    ALP  0     ROOT ALP Y 8
     5 SEP2        3 GROUP        1 Y    SEP  0     **** SEP Y 9
     6 GLP5        6 GROUP        1 Y    GLP  0     **** GLP Y 13
     7 ALL1       39 GROUP        1 Z    ALL  0     ROOT ALL Z 15
     8 SEL2        2 GROUP        1 Z    SEL  0     **** SEL Z 16
     9 GLL5        5 GROUP        1 Z    GLL  0     **** GLL Z 20
@<TRIPOS>SET

