#    Name: 2ycq_UPX_1_ligand
#    Modification time : Tue Mar 25 08:41:14 2014

@<TRIPOS>MOLECULE
2ycq_UPX_1_ligand
   47    50     1     0     0
SMALL
NO_CHARGES


@<TRIPOS>ATOM
      1 OBB       -49.5680  -15.8120  -11.4110 O.2       1 UPX600      0.0000 
      2 NAB       -48.9160  -16.9670  -11.8910 N.pl3     1 UPX600      0.0000 
      3 OBC       -49.2380  -17.3740  -13.1800 O.2       1 UPX600      0.0000 
      4 CAJ       -47.9940  -17.6060  -11.1750 C.ar      1 UPX600      0.0000 
      5 CAI       -47.3380  -18.7390  -11.6610 C.ar      1 UPX600      0.0000 
      6 CAH       -46.3750  -19.3700  -10.8650 C.ar      1 UPX600      0.0000 
      7 CAM       -46.0670  -18.8780   -9.5990 C.ar      1 UPX600      0.0000 
      8 CAL       -46.7150  -17.7390   -9.1170 C.ar      1 UPX600      0.0000 
      9 CAO       -46.6330  -17.0350   -7.9760 C.2       1 UPX600      0.0000 
     10 CAK       -47.6710  -17.1180   -9.9160 C.ar      1 UPX600      0.0000 
     11 NAA       -48.1330  -16.0760   -9.2540 N.pl3     1 UPX600      0.0000 
     12 CAN       -47.5100  -16.0240   -8.0870 C.2       1 UPX600      0.0000 
     13 CAP       -47.8480  -14.9140   -7.0760 C.2       1 UPX600      0.0000 
     14 OBD       -48.7420  -14.1150   -7.3760 O.2       1 UPX600      0.0000 
     15 NAC       -47.1270  -14.9100   -5.9370 N.am      1 UPX600      0.0000 
     16 CAQ       -47.2870  -14.0870   -4.8750 C.ar      1 UPX600      0.0000 
     17 CAV       -46.4980  -14.3090   -3.7420 C.ar      1 UPX600      0.0000 
     18 CAU       -46.6170  -13.5380   -2.5870 C.ar      1 UPX600      0.0000 
     19 CAR       -48.2170  -13.0670   -4.8260 C.ar      1 UPX600      0.0000 
     20 CAS       -48.3440  -12.2810   -3.6710 C.ar      1 UPX600      0.0000 
     21 CAT       -47.5480  -12.4930   -2.5420 C.ar      1 UPX600      0.0000 
     22 CAW       -47.6830  -11.6990   -1.3920 C.2       1 UPX600      0.0000 
     23 CAX       -48.2940  -10.2880   -1.4510 C.3       1 UPX600      0.0000 
     24 NAD       -47.3100  -12.2040   -0.2110 N.2       1 UPX600      0.0000 
     25 NAE       -47.3570  -11.5860    0.8690 N.pl3     1 UPX600      0.0000 
     26 CAY       -46.9740  -12.2050    2.0030 C.2       1 UPX600      0.0000 
     27 NAF       -47.0180  -11.6760    3.2280 N.2       1 UPX600      0.0000 
     28 CAZ       -46.5010  -12.6080    4.2190 C.2       1 UPX600      0.0000 
     29 CBA       -46.1550  -13.8310    3.4020 C.2       1 UPX600      0.0000 
     30 NAG       -46.5340  -13.4560    2.0400 N.pl3     1 UPX600      0.0000 
     31 H         -47.5580  -19.1052  -12.5890 H         1 UPX600      0.0000 
     32 H         -45.8906  -20.2071  -11.2221 H         1 UPX600      0.0000 
     33 H         -45.3642  -19.3514   -9.0193 H         1 UPX600      0.0000 
     34 H         -46.0622  -17.2179   -7.2310 H         1 UPX600      0.0000 
     35 H         -48.8130  -15.4520   -9.5655 H         1 UPX600      0.0000 
     36 H         -46.3288  -15.6485   -5.8616 H         1 UPX600      0.0000 
     37 H         -45.7955  -15.0800   -3.7640 H         1 UPX600      0.0000 
     38 H         -46.0270  -13.7327   -1.7726 H         1 UPX600      0.0000 
     39 H         -48.8240  -12.8751   -5.6353 H         1 UPX600      0.0000 
     40 H         -49.0507  -11.5200   -3.6567 H         1 UPX600      0.0000 
     41 H         -47.6868  -10.5848    0.9457 H         1 UPX600      0.0000 
     42 H         -46.4007  -12.5150    5.0876 H         1 UPX600      0.0000 
     43 H         -45.8071  -14.5807    3.7034 H         1 UPX600      0.0000 
     44 H         -46.4477  -14.0880    1.3154 H         1 UPX600      0.0000 
     45 H         -48.3226   -9.8576   -0.5488 H         1 UPX600      0.0000 
     46 H         -47.7702   -9.6812   -2.0488 H         1 UPX600      0.0000 
     47 H         -49.2317  -10.3035   -1.7981 H         1 UPX600      0.0000 
@<TRIPOS>BOND
     1    2    1 2    
     2    3    2 2    
     3    4    2 1    
     4    5    4 ar   
     5   10    4 ar   
     6    6    5 ar   
     7   31    5 1    
     8    7    6 ar   
     9   32    6 1    
    10    8    7 ar   
    11   33    7 1    
    12    9    8 1    
    13   10    8 ar   
    14   12    9 2    
    15   34    9 1    
    16   11   10 1    
    17   12   11 1    
    18   35   11 1    
    19   13   12 1    
    20   14   13 2    
    21   15   13 am   
    22   16   15 1    
    23   36   15 1    
    24   17   16 ar   
    25   19   16 ar   
    26   18   17 ar   
    27   37   17 1    
    28   21   18 ar   
    29   38   18 1    
    30   20   19 ar   
    31   39   19 1    
    32   21   20 ar   
    33   40   20 1    
    34   22   21 1    
    35   23   22 1    
    36   24   22 2    
    37   45   23 1    
    38   46   23 1    
    39   47   23 1    
    40   25   24 1    
    41   26   25 1    
    42   41   25 1    
    43   27   26 2    
    44   30   26 1    
    45   28   27 1    
    46   29   28 2    
    47   42   28 1    
    48   30   29 1    
    49   43   29 1    
    50   44   30 1    
@<TRIPOS>SUBSTRUCTURE
     1 UPX600      1 GROUP   
@<TRIPOS>SET

