#    Name: 1dd6_MCI_1_INTS_M
#    Modification time : Mon Mar 24 21:40:12 2014

@<TRIPOS>MOLECULE
1dd6_MCI_1_INTS_M
   52     0     9     0     0
SMALL
NO_CHARGES


@<TRIPOS>ATOM
      1 CA          5.6880    8.2485   89.5230 C.3       3 GLC5        0.0000 
      2 CA          6.6870    8.4860   87.5410 C.3       9 GLL5        0.0000 
      3 CA          4.6890    8.0110   91.5050 C.3       6 GLP5        0.0000 
      4 CA         10.5415   10.1590   88.8455 C.3       3 GLC5        0.0000 
      5 CA         11.6340   11.6900   87.6210 C.3       9 GLL5        0.0000 
      6 CA          9.4490    8.6280   90.0700 C.3       6 GLP5        0.0000 
      7 CA         14.0760    9.2910   87.9465 C.3       3 GLC5        0.0000 
      8 CA         13.3170   11.0780   87.3330 C.3       9 GLL5        0.0000 
      9 CA         14.8350    7.5040   88.5600 C.3       6 GLP5        0.0000 
     10 NZ         16.0840   10.5675   83.6390 N.4       2 LYC4        0.0000 
     11 NZ         14.9770   11.8050   83.6480 N.4       8 LYL4        0.0000 
     12 NZ         17.1910    9.3300   83.6300 N.4       5 LYP4        0.0000 
     13 N          16.0840   10.5675   83.6390 N.am      1 SEC2        0.0000 
     14 N          14.9770   11.8050   83.6480 N.am      7 SEL2        0.0000 
     15 N          17.1910    9.3300   83.6300 N.am      4 SEP2        0.0000 
     16 N          15.2620   12.6740   82.5170 N.am      1 SEC2        0.0000 
     17 N          15.5470   13.5430   81.3860 N.am      4 SEP2        0.0000 
     18 NZ         16.0055    9.6095   84.1950 N.4       2 LYC4        0.0000 
     19 NZ         14.8200    9.8890   84.7600 N.4       8 LYL4        0.0000 
     20 N          16.0055    9.6095   84.1950 N.am      1 SEC2        0.0000 
     21 N          14.8200    9.8890   84.7600 N.am      7 SEL2        0.0000 
     22 CA         10.3645   10.9315   79.0345 C.3       3 GLC5        0.0000 
     23 CA         11.7110   10.2710   80.2370 C.3       9 GLL5        0.0000 
     24 CA          9.0180   11.5920   77.8320 C.3       6 GLP5        0.0000 
     25 CA         11.2345    7.8460   81.8720 C.3       3 GLC5        0.0000 
     26 CA         13.1630    8.8770   81.8440 C.3       9 GLL5        0.0000 
     27 CA          9.3060    6.8150   81.9000 C.3       6 GLP5        0.0000 
     28 CA         15.0070    8.4625   82.4245 C.3       3 GLC5        0.0000 
     29 CA         16.8510    8.0480   83.0050 C.3       6 GLP5        0.0000 
     30 CA         10.5570    8.1925   79.5895 C.3       3 GLC5        0.0000 
     31 CA         12.7540    8.1470   79.1190 C.3       9 GLL5        0.0000 
     32 CA          8.3600    8.2380   80.0600 C.3       6 GLP5        0.0000 
     33 CA          8.5587    7.5848   83.5798 C.3       3 GLC5        0.0000 
     34 CA          7.6090    7.6980   85.4150 C.3       9 GLL5        0.0000 
     35 CA          5.9049    8.5796   85.1574 C.3       3 GLC5        0.0000 
     36 CA          4.0610    8.5370   84.8300 C.3       6 GLP5        0.0000 
     37 CA          5.2734    8.4031   86.6364 C.3       3 GLC5        0.0000 
     38 CA          6.9500    7.4380   86.6310 C.3       9 GLL5        0.0000 
     39 CA          3.6290    8.5170   86.2640 C.3       6 GLP5        0.0000 
     40 CA          8.1834    8.4586   88.5394 C.3       3 GLC5        0.0000 
     41 CA          7.6461    6.2840   87.2615 C.3       3 GLC5        0.0000 
     42 CA          8.3090    4.5410   87.7410 C.3       6 GLP5        0.0000 
     43 CA          7.3819   10.7991   84.0654 C.3       3 GLC5        0.0000 
     44 CA          8.0140    9.0110   85.1040 C.3       9 GLL5        0.0000 
     45 CA          6.6990   11.0790   82.5130 C.3       6 GLP5        0.0000 
     46 CA         12.6578   12.0950   89.3930 C.3       3 GLC5        0.0000 
     47 CA         12.8400   12.8060   91.3090 C.3       6 GLP5        0.0000 
     48 CA         13.0850    8.3865   83.4433 C.3       3 GLC5        0.0000 
     49 CA         12.5350   10.3890   82.4270 C.3       9 GLL5        0.0000 
     50 CA         13.3210    7.1400   84.7510 C.3       6 GLP5        0.0000 
     51 CA         10.2230    8.9737   80.1513 C.3       3 GLC5        0.0000 
     52 CA         12.4610    9.1480   80.2480 C.3       9 GLL5        0.0000 
@<TRIPOS>BOND
@<TRIPOS>SUBSTRUCTURE
     1 SEC2       13 GROUP        1 X    SEC  0     ROOT SEC X 2
     2 LYC4       10 GROUP        1 X    LYC  0     **** LYC X 4
     3 GLC5        1 GROUP        1 X    GLC  0     **** GLC X 6
     4 SEP2       15 GROUP        1 Y    SEP  0     ROOT SEP Y 9
     5 LYP4       12 GROUP        1 Y    LYP  0     **** LYP Y 11
     6 GLP5        3 GROUP        1 Y    GLP  0     **** GLP Y 13
     7 SEL2       14 GROUP        1 Z    SEL  0     ROOT SEL Z 16
     8 LYL4       11 GROUP        1 Z    LYL  0     **** LYL Z 18
     9 GLL5        2 GROUP        1 Z    GLL  0     **** GLL Z 20
@<TRIPOS>SET

