#    Name: 1dd6_MCI_1_ligand
#    Modification time : Mon Mar 24 21:40:12 2014

@<TRIPOS>MOLECULE
1dd6_MCI_1_ligand
   46    48     1     0     0
SMALL
NO_CHARGES


@<TRIPOS>ATOM
      1 C2          7.7630   10.0820   86.0050 C.ar      1 MCI550      0.0000 
      2 C1          7.0840    9.7950   87.2320 C.ar      1 MCI550      0.0000 
      3 C3          8.0140    9.0110   85.1040 C.ar      1 MCI550      0.0000 
      4 C4          7.6090    7.6980   85.4150 C.ar      1 MCI550      0.0000 
      5 C5          6.9500    7.4380   86.6310 C.ar      1 MCI550      0.0000 
      6 C6          6.6870    8.4860   87.5410 C.ar      1 MCI550      0.0000 
      7 C12         8.2410   11.4920   85.6810 C.3       1 MCI550      0.0000 
      8 C13         9.3500   12.0820   86.5900 C.3       1 MCI550      0.0000 
      9 C16        10.7910   11.5830   86.3410 C.3       1 MCI550      0.0000 
     10 C19        11.6340   11.6900   87.6210 C.3       1 MCI550      0.0000 
     11 S20        13.3170   11.0780   87.3330 S.3       1 MCI550      0.0000 
     12 C23        11.4890   12.5060   85.2480 C.2       1 MCI550      0.0000 
     13 O25        11.5360   13.7060   85.4280 O.2       1 MCI550      0.0000 
     14 N26        12.0460   12.0010   84.1350 N.2       1 MCI550      0.0000 
     15 C27        12.7760   10.7730   83.8560 C.2       1 MCI550      0.0000 
     16 C28        14.3130   10.9210   84.0740 C.2       1 MCI550      0.0000 
     17 O29        14.9770   11.8050   83.6480 O.co2     1 MCI550      0.0000 
     18 O30        14.8200    9.8890   84.7600 O.co2     1 MCI550      0.0000 
     19 C31        12.5350   10.3890   82.4270 C.2       1 MCI550      0.0000 
     20 C33        11.8900   11.0730   81.4570 C.2       1 MCI550      0.0000 
     21 C34        11.7110   10.2710   80.2370 C.2       1 MCI550      0.0000 
     22 C35        12.4610    9.1480   80.2480 C.2       1 MCI550      0.0000 
     23 S36        13.1630    8.8770   81.8440 S.3       1 MCI550      0.0000 
     24 C37        12.7540    8.1470   79.1190 C.3       1 MCI550      0.0000 
     25 N38        14.1280    8.0390   78.4880 N.pl3     1 MCI550      0.0000 
     26 C41        15.3340    8.4700   79.1050 C.2       1 MCI550      0.0000 
     27 N42        16.2670    9.0100   78.2380 N.2       1 MCI550      0.0000 
     28 N43        15.5730    9.1100   77.0390 N.2       1 MCI550      0.0000 
     29 N44        14.1990    8.7830   77.2620 N.2       1 MCI550      0.0000 
     30 H           6.8919   10.5626   87.8828 H         1 MCI550      0.0000 
     31 H           8.4957    9.2024   84.2192 H         1 MCI550      0.0000 
     32 H           7.7935    6.9371   84.7592 H         1 MCI550      0.0000 
     33 H           6.6579    6.4826   86.8601 H         1 MCI550      0.0000 
     34 H           6.2083    8.2860   88.4211 H         1 MCI550      0.0000 
     35 H           7.3701   12.1854   85.7077 H         1 MCI550      0.0000 
     36 H           8.6084   11.5180   84.6301 H         1 MCI550      0.0000 
     37 H           9.0821   11.8743   87.6476 H         1 MCI550      0.0000 
     38 H           9.3360   13.1875   86.4853 H         1 MCI550      0.0000 
     39 H          10.7893   10.5959   85.9849 H         1 MCI550      0.0000 
     40 H          11.2914   11.0622   88.4072 H         1 MCI550      0.0000 
     41 H          11.8029   12.6915   87.9341 H         1 MCI550      0.0000 
     42 H          11.5600   11.9829   81.4974 H         1 MCI550      0.0000 
     43 H          11.1074   10.5696   79.5397 H         1 MCI550      0.0000 
     44 H          11.9958    8.3356   78.2909 H         1 MCI550      0.0000 
     45 H          12.4512    7.1147   79.4917 H         1 MCI550      0.0000 
     46 H          15.4763    8.3824   80.0786 H         1 MCI550      0.0000 
@<TRIPOS>BOND
     1    2    1 ar   
     2    3    1 ar   
     3    7    1 1    
     4    6    2 ar   
     5   30    2 1    
     6    4    3 ar   
     7   31    3 1    
     8    5    4 ar   
     9   32    4 1    
    10    6    5 ar   
    11   33    5 1    
    12   34    6 1    
    13    8    7 1    
    14   35    7 1    
    15   36    7 1    
    16    9    8 1    
    17   37    8 1    
    18   38    8 1    
    19   10    9 1    
    20   12    9 1    
    21   39    9 1    
    22   11   10 1    
    23   40   10 1    
    24   41   10 1    
    25   13   12 2    
    26   14   12 1    
    27   15   14 2    
    28   16   15 1    
    29   19   15 1    
    30   17   16 ar   
    31   18   16 ar   
    32   20   19 2    
    33   23   19 1    
    34   21   20 1    
    35   42   20 1    
    36   22   21 2    
    37   43   21 1    
    38   23   22 1    
    39   24   22 1    
    40   25   24 1    
    41   44   24 1    
    42   45   24 1    
    43   26   25 1    
    44   29   25 1    
    45   27   26 2    
    46   46   26 1    
    47   28   27 1    
    48   29   28 2    
@<TRIPOS>SUBSTRUCTURE
     1 MCI550      1 GROUP   
@<TRIPOS>SET

