#    Name: 1f9a_ATP_6_INTS_M
#    Modification time : Tue Mar 25 01:02:18 2014

@<TRIPOS>MOLECULE
1f9a_ATP_6_INTS_M
   86     0    15     0     0
SMALL
NO_CHARGES


@<TRIPOS>ATOM
      1 N          36.3335  -22.5160   36.5325 N.am      2 SEC2        0.0000 
      2 N          37.4160  -22.2610   37.3130 N.am     12 SEL2        0.0000 
      3 N          35.2510  -22.7710   35.7520 N.am      7 SEP2        0.0000 
      4 N          37.6480  -22.9225   36.2210 N.am      2 SEC2        0.0000 
      5 N          37.8800  -23.5840   35.1290 N.am      7 SEP2        0.0000 
      6 NZ         39.8100  -19.4045   37.1910 N.4       3 LYC4        0.0000 
      7 NZ         39.2080  -20.6460   37.8350 N.4      13 LYL4        0.0000 
      8 NZ         40.0270  -17.6830   35.4010 N.4       8 LYP4        0.0000 
      9 Zn         39.6280  -20.6140   38.8700 Zn        4 ZIC7        0.0000 
     10 Zn         39.2080  -20.6460   37.8350 Zn       14 ZIL7        0.0000 
     11 Zn         40.0480  -20.5820   39.9050 Zn        9 ZIP7        0.0000 
     12 N          39.8100  -19.4045   37.1910 N.am      2 SEC2        0.0000 
     13 N          39.2080  -20.6460   37.8350 N.am     12 SEL2        0.0000 
     14 N          40.4120  -18.1630   36.5470 N.am      7 SEP2        0.0000 
     15 NZ         38.2750  -19.2040   35.4350 N.4       3 LYC4        0.0000 
     16 NZ         37.4150  -20.1180   36.2180 N.4      13 LYL4        0.0000 
     17 NZ         36.6670  -20.0085   35.1240 N.4       3 LYC4        0.0000 
     18 NZ         36.4160  -20.5330   32.9690 N.4       8 LYP4        0.0000 
     19 N          38.2750  -19.2040   35.4350 N.am      2 SEC2        0.0000 
     20 N          37.4150  -20.1180   36.2180 N.am     12 SEL2        0.0000 
     21 N          39.1350  -18.2900   34.6520 N.am      7 SEP2        0.0000 
     22 N          37.4705  -20.6880   34.6780 N.am      2 SEC2        0.0000 
     23 N          37.5260  -21.2580   33.1380 N.am      7 SEP2        0.0000 
     24 N          36.6670  -20.0085   35.1240 N.am      2 SEC2        0.0000 
     25 N          35.9190  -19.8990   34.0300 N.am      7 SEP2        0.0000 
     26 N          34.1175  -20.4205   40.8295 N.am      2 SEC2        0.0000 
     27 N          35.4560  -20.8120   40.4620 N.am     12 SEL2        0.0000 
     28 N          32.7790  -20.0290   41.1970 N.am      7 SEP2        0.0000 
     29 N          34.6835  -21.2085   39.2170 N.am      2 SEC2        0.0000 
     30 N          33.9110  -21.6050   37.9720 N.am      7 SEP2        0.0000 
     31 NZ         38.1540  -22.3205   41.6445 N.4       3 LYC4        0.0000 
     32 NZ         37.9180  -21.1410   40.5760 N.4      13 LYL4        0.0000 
     33 NZ         37.2410  -23.9350   42.2630 N.4       8 LYP4        0.0000 
     34 Zn         38.9830  -20.8615   40.2405 Zn        4 ZIC7        0.0000 
     35 Zn         37.9180  -21.1410   40.5760 Zn       14 ZIL7        0.0000 
     36 N          38.1540  -22.3205   41.6445 N.am      2 SEC2        0.0000 
     37 N          37.9180  -21.1410   40.5760 N.am     12 SEL2        0.0000 
     38 N          38.3900  -23.5000   42.7130 N.am      7 SEP2        0.0000 
     39 N          37.4195  -22.3115   40.8145 N.am      2 SEC2        0.0000 
     40 N          36.9210  -23.4820   41.0530 N.am      7 SEP2        0.0000 
     41 N          35.3535  -20.8700   38.2540 N.am      2 SEC2        0.0000 
     42 N          36.7960  -20.1350   38.5360 N.am     12 SEL2        0.0000 
     43 Zn         39.6710  -19.3865   40.0895 Zn        4 ZIC7        0.0000 
     44 Zn         39.2940  -18.1910   40.2740 Zn       14 ZIL7        0.0000 
     45 N          36.8820  -15.5860   38.8315 N.am      2 SEC2        0.0000 
     46 N          37.4600  -16.7890   39.3690 N.am     12 SEL2        0.0000 
     47 N          36.3040  -14.3830   38.2940 N.am      7 SEP2        0.0000 
     48 N          38.1790  -15.5135   39.2225 N.am      2 SEC2        0.0000 
     49 N          38.8980  -14.2380   39.0760 N.am      7 SEP2        0.0000 
     50 N          35.7395  -17.9485   41.3830 N.am      2 SEC2        0.0000 
     51 N          36.9320  -18.8660   40.6820 N.am     12 SEL2        0.0000 
     52 N          34.5470  -17.0310   42.0840 N.am      7 SEP2        0.0000 
     53 N          36.1685  -16.9820   41.9795 N.am      2 SEC2        0.0000 
     54 N          37.7900  -16.9330   41.8750 N.am     12 SEL2        0.0000 
     55 CA         36.1125  -16.6965   43.7080 C.3       5 GLC5        0.0000 
     56 CA         38.2490  -16.7970   44.1890 C.3      15 GLL5        0.0000 
     57 CA         33.9760  -16.5960   43.2270 C.3      10 GLP5        0.0000 
     58 CA         36.8710  -16.2680   46.5020 C.3       5 GLC5        0.0000 
     59 CA         36.8930  -18.2250   45.4650 C.3      15 GLL5        0.0000 
     60 CA         36.8490  -14.3110   47.5390 C.3      10 GLP5        0.0000 
     61 CA         35.4345  -17.4105   44.3460 C.3       5 GLC5        0.0000 
     62 CA         34.3025  -23.6855   45.2945 C.3       5 GLC5        0.0000 
     63 CA         33.5760  -21.7670   45.8550 C.3      15 GLL5        0.0000 
     64 CA         35.0290  -25.6040   44.7340 C.3      10 GLP5        0.0000 
     65 O          31.9355  -23.6740   45.8995 O.2       1 ALC1        0.0000 
     66 O          32.8020  -22.6690   45.2900 O.2      11 ALL1        0.0000 
     67 O          31.0690  -24.6790   46.5090 O.2       6 ALP1        0.0000 
     68 N          32.9425  -22.8540   47.9875 N.am      2 SEC2        0.0000 
     69 N          33.4130  -21.6440   47.2080 N.am     12 SEL2        0.0000 
     70 N          32.4720  -24.0640   48.7670 N.am      7 SEP2        0.0000 
     71 CA         33.7755  -19.0690   48.7040 C.3       5 GLC5        0.0000 
     72 CA         34.1600  -20.6570   47.8420 C.3      15 GLL5        0.0000 
     73 CA         33.3910  -17.4810   49.5660 C.3      10 GLP5        0.0000 
     74 CA         34.4655  -22.2475   48.6740 C.3       5 GLC5        0.0000 
     75 CA         34.7710  -23.8380   49.5060 C.3      10 GLP5        0.0000 
     76 CA         34.3880  -18.3510   47.1600 C.3       5 GLC5        0.0000 
     77 CA         35.1790  -20.0360   46.0150 C.3      15 GLL5        0.0000 
     78 CA         33.5970  -16.6660   48.3050 C.3      10 GLP5        0.0000 
     79 CA         38.8462  -15.5467   42.4978 C.3       5 GLC5        0.0000 
     80 CA         39.1960  -13.9860   41.4730 C.3      10 GLP5        0.0000 
     81 CA         37.7827  -15.7050   46.1340 C.3       5 GLC5        0.0000 
     82 CA         32.0607  -20.7930   45.5072 C.3       5 GLC5        0.0000 
     83 CA         34.4910  -20.9550   45.2360 C.3      15 GLL5        0.0000 
     84 CA         30.0880  -20.2250   45.4690 C.3      10 GLP5        0.0000 
     85 CA         35.7836  -21.8272   46.5686 C.3       5 GLC5        0.0000 
     86 CA         36.9610  -22.9560   47.3570 C.3      10 GLP5        0.0000 
@<TRIPOS>BOND
@<TRIPOS>SUBSTRUCTURE
     1 ALC1       65 GROUP        1 X    ALC  0     ROOT ALC X 1
     2 SEC2        1 GROUP        1 X    SEC  0     **** SEC X 2
     3 LYC4        6 GROUP        1 X    LYC  0     **** LYC X 4
     4 ZIC7        9 GROUP        1 X    ZIC  0     **** ZIC X 5
     5 GLC5       55 GROUP        1 X    GLC  0     **** GLC X 6
     6 ALP1       67 GROUP        1 Y    ALP  0     ROOT ALP Y 8
     7 SEP2        3 GROUP        1 Y    SEP  0     **** SEP Y 9
     8 LYP4        8 GROUP        1 Y    LYP  0     **** LYP Y 11
     9 ZIP7       11 GROUP        1 Y    ZIP  0     **** ZIP Y 12
    10 GLP5       57 GROUP        1 Y    GLP  0     **** GLP Y 13
    11 ALL1       66 GROUP        1 Z    ALL  0     ROOT ALL Z 15
    12 SEL2        2 GROUP        1 Z    SEL  0     **** SEL Z 16
    13 LYL4        7 GROUP        1 Z    LYL  0     **** LYL Z 18
    14 ZIL7       10 GROUP        1 Z    ZIL  0     **** ZIL Z 19
    15 GLL5       56 GROUP        1 Z    GLL  0     **** GLL Z 20
@<TRIPOS>SET

