#    Name: 1f9a_ATP_6_ligand
#    Modification time : Tue Mar 25 01:02:18 2014

@<TRIPOS>MOLECULE
1f9a_ATP_6_ligand
   42    44     1     0     0
SMALL
NO_CHARGES


@<TRIPOS>ATOM
      1 PG         37.8430  -20.7710   37.4730 P.3       1 ATP705      0.0000 
      2 O1G        37.4160  -22.2610   37.3130 O.co2     1 ATP705      0.0000 
      3 O2G        39.2080  -20.6460   37.8350 O.co2     1 ATP705      0.0000 
      4 O3G        37.4150  -20.1180   36.2180 O.co2     1 ATP705      0.0000 
      5 PB         36.7640  -20.3550   40.1250 P.3       1 ATP705      0.0000 
      6 O1B        35.4560  -20.8120   40.4620 O.co2     1 ATP705      0.0000 
      7 O2B        37.9180  -21.1410   40.5760 O.co2     1 ATP705      0.0000 
      8 O3B        36.7960  -20.1350   38.5360 O.3       1 ATP705      0.0000 
      9 PA         37.9220  -17.6210   40.4930 P.3       1 ATP705      0.0000 
     10 O1A        39.2940  -18.1910   40.2740 O.co2     1 ATP705      0.0000 
     11 O2A        37.4600  -16.7890   39.3690 O.co2     1 ATP705      0.0000 
     12 O3A        36.9320  -18.8660   40.6820 O.3       1 ATP705      0.0000 
     13 O5'        37.7900  -16.9330   41.8750 O.3       1 ATP705      0.0000 
     14 C5'        38.7440  -17.4180   42.8560 C.3       1 ATP705      0.0000 
     15 C4'        38.2490  -16.7970   44.1890 C.3       1 ATP705      0.0000 
     16 O4'        36.9180  -17.2460   44.4820 O.3       1 ATP705      0.0000 
     17 C3'        39.1840  -17.4010   45.2690 C.3       1 ATP705      0.0000 
     18 O3'        39.1500  -16.4530   46.3610 O.3       1 ATP705      0.0000 
     19 C2'        38.3600  -18.6900   45.6450 C.3       1 ATP705      0.0000 
     20 O2'        38.6110  -18.8060   47.0740 O.3       1 ATP705      0.0000 
     21 C1'        36.8930  -18.2250   45.4650 C.3       1 ATP705      0.0000 
     22 N9         36.0160  -19.3410   45.1440 N.pl3     1 ATP705      0.0000 
     23 C8         35.7590  -19.9600   43.9600 C.2       1 ATP705      0.0000 
     24 N7         34.8580  -20.8820   43.9720 N.2       1 ATP705      0.0000 
     25 C5         34.4910  -20.9550   45.2360 C.ar      1 ATP705      0.0000 
     26 C6         33.5760  -21.7670   45.8550 C.ar      1 ATP705      0.0000 
     27 N6         32.8020  -22.6690   45.2900 N.pl3     1 ATP705      0.0000 
     28 N1         33.4130  -21.6440   47.2080 N.ar      1 ATP705      0.0000 
     29 C2         34.1600  -20.6570   47.8420 C.ar      1 ATP705      0.0000 
     30 N3         35.0070  -19.7800   47.3320 N.ar      1 ATP705      0.0000 
     31 C4         35.1790  -20.0360   46.0150 C.ar      1 ATP705      0.0000 
     32 H          39.7304  -17.0568   42.6698 H         1 ATP705      0.0000 
     33 H          38.7136  -18.4798   42.9551 H         1 ATP705      0.0000 
     34 H          38.3713  -15.7727   44.1686 H         1 ATP705      0.0000 
     35 H          40.0640  -17.6361   44.8789 H         1 ATP705      0.0000 
     36 H          38.6080  -19.4463   45.0801 H         1 ATP705      0.0000 
     37 H          36.6074  -17.7923   46.4326 H         1 ATP705      0.0000 
     38 H          36.2772  -19.6807   43.1162 H         1 ATP705      0.0000 
     39 H          34.0048  -20.6200   48.9387 H         1 ATP705      0.0000 
     40 H          40.0220  -15.9664   46.3084 H         1 ATP705      0.0000 
     41 H          38.7229  -17.8653   47.3942 H         1 ATP705      0.0000 
     42 H          32.3758  -23.1576   46.0513 H         1 ATP705      0.0000 
@<TRIPOS>BOND
     1    2    1 ar   
     2    3    1 ar   
     3    4    1 ar   
     4    8    1 1    
     5    6    5 ar   
     6    7    5 ar   
     7    8    5 1    
     8   12    5 1    
     9   10    9 ar   
    10   11    9 ar   
    11   12    9 1    
    12   13    9 1    
    13   14   13 1    
    14   15   14 1    
    15   32   14 1    
    16   33   14 1    
    17   16   15 1    
    18   17   15 1    
    19   34   15 1    
    20   21   16 1    
    21   18   17 1    
    22   19   17 1    
    23   35   17 1    
    24   40   18 1    
    25   20   19 1    
    26   21   19 1    
    27   36   19 1    
    28   41   20 1    
    29   22   21 1    
    30   37   21 1    
    31   23   22 1    
    32   31   22 1    
    33   24   23 2    
    34   38   23 1    
    35   25   24 1    
    36   26   25 ar   
    37   31   25 ar   
    38   27   26 1    
    39   28   26 ar   
    40   42   27 1    
    41   29   28 ar   
    42   30   29 ar   
    43   39   29 1    
    44   31   30 ar   
@<TRIPOS>SUBSTRUCTURE
     1 ATP705      1 GROUP   
@<TRIPOS>SET

