#    Name: 4LCN_1_CAVITY_N1_ALL.mol2
#    Modification time : Tue Mar 11 13:16:23 2014

@<TRIPOS>MOLECULE
4LCN_1_CAVITY_N1_ALL.mol2
  106     0     7     0     0
SMALL
NO_CHARGES


@<TRIPOS>ATOM
      1 CZ         15.7597   31.1085   48.0892 C.ar      5 PHE5        0.0000 
      2 CZ         14.9954   30.1658   47.2077 C.ar      5 PHE5        0.0000 
      3 OG         14.4335   34.5348   48.1277 O.2       1 SER1        0.0000 
      4 OG         15.6677   33.7012   47.9491 O.2       1 SER1        0.0000 
      5 CZ         16.9018   32.8675   47.7704 C.ar      5 PHE5        0.0000 
      6 OG         13.6692   33.5922   47.2461 O.2       1 SER1        0.0000 
      7 OG         14.9033   32.7585   47.0675 O.2       1 SER1        0.0000 
      8 CZ         16.1374   31.9248   46.8889 C.ar      5 PHE5        0.0000 
      9 DU         14.1389   31.8159   46.1859 H         7 CUB7        0.0000 
     10 CZ         15.3731   30.9822   46.0073 C.ar      5 PHE5        0.0000 
     11 CZ         16.6072   30.1485   45.8286 C.ar      5 PHE5        0.0000 
     12 CZ         17.8414   29.3149   45.6500 C.ar      5 PHE5        0.0000 
     13 O          20.3096   27.6476   45.2927 O.2       2 ALA2        0.0000 
     14 O          19.5453   26.7049   44.4112 O.2       2 ALA2        0.0000 
     15 CA         18.0439   34.6265   47.4516 C.3       6 GLY6        0.0000 
     16 CZ         22.9804   31.2919   46.7371 C.ar      5 PHE5        0.0000 
     17 NZ         24.2146   30.4582   46.5584 N.2       4 LYS4        0.0000 
     18 CA         14.8112   35.3512   46.9273 C.3       6 GLY6        0.0000 
     19 O          16.0454   34.5175   46.7487 O.2       2 ALA2        0.0000 
     20 CZ         17.2795   33.6838   46.5700 C.ar      5 PHE5        0.0000 
     21 CZ         18.5136   32.8502   46.3914 C.ar      5 PHE5        0.0000 
     22 CZ         20.9819   31.1829   46.0341 C.ar      5 PHE5        0.0000 
     23 CZ         22.2161   30.3492   45.8555 C.ar      5 PHE5        0.0000 
     24 N          23.4502   29.5156   45.6769 N.2       2 ALA2        0.0000 
     25 CA         15.2810   33.5749   45.8671 C.3       6 GLY6        0.0000 
     26 CZ         16.5151   32.7412   45.6885 C.ar      5 PHE5        0.0000 
     27 CZ         17.7493   31.9075   45.5098 C.ar      5 PHE5        0.0000 
     28 CZ         18.9834   31.0739   45.3312 C.ar      5 PHE5        0.0000 
     29 CZ         20.2176   30.2402   45.1526 C.ar      5 PHE5        0.0000 
     30 CZ         21.4517   29.4066   44.9739 C.ar      5 PHE5        0.0000 
     31 CA         14.5166   32.6322   44.9855 C.3       6 GLY6        0.0000 
     32 DU         15.7508   31.7985   44.8069 H         7 CUB7        0.0000 
     33 CZ         16.9849   30.9649   44.6283 C.ar      5 PHE5        0.0000 
     34 CZ         18.2191   30.1312   44.4496 C.ar      5 PHE5        0.0000 
     35 CZ         19.4532   29.2976   44.2710 C.ar      5 PHE5        0.0000 
     36 N          20.6873   28.4639   44.0924 N.2       2 ALA2        0.0000 
     37 DU         14.9864   30.8559   43.9253 H         7 CUB7        0.0000 
     38 DU         16.2206   30.0222   43.7467 H         7 CUB7        0.0000 
     39 DU         17.4547   29.1886   43.5681 H         7 CUB7        0.0000 
     40 DU         18.6888   28.3549   43.3894 H         7 CUB7        0.0000 
     41 CZ         19.9230   27.5213   43.2108 C.ar      5 PHE5        0.0000 
     42 CA         21.1571   26.6876   43.0321 C.3       6 GLY6        0.0000 
     43 NZ         20.3928   25.7450   42.1506 N.2       4 LYS4        0.0000 
     44 CZ         24.8868   33.9935   47.2998 C.ar      5 PHE5        0.0000 
     45 CZ         22.8883   33.8845   46.5969 C.ar      5 PHE5        0.0000 
     46 CZ         24.1225   33.0509   46.4183 C.ar      5 PHE5        0.0000 
     47 NZ         25.3566   32.2172   46.2396 N.2       4 LYS4        0.0000 
     48 N          22.1240   32.9419   45.7153 N.2       2 ALA2        0.0000 
     49 CA         23.3581   32.1082   45.5367 C.3       6 GLY6        0.0000 
     50 NZ         24.5922   31.2746   45.3580 N.2       4 LYS4        0.0000 
     51 O          16.4230   35.3339   45.5483 O.2       2 ALA2        0.0000 
     52 O          17.6572   34.5002   45.3697 O.2       2 ALA2        0.0000 
     53 N          18.8913   33.6665   45.1910 N.2       2 ALA2        0.0000 
     54 N          20.1255   32.8329   45.0124 N.2       2 ALA2        0.0000 
     55 N          21.3596   31.9992   44.8337 N.2       2 ALA2        0.0000 
     56 CA         22.5937   31.1656   44.6551 C.3       6 GLY6        0.0000 
     57 N          23.8279   30.3319   44.4765 N.2       2 ALA2        0.0000 
     58 CA         15.6587   34.3912   44.6667 C.3       6 GLY6        0.0000 
     59 CA         16.8928   33.5575   44.4881 C.3       6 GLY6        0.0000 
     60 DU         18.1270   32.7239   44.3095 H         7 CUB7        0.0000 
     61 DU         19.3611   31.8902   44.1308 H         7 CUB7        0.0000 
     62 N          20.5952   31.0566   43.9522 N.2       2 ALA2        0.0000 
     63 N          21.8294   30.2229   43.7735 N.2       2 ALA2        0.0000 
     64 CA         14.8943   33.4486   43.7852 C.3       6 GLY6        0.0000 
     65 CA         16.1285   32.6149   43.6065 C.3       6 GLY6        0.0000 
     66 DU         17.3626   31.7812   43.4279 H         7 CUB7        0.0000 
     67 DU         18.5967   30.9476   43.2492 H         7 CUB7        0.0000 
     68 DU         19.8309   30.1139   43.0706 H         7 CUB7        0.0000 
     69 N          21.0650   29.2803   42.8920 N.2       2 ALA2        0.0000 
     70 N          15.3641   31.6723   42.7249 N.2       2 ALA2        0.0000 
     71 DU         16.5982   30.8386   42.5463 H         7 CUB7        0.0000 
     72 DU         17.8324   30.0049   42.3677 H         7 CUB7        0.0000 
     73 CZ         19.0665   29.1713   42.1890 C.ar      5 PHE5        0.0000 
     74 CZ         20.3007   28.3376   42.0104 C.ar      5 PHE5        0.0000 
     75 DU         15.8339   29.8959   41.6647 H         7 CUB7        0.0000 
     76 DU         17.0680   29.0623   41.4861 H         7 CUB7        0.0000 
     77 CZ         19.5363   27.3950   41.1288 C.ar      5 PHE5        0.0000 
     78 OD1        24.5002   33.8672   45.2179 O.3       3 ASP3        0.0000 
     79 CA         18.5047   33.5402   43.1091 C.3       6 GLY6        0.0000 
     80 N          19.7388   32.7066   42.9304 N.2       2 ALA2        0.0000 
     81 N          20.9729   31.8729   42.7518 N.2       2 ALA2        0.0000 
     82 CA         22.2071   31.0393   42.5732 C.3       6 GLY6        0.0000 
     83 CA         17.7403   32.5976   42.2275 C.3       6 GLY6        0.0000 
     84 N          18.9744   31.7639   42.0489 N.2       2 ALA2        0.0000 
     85 CZ         20.2086   30.9303   41.8702 C.ar      5 PHE5        0.0000 
     86 CZ         21.4427   30.0966   41.6916 C.ar      5 PHE5        0.0000 
     87 CA         15.7418   32.4886   41.5246 C.3       6 GLY6        0.0000 
     88 CA         16.9759   31.6549   41.3459 C.3       6 GLY6        0.0000 
     89 DU         18.2101   30.8213   41.1673 H         7 CUB7        0.0000 
     90 CZ         19.4442   29.9876   40.9887 C.ar      5 PHE5        0.0000 
     91 CA         14.9774   31.5460   40.6430 C.3       6 GLY6        0.0000 
     92 DU         16.2116   30.7123   40.4644 H         7 CUB7        0.0000 
     93 N          17.4457   29.8786   40.2857 N.2       2 ALA2        0.0000 
     94 NZ         14.2131   30.6033   39.7614 N.2       4 LYS4        0.0000 
     95 NZ         15.4472   29.7696   39.5828 N.2       4 LYS4        0.0000 
     96 N          16.6814   28.9360   39.4041 N.2       2 ALA2        0.0000 
     97 CA         18.1180   33.4139   41.0271 C.3       6 GLY6        0.0000 
     98 N          19.3521   32.5803   40.8485 N.2       2 ALA2        0.0000 
     99 CA         20.5863   31.7466   40.6698 C.3       6 GLY6        0.0000 
    100 CA         17.3536   32.4713   40.1455 C.3       6 GLY6        0.0000 
    101 N          18.5878   31.6376   39.9669 N.2       2 ALA2        0.0000 
    102 N          16.5893   31.5286   39.2640 N.2       2 ALA2        0.0000 
    103 CA         14.5908   31.4197   38.5610 C.3       6 GLY6        0.0000 
    104 N          15.8249   30.5860   38.3824 N.2       2 ALA2        0.0000 
    105 NZ         15.0605   29.6433   37.5008 N.2       4 LYS4        0.0000 
    106 N          16.2947   28.8097   37.3222 N.2       2 ALA2        0.0000 
@<TRIPOS>BOND
@<TRIPOS>SUBSTRUCTURE
     1 SER1        3 GROUP   
     2 ALA2       13 GROUP   
     3 ASP3       78 GROUP   
     4 LYS4       17 GROUP   
     5 PHE5        1 GROUP   
     6 GLY6       15 GROUP   
     7 CUB7        9 GROUP   
@<TRIPOS>SET

