#    Name: 4LCN_1_CAVITY_N1_6.mol2
#    Modification time : Tue Mar 11 13:16:23 2014

@<TRIPOS>MOLECULE
4LCN_1_CAVITY_N1_6.mol2
   86     0     6     0     0
SMALL
NO_CHARGES


@<TRIPOS>ATOM
      1 CZ         16.9018   32.8675   47.7704 C.ar      4 PHE5        0.0000 
      2 CZ         16.6072   30.1485   45.8286 C.ar      4 PHE5        0.0000 
      3 CZ         17.8414   29.3149   45.6500 C.ar      4 PHE5        0.0000 
      4 O          20.3096   27.6476   45.2927 O.2       1 ALA2        0.0000 
      5 O          19.5453   26.7049   44.4112 O.2       1 ALA2        0.0000 
      6 CA         18.0439   34.6265   47.4516 C.3       5 GLY6        0.0000 
      7 CZ         22.9804   31.2919   46.7371 C.ar      4 PHE5        0.0000 
      8 NZ         24.2146   30.4582   46.5584 N.2       3 LYS4        0.0000 
      9 CZ         17.2795   33.6838   46.5700 C.ar      4 PHE5        0.0000 
     10 CZ         18.5136   32.8502   46.3914 C.ar      4 PHE5        0.0000 
     11 CZ         20.9819   31.1829   46.0341 C.ar      4 PHE5        0.0000 
     12 CZ         22.2161   30.3492   45.8555 C.ar      4 PHE5        0.0000 
     13 N          23.4502   29.5156   45.6769 N.2       1 ALA2        0.0000 
     14 CZ         16.5151   32.7412   45.6885 C.ar      4 PHE5        0.0000 
     15 CZ         17.7493   31.9075   45.5098 C.ar      4 PHE5        0.0000 
     16 CZ         18.9834   31.0739   45.3312 C.ar      4 PHE5        0.0000 
     17 CZ         20.2176   30.2402   45.1526 C.ar      4 PHE5        0.0000 
     18 CZ         21.4517   29.4066   44.9739 C.ar      4 PHE5        0.0000 
     19 DU         15.7508   31.7985   44.8069 H         6 CUB7        0.0000 
     20 CZ         16.9849   30.9649   44.6283 C.ar      4 PHE5        0.0000 
     21 CZ         18.2191   30.1312   44.4496 C.ar      4 PHE5        0.0000 
     22 CZ         19.4532   29.2976   44.2710 C.ar      4 PHE5        0.0000 
     23 N          20.6873   28.4639   44.0924 N.2       1 ALA2        0.0000 
     24 DU         14.9864   30.8559   43.9253 H         6 CUB7        0.0000 
     25 DU         16.2206   30.0222   43.7467 H         6 CUB7        0.0000 
     26 DU         17.4547   29.1886   43.5681 H         6 CUB7        0.0000 
     27 DU         18.6888   28.3549   43.3894 H         6 CUB7        0.0000 
     28 CZ         19.9230   27.5213   43.2108 C.ar      4 PHE5        0.0000 
     29 CA         21.1571   26.6876   43.0321 C.3       5 GLY6        0.0000 
     30 NZ         20.3928   25.7450   42.1506 N.2       3 LYS4        0.0000 
     31 CZ         24.8868   33.9935   47.2998 C.ar      4 PHE5        0.0000 
     32 CZ         22.8883   33.8845   46.5969 C.ar      4 PHE5        0.0000 
     33 CZ         24.1225   33.0509   46.4183 C.ar      4 PHE5        0.0000 
     34 NZ         25.3566   32.2172   46.2396 N.2       3 LYS4        0.0000 
     35 N          22.1240   32.9419   45.7153 N.2       1 ALA2        0.0000 
     36 CA         23.3581   32.1082   45.5367 C.3       5 GLY6        0.0000 
     37 NZ         24.5922   31.2746   45.3580 N.2       3 LYS4        0.0000 
     38 O          17.6572   34.5002   45.3697 O.2       1 ALA2        0.0000 
     39 N          18.8913   33.6665   45.1910 N.2       1 ALA2        0.0000 
     40 N          20.1255   32.8329   45.0124 N.2       1 ALA2        0.0000 
     41 N          21.3596   31.9992   44.8337 N.2       1 ALA2        0.0000 
     42 CA         22.5937   31.1656   44.6551 C.3       5 GLY6        0.0000 
     43 N          23.8279   30.3319   44.4765 N.2       1 ALA2        0.0000 
     44 CA         16.8928   33.5575   44.4881 C.3       5 GLY6        0.0000 
     45 DU         18.1270   32.7239   44.3095 H         6 CUB7        0.0000 
     46 DU         19.3611   31.8902   44.1308 H         6 CUB7        0.0000 
     47 N          20.5952   31.0566   43.9522 N.2       1 ALA2        0.0000 
     48 N          21.8294   30.2229   43.7735 N.2       1 ALA2        0.0000 
     49 CA         16.1285   32.6149   43.6065 C.3       5 GLY6        0.0000 
     50 DU         17.3626   31.7812   43.4279 H         6 CUB7        0.0000 
     51 DU         18.5967   30.9476   43.2492 H         6 CUB7        0.0000 
     52 DU         19.8309   30.1139   43.0706 H         6 CUB7        0.0000 
     53 N          21.0650   29.2803   42.8920 N.2       1 ALA2        0.0000 
     54 N          15.3641   31.6723   42.7249 N.2       1 ALA2        0.0000 
     55 DU         16.5982   30.8386   42.5463 H         6 CUB7        0.0000 
     56 DU         17.8324   30.0049   42.3677 H         6 CUB7        0.0000 
     57 CZ         19.0665   29.1713   42.1890 C.ar      4 PHE5        0.0000 
     58 CZ         20.3007   28.3376   42.0104 C.ar      4 PHE5        0.0000 
     59 DU         15.8339   29.8959   41.6647 H         6 CUB7        0.0000 
     60 DU         17.0680   29.0623   41.4861 H         6 CUB7        0.0000 
     61 CZ         19.5363   27.3950   41.1288 C.ar      4 PHE5        0.0000 
     62 OD1        24.5002   33.8672   45.2179 O.3       2 ASP3        0.0000 
     63 CA         18.5047   33.5402   43.1091 C.3       5 GLY6        0.0000 
     64 N          19.7388   32.7066   42.9304 N.2       1 ALA2        0.0000 
     65 N          20.9729   31.8729   42.7518 N.2       1 ALA2        0.0000 
     66 CA         22.2071   31.0393   42.5732 C.3       5 GLY6        0.0000 
     67 CA         17.7403   32.5976   42.2275 C.3       5 GLY6        0.0000 
     68 N          18.9744   31.7639   42.0489 N.2       1 ALA2        0.0000 
     69 CZ         20.2086   30.9303   41.8702 C.ar      4 PHE5        0.0000 
     70 CZ         21.4427   30.0966   41.6916 C.ar      4 PHE5        0.0000 
     71 CA         15.7418   32.4886   41.5246 C.3       5 GLY6        0.0000 
     72 CA         16.9759   31.6549   41.3459 C.3       5 GLY6        0.0000 
     73 DU         18.2101   30.8213   41.1673 H         6 CUB7        0.0000 
     74 CZ         19.4442   29.9876   40.9887 C.ar      4 PHE5        0.0000 
     75 CA         14.9774   31.5460   40.6430 C.3       5 GLY6        0.0000 
     76 DU         16.2116   30.7123   40.4644 H         6 CUB7        0.0000 
     77 N          17.4457   29.8786   40.2857 N.2       1 ALA2        0.0000 
     78 NZ         15.4472   29.7696   39.5828 N.2       3 LYS4        0.0000 
     79 N          16.6814   28.9360   39.4041 N.2       1 ALA2        0.0000 
     80 CA         18.1180   33.4139   41.0271 C.3       5 GLY6        0.0000 
     81 N          19.3521   32.5803   40.8485 N.2       1 ALA2        0.0000 
     82 CA         20.5863   31.7466   40.6698 C.3       5 GLY6        0.0000 
     83 CA         17.3536   32.4713   40.1455 C.3       5 GLY6        0.0000 
     84 N          18.5878   31.6376   39.9669 N.2       1 ALA2        0.0000 
     85 N          16.5893   31.5286   39.2640 N.2       1 ALA2        0.0000 
     86 N          15.8249   30.5860   38.3824 N.2       1 ALA2        0.0000 
@<TRIPOS>BOND
@<TRIPOS>SUBSTRUCTURE
     1 ALA2        4 GROUP   
     2 ASP3       62 GROUP   
     3 LYS4        8 GROUP   
     4 PHE5        1 GROUP   
     5 GLY6        6 GROUP   
     6 CUB7       19 GROUP   
@<TRIPOS>SET

