#    Name: 4lcn_GNG_1_INTS_M
#    Modification time : Tue Mar 25 10:00:01 2014

@<TRIPOS>MOLECULE
4lcn_GNG_1_INTS_M
   39     0     9     0     0
SMALL
NO_CHARGES


@<TRIPOS>ATOM
      1 CA         20.2795   30.1245   45.5160 C.3       3 GLC5        0.0000 
      2 CA         20.9620   30.7710   43.4750 C.3       9 GLL5        0.0000 
      3 CA         19.5970   29.4780   47.5570 C.3       6 GLP5        0.0000 
      4 CA         23.1140   28.9745   42.0945 C.3       3 GLC5        0.0000 
      5 CA         22.1090   29.7600   43.6670 C.3       9 GLL5        0.0000 
      6 CA         24.1190   28.1890   40.5220 C.3       6 GLP5        0.0000 
      7 CA         25.2610   30.4465   44.1215 C.3       3 GLC5        0.0000 
      8 CA         23.6530   30.3510   45.4700 C.3       9 GLL5        0.0000 
      9 CA         26.8690   30.5420   42.7730 C.3       6 GLP5        0.0000 
     10 N          21.3365   34.8790   45.6995 N.am      2 SEC2        0.0000 
     11 N          22.2700   33.7540   45.6640 N.am      8 SEL2        0.0000 
     12 N          20.4030   36.0040   45.7350 N.am      5 SEP2        0.0000 
     13 CA         23.4795   35.1660   47.9225 C.3       3 GLC5        0.0000 
     14 CA         23.4950   34.0130   46.1490 C.3       9 GLL5        0.0000 
     15 CA         23.4640   36.3190   49.6960 C.3       6 GLP5        0.0000 
     16 CA         23.5790   34.8215   44.4310 C.3       3 GLC5        0.0000 
     17 CA         23.6630   35.6300   42.7130 C.3       6 GLP5        0.0000 
     18 N          21.9625   36.1820   46.1475 N.am      2 SEC2        0.0000 
     19 N          23.5220   36.3600   46.5600 N.am      8 SEL2        0.0000 
     20 N          23.9580   37.6550   46.0000 N.am      2 SEC2        0.0000 
     21 N          24.3940   38.9500   45.4400 N.am      5 SEP2        0.0000 
     22 O          28.3175   32.6275   47.6685 O.2       1 ALC1        0.0000 
     23 O          27.3420   33.9670   47.5960 O.2       7 ALL1        0.0000 
     24 O          29.2930   31.2880   47.7410 O.2       4 ALP1        0.0000 
     25 O          27.3100   35.1610   48.5950 O.2       1 ALC1        0.0000 
     26 O          27.2780   36.3550   49.5940 O.2       4 ALP1        0.0000 
     27 CA         20.6000   29.2775   46.2395 C.3       3 GLC5        0.0000 
     28 CA         21.6030   29.0770   44.9220 C.3       9 GLL5        0.0000 
     29 N          21.7655   26.8270   45.3410 N.am      2 SEC2        0.0000 
     30 N          21.2080   27.7100   44.6610 N.am      8 SEL2        0.0000 
     31 N          22.3230   25.9440   46.0210 N.am      5 SEP2        0.0000 
     32 O          22.5015   27.4625   44.3340 O.2       1 ALC1        0.0000 
     33 O          21.2080   27.7100   44.6610 O.2       7 ALL1        0.0000 
     34 O          23.7950   27.2150   44.0070 O.2       4 ALP1        0.0000 
     35 CA         22.2118   28.7390   46.9147 C.3       3 GLC5        0.0000 
     36 CA         22.6760   29.3170   46.0110 C.3       9 GLL5        0.0000 
     37 CA         21.2590   27.6440   48.0890 C.3       6 GLP5        0.0000 
     38 CA         22.6678   27.1790   45.3067 C.3       3 GLC5        0.0000 
     39 CA         23.1960   25.1610   45.1470 C.3       6 GLP5        0.0000 
@<TRIPOS>BOND
@<TRIPOS>SUBSTRUCTURE
     1 ALC1       22 GROUP        1 X    ALC  0     ROOT ALC X 1
     2 SEC2       10 GROUP        1 X    SEC  0     **** SEC X 2
     3 GLC5        1 GROUP        1 X    GLC  0     **** GLC X 6
     4 ALP1       24 GROUP        1 Y    ALP  0     ROOT ALP Y 8
     5 SEP2       12 GROUP        1 Y    SEP  0     **** SEP Y 9
     6 GLP5        3 GROUP        1 Y    GLP  0     **** GLP Y 13
     7 ALL1       23 GROUP        1 Z    ALL  0     ROOT ALL Z 15
     8 SEL2       11 GROUP        1 Z    SEL  0     **** SEL Z 16
     9 GLL5        2 GROUP        1 Z    GLL  0     **** GLL Z 20
@<TRIPOS>SET

