#    Name: 4lcn_GNG_1_ligand
#    Modification time : Tue Mar 25 10:00:01 2014

@<TRIPOS>MOLECULE
4lcn_GNG_1_ligand
   32    34     1     0     0
SMALL
NO_CHARGES


@<TRIPOS>ATOM
      1 O5'        20.3090   30.6120   42.1320 O.3       1 GNG202      0.0000 
      2 C5'        20.9620   30.7710   43.4750 C.3       1 GNG202      0.0000 
      3 C4'        22.1090   29.7600   43.6670 C.3       1 GNG202      0.0000 
      4 O4'        23.4610   30.2460   44.0260 O.3       1 GNG202      0.0000 
      5 C1'        23.6530   30.3510   45.4700 C.3       1 GNG202      0.0000 
      6 N9         23.3960   31.7960   45.7410 N.pl3     1 GNG202      0.0000 
      7 C8         22.2540   32.4530   45.4110 C.2       1 GNG202      0.0000 
      8 N7         22.2700   33.7540   45.6640 N.2       1 GNG202      0.0000 
      9 C5         23.4950   34.0130   46.1490 C.2       1 GNG202      0.0000 
     10 C4         24.2650   32.7160   46.2030 C.2       1 GNG202      0.0000 
     11 N3         25.5360   32.7360   46.6910 N.pl3     1 GNG202      0.0000 
     12 C2         26.0920   33.9390   47.1260 C.2       1 GNG202      0.0000 
     13 N1         25.4710   35.1880   47.1010 N.2       1 GNG202      0.0000 
     14 C6         24.1800   35.2900   46.5910 C.2       1 GNG202      0.0000 
     15 O6         23.5220   36.3600   46.5600 O.2       1 GNG202      0.0000 
     16 N2         27.3420   33.9670   47.5960 N.pl3     1 GNG202      0.0000 
     17 C2'        22.6760   29.3170   46.0110 C.3       1 GNG202      0.0000 
     18 C3'        21.6030   29.0770   44.9220 C.3       1 GNG202      0.0000 
     19 O3'        21.2080   27.7100   44.6610 O.3       1 GNG202      0.0000 
     20 H          20.2273   30.6160   44.2692 H         1 GNG202      0.0000 
     21 H          21.3694   31.7801   43.5760 H         1 GNG202      0.0000 
     22 H          22.0954   29.0483   42.9042 H         1 GNG202      0.0000 
     23 H          24.6470   30.0789   45.6949 H         1 GNG202      0.0000 
     24 H          21.4640   31.9729   45.0055 H         1 GNG202      0.0000 
     25 H          26.0976   31.8732   46.7450 H         1 GNG202      0.0000 
     26 H          27.5326   34.6524   48.2988 H         1 GNG202      0.0000 
     27 H          27.9750   33.3000   47.2030 H         1 GNG202      0.0000 
     28 H          22.1977   29.6912   46.8960 H         1 GNG202      0.0000 
     29 H          23.1882   28.3941   46.2058 H         1 GNG202      0.0000 
     30 H          20.7139   29.6783   45.2398 H         1 GNG202      0.0000 
     31 H          20.1965   31.5439   41.7871 H         1 GNG202      0.0000 
     32 H          21.8514   27.3825   43.9691 H         1 GNG202      0.0000 
@<TRIPOS>BOND
     1    2    1 1    
     2   31    1 1    
     3    3    2 1    
     4   20    2 1    
     5   21    2 1    
     6    4    3 1    
     7   18    3 1    
     8   22    3 1    
     9    5    4 1    
    10    6    5 1    
    11   17    5 1    
    12   23    5 1    
    13    7    6 1    
    14   10    6 1    
    15    8    7 2    
    16   24    7 1    
    17    9    8 1    
    18   10    9 2    
    19   14    9 1    
    20   11   10 1    
    21   12   11 1    
    22   25   11 1    
    23   13   12 2    
    24   16   12 1    
    25   14   13 1    
    26   15   14 2    
    27   26   16 1    
    28   27   16 1    
    29   18   17 1    
    30   28   17 1    
    31   29   17 1    
    32   19   18 1    
    33   30   18 1    
    34   32   19 1    
@<TRIPOS>SUBSTRUCTURE
     1 GNG202      1 GROUP   
@<TRIPOS>SET

