#    Name: 1HUT_1_CAVITY_N1_6.mol2
#    Modification time : Tue Mar 11 07:00:37 2014

@<TRIPOS>MOLECULE
1HUT_1_CAVITY_N1_6.mol2
   94     0     7     0     0
SMALL
NO_CHARGES


@<TRIPOS>ATOM
      1 OG         29.4012   51.2771   27.7741 O.2       1 SER1        0.0000 
      2 CZ         28.2900   52.2142   27.4038 C.ar      5 PHE5        0.0000 
      3 OG         29.5103   49.2549   28.4055 O.2       1 SER1        0.0000 
      4 OG         28.3991   50.1919   28.0351 O.2       1 SER1        0.0000 
      5 N          30.7264   47.8770   27.3460 N.2       2 ALA2        0.0000 
      6 DU         29.6152   48.8141   26.9756 H         7 CUB7        0.0000 
      7 CZ         28.5040   49.7511   26.6052 C.ar      5 PHE5        0.0000 
      8 N          30.8313   47.4363   25.9160 N.2       2 ALA2        0.0000 
      9 CZ         29.7201   48.3733   25.5456 C.ar      5 PHE5        0.0000 
     10 N          32.0475   46.0584   24.8565 N.2       2 ALA2        0.0000 
     11 DU         30.9363   46.9955   24.4861 H         7 CUB7        0.0000 
     12 CA         29.6194   47.2326   29.0369 C.3       6 GLY6        0.0000 
     13 CA         28.5082   48.1697   28.6665 C.3       6 GLY6        0.0000 
     14 OG         27.3970   49.1067   28.2961 O.2       1 SER1        0.0000 
     15 N          29.7243   46.7918   27.6069 N.2       2 ALA2        0.0000 
     16 DU         28.6131   47.7289   27.2365 H         7 CUB7        0.0000 
     17 CZ         27.5019   48.6659   26.8662 C.ar      5 PHE5        0.0000 
     18 N          29.8292   46.3511   26.1770 N.2       2 ALA2        0.0000 
     19 CZ         28.7180   47.2881   25.8066 C.ar      5 PHE5        0.0000 
     20 N          31.0453   44.9732   25.1174 N.2       2 ALA2        0.0000 
     21 DU         29.9341   45.9103   24.7471 H         7 CUB7        0.0000 
     22 CZ         28.8230   46.8473   24.3767 C.ar      5 PHE5        0.0000 
     23 CZ         27.7118   47.7844   24.0063 C.ar      5 PHE5        0.0000 
     24 CA         32.2615   43.5954   24.0579 C.3       6 GLY6        0.0000 
     25 DU         31.1503   44.5325   23.6875 H         7 CUB7        0.0000 
     26 CA         30.0391   45.4695   23.3171 C.3       6 GLY6        0.0000 
     27 CA         28.9279   46.4066   22.9467 C.3       6 GLY6        0.0000 
     28 CA         31.2552   44.0917   22.2576 C.3       6 GLY6        0.0000 
     29 CA         27.5060   47.0845   28.9274 C.3       6 GLY6        0.0000 
     30 CA         26.3949   48.0215   28.5571 C.3       6 GLY6        0.0000 
     31 CA         28.7222   45.7066   27.8679 C.3       6 GLY6        0.0000 
     32 DU         27.6110   46.6437   27.4975 H         7 CUB7        0.0000 
     33 CZ         26.4998   47.5807   27.1271 C.ar      5 PHE5        0.0000 
     34 O          29.9383   44.3288   26.8084 O.2       2 ALA2        0.0000 
     35 CA         28.8271   45.2659   26.4380 C.3       6 GLY6        0.0000 
     36 DU         27.7159   46.2029   26.0676 H         7 CUB7        0.0000 
     37 CZ         26.6047   47.1400   25.6972 C.ar      5 PHE5        0.0000 
     38 CZ         25.4935   48.0770   25.3268 C.ar      5 PHE5        0.0000 
     39 N          31.1544   42.9510   25.7488 N.2       2 ALA2        0.0000 
     40 N          30.0432   43.8880   25.3784 N.2       2 ALA2        0.0000 
     41 DU         28.9320   44.8251   25.0080 H         7 CUB7        0.0000 
     42 DU         27.8208   45.7621   24.6376 H         7 CUB7        0.0000 
     43 CZ         26.7096   46.6992   24.2673 C.ar      5 PHE5        0.0000 
     44 CZ         25.5985   47.6362   23.8969 C.ar      5 PHE5        0.0000 
     45 CA         31.2593   42.5102   24.3189 C.3       6 GLY6        0.0000 
     46 O          30.1481   43.4473   23.9485 O.2       2 ALA2        0.0000 
     47 O          29.0370   44.3843   23.5781 O.2       2 ALA2        0.0000 
     48 CA         27.9258   45.3214   23.2077 C.3       6 GLY6        0.0000 
     49 CA         26.8146   46.2584   22.8373 C.3       6 GLY6        0.0000 
     50 N          26.6089   45.5585   27.7585 N.2       2 ALA2        0.0000 
     51 N          25.4977   46.4955   27.3881 N.2       2 ALA2        0.0000 
     52 CA         28.9362   43.2436   27.0693 C.3       6 GLY6        0.0000 
     53 CA         27.8250   44.1807   26.6989 C.3       6 GLY6        0.0000 
     54 DU         26.7138   45.1177   26.3286 H         7 CUB7        0.0000 
     55 N          25.6026   46.0548   25.9582 N.2       2 ALA2        0.0000 
     56 OD1        24.4914   46.9918   25.5878 O.3       3 ASP3        0.0000 
     57 N          30.1523   41.8658   26.0098 N.2       2 ALA2        0.0000 
     58 O          29.0411   42.8028   25.6394 O.2       2 ALA2        0.0000 
     59 O          27.9299   43.7399   25.2690 O.2       2 ALA2        0.0000 
     60 CA         26.8187   44.6769   24.8986 C.3       6 GLY6        0.0000 
     61 DU         25.7075   45.6140   24.5282 H         7 CUB7        0.0000 
     62 OD1        24.5963   46.5510   24.1579 O.3       3 ASP3        0.0000 
     63 CA         30.2572   41.4250   24.5798 C.3       6 GLY6        0.0000 
     64 CA         25.8125   45.1732   23.0983 C.3       6 GLY6        0.0000 
     65 NZ         24.7013   46.1103   22.7279 N.2       4 LYS4        0.0000 
     66 NZ         23.5901   47.0473   22.3575 N.2       4 LYS4        0.0000 
     67 OD1        22.4789   47.9844   21.9871 O.3       3 ASP3        0.0000 
     68 CA         27.9341   42.1584   27.3303 C.3       6 GLY6        0.0000 
     69 N          26.8229   43.0955   26.9599 N.2       2 ALA2        0.0000 
     70 N          25.7117   44.0325   26.5895 N.2       2 ALA2        0.0000 
     71 O          29.1502   40.7806   26.2708 O.2       2 ALA2        0.0000 
     72 N          28.0390   41.7176   25.9004 N.2       2 ALA2        0.0000 
     73 N          26.9278   42.6547   25.5300 N.2       2 ALA2        0.0000 
     74 OG         25.8166   43.5917   25.1596 O.2       1 SER1        0.0000 
     75 OG         24.7054   44.5288   24.7892 O.2       1 SER1        0.0000 
     76 OG         23.5942   45.4658   24.4188 O.2       1 SER1        0.0000 
     77 OD1        22.4830   46.4029   24.0484 O.3       3 ASP3        0.0000 
     78 O          24.8103   44.0880   23.3593 O.2       2 ALA2        0.0000 
     79 O          23.6991   45.0251   22.9889 O.2       2 ALA2        0.0000 
     80 NZ         22.5880   45.9621   22.6185 N.2       4 LYS4        0.0000 
     81 OD1        21.4768   46.8992   22.2481 O.3       3 ASP3        0.0000 
     82 O          23.8041   44.5843   21.5590 O.2       2 ALA2        0.0000 
     83 NZ         22.6929   45.5213   21.1886 N.2       4 LYS4        0.0000 
     84 NZ         21.5817   46.4584   20.8182 N.2       4 LYS4        0.0000 
     85 CA         26.9319   41.0732   27.5913 C.3       6 GLY6        0.0000 
     86 CA         25.8207   42.0103   27.2209 C.3       6 GLY6        0.0000 
     87 N          27.0369   40.6324   26.1613 N.2       2 ALA2        0.0000 
     88 N          25.9257   41.5695   25.7910 N.2       2 ALA2        0.0000 
     89 OG         21.4809   45.3177   24.3094 O.2       1 SER1        0.0000 
     90 OD1        20.3697   46.2548   23.9390 O.3       3 ASP3        0.0000 
     91 OG         22.6970   43.9399   23.2499 O.2       1 SER1        0.0000 
     92 N          21.5858   44.8769   22.8795 N.2       2 ALA2        0.0000 
     93 N          20.4746   45.8140   22.5091 N.2       2 ALA2        0.0000 
     94 N          21.6908   44.4362   21.4495 N.2       2 ALA2        0.0000 
@<TRIPOS>BOND
@<TRIPOS>SUBSTRUCTURE
     1 SER1        1 GROUP   
     2 ALA2        5 GROUP   
     3 ASP3       56 GROUP   
     4 LYS4       65 GROUP   
     5 PHE5        2 GROUP   
     6 GLY6       12 GROUP   
     7 CUB7        6 GROUP   
@<TRIPOS>SET

