#    Name: 1hut_0G7_1_INTS_M
#    Modification time : Tue Mar 25 06:14:59 2014

@<TRIPOS>MOLECULE
1hut_0G7_1_INTS_M
   66     0     9     0     0
SMALL
NO_CHARGES


@<TRIPOS>ATOM
      1 O          32.1890   46.2390   27.1315 O.2       1 ALC1        0.0000 
      2 O          31.4490   47.5040   26.7110 O.2       7 ALL1        0.0000 
      3 O          32.9290   44.9740   27.5520 O.2       4 ALP1        0.0000 
      4 N          30.4270   44.8480   28.6375 N.am      2 SEC2        0.0000 
      5 N          29.5210   46.1640   28.0510 N.am      8 SEL2        0.0000 
      6 N          31.3330   43.5320   29.2240 N.am      5 SEP2        0.0000 
      7 CA         27.2770   47.0040   29.8210 C.3       3 GLC5        0.0000 
      8 CA         26.9490   47.1700   28.1260 C.3       9 GLL5        0.0000 
      9 CA         27.6050   46.8380   31.5160 C.3       6 GLP5        0.0000 
     10 CA         28.0495   45.9470   29.3955 C.3       3 GLC5        0.0000 
     11 CA         29.1500   44.7240   30.6650 C.3       6 GLP5        0.0000 
     12 CA         24.1655   47.4150   28.6320 C.3       3 GLC5        0.0000 
     13 CA         25.8120   48.2220   27.9720 C.3       9 GLL5        0.0000 
     14 CA         22.5190   46.6080   29.2920 C.3       6 GLP5        0.0000 
     15 CA         25.8870   50.0510   28.8255 C.3       3 GLC5        0.0000 
     16 CA         25.9620   51.8800   29.6790 C.3       6 GLP5        0.0000 
     17 CA         26.1050   50.9705   28.1230 C.3       3 GLC5        0.0000 
     18 CA         26.4430   49.5660   27.8370 C.3       9 GLL5        0.0000 
     19 CA         25.7670   52.3750   28.4090 C.3       6 GLP5        0.0000 
     20 CA         26.9535   50.6365   28.7260 C.3       3 GLC5        0.0000 
     21 CA         27.9450   49.3930   27.7730 C.3       9 GLL5        0.0000 
     22 CA         26.9050   43.4585   23.7975 C.3       3 GLC5        0.0000 
     23 CA         26.8430   43.9930   25.8750 C.3       9 GLL5        0.0000 
     24 CA         26.9670   42.9240   21.7200 C.3       6 GLP5        0.0000 
     25 N          24.1800   41.1110   25.7970 N.am      2 SEC2        0.0000 
     26 N          25.2100   42.3400   25.8920 N.am      8 SEL2        0.0000 
     27 N          23.1500   39.8820   25.7020 N.am      5 SEP2        0.0000 
     28 CA         28.6255   38.9995   25.8945 C.3       3 GLC5        0.0000 
     29 CA         29.3130   41.1160   25.8560 C.3       9 GLL5        0.0000 
     30 CA         27.9380   36.8830   25.9330 C.3       6 GLP5        0.0000 
     31 O          31.7870   37.9695   26.6105 O.2       1 ALC1        0.0000 
     32 O          30.6710   38.6530   26.3790 O.2       7 ALL1        0.0000 
     33 O          32.9030   37.2860   26.8420 O.2       4 ALP1        0.0000 
     34 O          32.8125   38.4340   26.4260 O.2       1 ALC1        0.0000 
     35 O          32.7220   39.5820   26.0100 O.2       7 ALL1        0.0000 
     36 O          33.5890   38.8860   25.7790 O.2       1 ALC1        0.0000 
     37 O          34.4560   38.1900   25.5480 O.2       4 ALP1        0.0000 
     38 CA         23.3155   45.2890   26.8335 C.3       3 GLC5        0.0000 
     39 CA         24.4110   44.3070   25.6470 C.3       9 GLL5        0.0000 
     40 CA         22.2200   46.2710   28.0200 C.3       6 GLP5        0.0000 
     41 CA         23.6015   43.0830   26.4305 C.3       3 GLC5        0.0000 
     42 CA         22.7920   41.8590   27.2140 C.3       6 GLP5        0.0000 
     43 CA         29.0147   48.1967   30.9330 C.3       3 GLC5        0.0000 
     44 CA         30.6880   48.9280   30.1980 C.3       9 GLL5        0.0000 
     45 CA         32.1985   48.4385   31.7763 C.3       3 GLC5        0.0000 
     46 CA         30.7320   47.9540   31.2010 C.3       9 GLL5        0.0000 
     47 CA         33.6870   48.4360   32.8530 C.3       6 GLP5        0.0000 
     48 CA         29.0395   47.4615   31.6752 C.3       3 GLC5        0.0000 
     49 CA         29.8120   46.4045   31.2497 C.3       3 GLC5        0.0000 
     50 CA         30.2160   48.2160   32.4680 C.3       9 GLL5        0.0000 
     51 CA         28.3455   48.9370   32.3545 C.3       3 GLC5        0.0000 
     52 CA         29.6650   49.4760   32.7580 C.3       9 GLL5        0.0000 
     53 CA         27.0350   47.9020   32.4520 C.3       6 GLP5        0.0000 
     54 CA         29.6130   49.5555   34.2558 C.3       3 GLC5        0.0000 
     55 CA         29.2900   50.0170   36.1490 C.3       6 GLP5        0.0000 
     56 CA         31.8137   48.6410   32.7330 C.3       3 GLC5        0.0000 
     57 CA         25.9318   48.6685   29.8972 C.3       3 GLC5        0.0000 
     58 CA         25.7360   48.4430   31.8900 C.3       6 GLP5        0.0000 
     59 CA         26.9711   49.7203   26.1209 C.3       3 GLC5        0.0000 
     60 CA         26.9060   50.2970   24.4030 C.3       6 GLP5        0.0000 
     61 CA         28.6335   43.0190   28.1600 C.3       3 GLC5        0.0000 
     62 CA         27.5250   42.8040   26.6010 C.3       9 GLL5        0.0000 
     63 CA         29.0200   43.3980   29.8440 C.3       6 GLP5        0.0000 
     64 CA         29.0155   40.8375   24.4477 C.3       3 GLC5        0.0000 
     65 CA         28.9690   42.4760   26.3510 C.3       9 GLL5        0.0000 
     66 CA         28.8900   39.8790   22.7920 C.3       6 GLP5        0.0000 
@<TRIPOS>BOND
@<TRIPOS>SUBSTRUCTURE
     1 ALC1        1 GROUP        1 X    ALC  0     ROOT ALC X 1
     2 SEC2        4 GROUP        1 X    SEC  0     **** SEC X 2
     3 GLC5        7 GROUP        1 X    GLC  0     **** GLC X 6
     4 ALP1        3 GROUP        1 Y    ALP  0     ROOT ALP Y 8
     5 SEP2        6 GROUP        1 Y    SEP  0     **** SEP Y 9
     6 GLP5        9 GROUP        1 Y    GLP  0     **** GLP Y 13
     7 ALL1        2 GROUP        1 Z    ALL  0     ROOT ALL Z 15
     8 SEL2        5 GROUP        1 Z    SEL  0     **** SEL Z 16
     9 GLL5        8 GROUP        1 Z    GLL  0     **** GLL Z 20
@<TRIPOS>SET

