#    Name: 1hut_0G7_1_ligand
#    Modification time : Tue Mar 25 06:15:00 2014

@<TRIPOS>MOLECULE
1hut_0G7_1_ligand
   64    65     1     0     0
SMALL
NO_CHARGES


@<TRIPOS>ATOM
      1 N          31.4490   47.5040   26.7110 N.4       1 0G71        0.0000 
      2 CA         30.5700   48.2510   27.6690 C.3       1 0G71        0.0000 
      3 C          29.3590   47.3700   27.9340 C.2       1 0G71        0.0000 
      4 O          29.5210   46.1640   28.0510 O.2       1 0G71        0.0000 
      5 CB         31.3320   48.6840   28.8680 C.3       1 0G71        0.0000 
      6 CG         30.6880   48.9280   30.1980 C.ar      1 0G71        0.0000 
      7 CD1        30.1610   50.1830   30.5020 C.ar      1 0G71        0.0000 
      8 CD2        30.7320   47.9540   31.2010 C.ar      1 0G71        0.0000 
      9 CE1        29.6470   50.4680   31.7560 C.ar      1 0G71        0.0000 
     10 CE2        30.2160   48.2160   32.4680 C.ar      1 0G71        0.0000 
     11 CZ         29.6650   49.4760   32.7580 C.ar      1 0G71        0.0000 
     12 N1         28.1840   47.9380   27.9200 N.am      1 0G71        0.0000 
     13 CA1        26.9490   47.1700   28.1260 C.3       1 0G71        0.0000 
     14 C1         26.7150   45.8460   27.4550 C.2       1 0G71        0.0000 
     15 O1         25.9180   45.0700   28.1520 O.2       1 0G71        0.0000 
     16 CB1        25.8120   48.2220   27.9720 C.3       1 0G71        0.0000 
     17 CG1        26.4430   49.5660   27.8370 C.3       1 0G71        0.0000 
     18 CD         27.9450   49.3930   27.7730 C.3       1 0G71        0.0000 
     19 N2         27.1610   45.3280   26.3810 N.am      1 0G71        0.0000 
     20 CA2        26.8430   43.9930   25.8750 C.3       1 0G71        0.0000 
     21 C2         25.3690   43.5810   25.8400 C.2       1 0G71        0.0000 
     22 O2         25.2100   42.3400   25.8920 O.2       1 0G71        0.0000 
     23 CB2        27.5250   42.8040   26.6010 C.3       1 0G71        0.0000 
     24 CG2        28.9690   42.4760   26.3510 C.3       1 0G71        0.0000 
     25 CD3        29.3130   41.1160   25.8560 C.3       1 0G71        0.0000 
     26 NE         30.7690   40.8830   25.8040 N.pl3     1 0G71        0.0000 
     27 CZ1        31.3960   39.7330   26.0500 C.cat     1 0G71        0.0000 
     28 NH1        30.6710   38.6530   26.3790 N.pl3     1 0G71        0.0000 
     29 NH2        32.7220   39.5820   26.0100 N.pl3     1 0G71        0.0000 
     30 C3         24.4110   44.3070   25.6470 C.3       1 0G71        0.0000 
     31 H          30.2063   49.1448   27.1263 H         1 0G71        0.0000 
     32 H          31.9244   49.6320   28.5902 H         1 0G71        0.0000 
     33 H          32.1934   47.9370   29.0314 H         1 0G71        0.0000 
     34 H          30.1558   50.9184   29.7677 H         1 0G71        0.0000 
     35 H          31.1509   47.0341   30.9980 H         1 0G71        0.0000 
     36 H          29.2541   51.3893   31.9654 H         1 0G71        0.0000 
     37 H          30.2356   47.4917   33.1946 H         1 0G71        0.0000 
     38 H          29.2827   49.6723   33.6802 H         1 0G71        0.0000 
     39 H          26.9165   46.9718   29.2783 H         1 0G71        0.0000 
     40 H          25.1891   48.1764   28.8509 H         1 0G71        0.0000 
     41 H          25.2413   47.9752   27.0912 H         1 0G71        0.0000 
     42 H          26.1906   50.1850   28.6925 H         1 0G71        0.0000 
     43 H          26.0999   50.0503   26.9279 H         1 0G71        0.0000 
     44 H          28.3031   49.7412   26.8222 H         1 0G71        0.0000 
     45 H          28.4003   49.9349   28.5809 H         1 0G71        0.0000 
     46 H          27.8404   45.8637   25.7336 H         1 0G71        0.0000 
     47 H          27.1918   43.8894   24.8059 H         1 0G71        0.0000 
     48 H          26.8972   41.8825   26.3913 H         1 0G71        0.0000 
     49 H          27.3714   42.9622   27.7139 H         1 0G71        0.0000 
     50 H          29.5462   42.6736   27.3023 H         1 0G71        0.0000 
     51 H          29.3859   43.2412   25.6314 H         1 0G71        0.0000 
     52 H          28.8773   40.9749   24.8487 H         1 0G71        0.0000 
     53 H          28.8383   40.3603   26.5102 H         1 0G71        0.0000 
     54 H          31.3299   41.7567   25.5376 H         1 0G71        0.0000 
     55 H          31.1870   37.8173   26.5672 H         1 0G71        0.0000 
     56 H          29.6795   38.7803   26.4066 H         1 0G71        0.0000 
     57 H          33.0650   38.6581   26.1797 H         1 0G71        0.0000 
     58 H          33.2530   40.4064   25.8140 H         1 0G71        0.0000 
     59 H          32.2742   48.0211   26.4836 H         1 0G71        0.0000 
     60 H          31.7472   46.6268   27.0873 H         1 0G71        0.0000 
     61 H          30.9788   47.3091   25.8503 H         1 0G71        0.0000 
     62 H          24.3471   45.0287   26.3362 H         1 0G71        0.0000 
     63 H          24.4596   44.7568   24.7552 H         1 0G71        0.0000 
     64 H          23.5495   43.7999   25.6729 H         1 0G71        0.0000 
@<TRIPOS>BOND
     1    2    1 1    
     2   59    1 1    
     3   60    1 1    
     4   61    1 1    
     5    3    2 1    
     6    5    2 1    
     7   31    2 1    
     8    4    3 2    
     9   12    3 am   
    10    6    5 1    
    11   32    5 1    
    12   33    5 1    
    13    7    6 ar   
    14    8    6 ar   
    15    9    7 ar   
    16   34    7 1    
    17   10    8 ar   
    18   35    8 1    
    19   11    9 ar   
    20   36    9 1    
    21   11   10 ar   
    22   37   10 1    
    23   38   11 1    
    24   13   12 1    
    25   18   12 1    
    26   14   13 1    
    27   16   13 1    
    28   39   13 1    
    29   15   14 2    
    30   19   14 am   
    31   17   16 1    
    32   40   16 1    
    33   41   16 1    
    34   18   17 1    
    35   42   17 1    
    36   43   17 1    
    37   44   18 1    
    38   45   18 1    
    39   20   19 1    
    40   46   19 1    
    41   21   20 1    
    42   23   20 1    
    43   47   20 1    
    44   22   21 2    
    45   30   21 1    
    46   24   23 1    
    47   48   23 1    
    48   49   23 1    
    49   25   24 1    
    50   50   24 1    
    51   51   24 1    
    52   26   25 1    
    53   52   25 1    
    54   53   25 1    
    55   27   26 ar   
    56   54   26 1    
    57   28   27 ar   
    58   29   27 ar   
    59   55   28 1    
    60   56   28 1    
    61   57   29 1    
    62   58   29 1    
    63   62   30 1    
    64   63   30 1    
    65   64   30 1    
@<TRIPOS>SUBSTRUCTURE
     1 0G71        1 GROUP   
@<TRIPOS>SET

