#    Name: 1xnx_ATE_1_INTS_M
#    Modification time : Mon Apr  7 15:22:27 2014

@<TRIPOS>MOLECULE
1xnx_ATE_1_INTS_M
   59     0     6     0     0
SMALL
NO_CHARGES


@<TRIPOS>ATOM
      1 O          13.6000   25.1180   77.2270 O.2       1 ALC1        0.0000 
      2 O          13.2040   26.3340   77.7700 O.2       5 ALL1        0.0000 
      3 O          13.9960   23.9020   76.6840 O.2       3 ALP1        0.0000 
      4 CA         13.0135   27.6245   73.7765 C.3       2 GLC5        0.0000 
      5 CA         12.2530   27.1930   75.7730 C.3       6 GLL5        0.0000 
      6 CA         13.7740   28.0560   71.7800 C.3       4 GLP5        0.0000 
      7 CA         13.0155   29.0880   74.1630 C.3       2 GLC5        0.0000 
      8 CA         12.3650   28.7020   76.0320 C.3       6 GLL5        0.0000 
      9 CA         13.6660   29.4740   72.2940 C.3       4 GLP5        0.0000 
     10 CA          8.9730   26.5780   77.5260 C.3       2 GLC5        0.0000 
     11 CA         10.9860   26.9480   78.1110 C.3       6 GLL5        0.0000 
     12 CA          6.9600   26.2080   76.9410 C.3       4 GLP5        0.0000 
     13 CA         10.8300   25.2920   79.2875 C.3       2 GLC5        0.0000 
     14 CA         10.6740   23.6360   80.4640 C.3       4 GLP5        0.0000 
     15 CA         10.3300   25.2935   76.9540 C.3       2 GLC5        0.0000 
     16 CA          9.6740   23.6390   75.7970 C.3       4 GLP5        0.0000 
     17 CA          9.0705   28.0620   80.9130 C.3       2 GLC5        0.0000 
     18 CA         10.1940   28.9870   79.3460 C.3       6 GLL5        0.0000 
     19 CA          7.9470   27.1370   82.4800 C.3       4 GLP5        0.0000 
     20 CA          9.7700   29.5125   74.4145 C.3       2 GLC5        0.0000 
     21 CA          9.9350   29.2260   76.2150 C.3       6 GLL5        0.0000 
     22 CA          9.6050   29.7990   72.6140 C.3       4 GLP5        0.0000 
     23 CA          8.1080   28.2535   76.2930 C.3       2 GLC5        0.0000 
     24 CA          6.2810   27.2810   76.3710 C.3       4 GLP5        0.0000 
     25 CA         10.4695   31.4555   74.3920 C.3       2 GLC5        0.0000 
     26 CA         11.6170   31.7630   76.0000 C.3       6 GLL5        0.0000 
     27 CA          9.3220   31.1480   72.7840 C.3       4 GLP5        0.0000 
     28 CA         11.0225   31.2655   81.3860 C.3       2 GLC5        0.0000 
     29 CA         10.3320   30.4930   79.5950 C.3       6 GLL5        0.0000 
     30 CA         11.7130   32.0380   83.1770 C.3       4 GLP5        0.0000 
     31 CA          8.0555   32.8340   78.5065 C.3       2 GLC5        0.0000 
     32 CA          9.7350   33.6390   79.5780 C.3       6 GLL5        0.0000 
     33 CA          6.3760   32.0290   77.4350 C.3       4 GLP5        0.0000 
     34 CA         10.7240   32.8385   81.3775 C.3       2 GLC5        0.0000 
     35 CA         12.9225   34.8970   77.1105 C.3       2 GLC5        0.0000 
     36 CA         11.7670   33.2680   76.3070 C.3       6 GLL5        0.0000 
     37 CA         14.0780   36.5260   77.9140 C.3       4 GLP5        0.0000 
     38 CA          8.6835   32.7525   74.7805 C.3       2 GLC5        0.0000 
     39 CA          9.3690   33.9500   76.5540 C.3       6 GLL5        0.0000 
     40 CA          7.9980   31.5550   73.0070 C.3       4 GLP5        0.0000 
     41 CA          8.1940   35.3455   77.5560 C.3       2 GLC5        0.0000 
     42 CA          7.0190   36.7410   78.5580 C.3       4 GLP5        0.0000 
     43 CA          7.8725   32.9895   76.9945 C.3       2 GLC5        0.0000 
     44 CA         11.4200   35.5635   75.9870 C.3       2 GLC5        0.0000 
     45 CA         10.8660   35.0740   78.1100 C.3       6 GLL5        0.0000 
     46 CA         11.9740   36.0530   73.8640 C.3       4 GLP5        0.0000 
     47 CA         12.8065   25.3410   75.3655 C.3       2 GLC5        0.0000 
     48 CA         13.5030   23.8930   74.3150 C.3       4 GLP5        0.0000 
     49 CA         10.8920   25.2140   76.1065 C.3       2 GLC5        0.0000 
     50 CA          8.4488   32.0700   77.9415 C.3       2 GLC5        0.0000 
     51 CA         10.4320   31.3510   78.3060 C.3       6 GLL5        0.0000 
     52 CA          9.6765   35.2325   80.9790 C.3       2 GLC5        0.0000 
     53 CA         10.3450   35.0090   79.3560 C.3       6 GLL5        0.0000 
     54 CA          9.3130   36.1410   82.4910 C.3       4 GLP5        0.0000 
     55 CA         11.1406   34.8954   75.2744 C.3       2 GLC5        0.0000 
     56 CA         10.7240   33.7830   77.3240 C.3       6 GLL5        0.0000 
     57 CA          8.7360   35.7200   78.6732 C.3       2 GLC5        0.0000 
     58 CA         12.2030   35.3719   78.8687 C.3       2 GLC5        0.0000 
     59 CA         13.8360   36.0250   79.2010 C.3       4 GLP5        0.0000 
@<TRIPOS>BOND
@<TRIPOS>SUBSTRUCTURE
     1 ALC1        1 GROUP        1 X    ALC  0     ROOT ALC X 1
     2 GLC5        4 GROUP        1 X    GLC  0     **** GLC X 6
     3 ALP1        3 GROUP        1 Y    ALP  0     ROOT ALP Y 8
     4 GLP5        6 GROUP        1 Y    GLP  0     **** GLP Y 13
     5 ALL1        2 GROUP        1 Z    ALL  0     ROOT ALL Z 15
     6 GLL5        5 GROUP        1 Z    GLL  0     **** GLL Z 20
@<TRIPOS>SET

