#    Name: 1xnx_ATE_1_ligand
#    Modification time : Mon Apr  7 15:22:27 2014

@<TRIPOS>MOLECULE
1xnx_ATE_1_ligand
   50    53     1     0     0
SMALL
NO_CHARGES


@<TRIPOS>ATOM
      1 O1         13.2040   26.3340   77.7700 O.3       1 ATE500      0.0000 
      2 C3         11.9670   26.3850   77.0590 C.3       1 ATE500      0.0000 
      3 C2         12.2530   27.1930   75.7730 C.3       1 ATE500      0.0000 
      4 C1         12.3650   28.7020   76.0320 C.3       1 ATE500      0.0000 
      5 C4         10.9860   26.9480   78.1110 C.3       1 ATE500      0.0000 
      6 C5         11.2160   28.4660   78.3170 C.3       1 ATE500      0.0000 
      7 C6         10.1940   28.9870   79.3460 C.3       1 ATE500      0.0000 
      8 C10        11.3020   29.3260   76.9900 C.3       1 ATE500      0.0000 
      9 C19         9.9350   29.2260   76.2150 C.3       1 ATE500      0.0000 
     10 C9         11.5190   30.8630   77.2590 C.3       1 ATE500      0.0000 
     11 C11        11.6170   31.7630   76.0000 C.3       1 ATE500      0.0000 
     12 C8         10.4320   31.3510   78.3060 C.3       1 ATE500      0.0000 
     13 C7         10.3320   30.4930   79.5950 C.3       1 ATE500      0.0000 
     14 C14        10.6110   32.8710   78.5900 C.3       1 ATE500      0.0000 
     15 C15         9.7350   33.6390   79.5780 C.3       1 ATE500      0.0000 
     16 C13        10.7240   33.7830   77.3240 C.3       1 ATE500      0.0000 
     17 C12        11.7670   33.2680   76.3070 C.3       1 ATE500      0.0000 
     18 C18         9.3690   33.9500   76.5540 C.3       1 ATE500      0.0000 
     19 C17        10.8660   35.0740   78.1100 C.2       1 ATE500      0.0000 
     20 C16        10.3450   35.0090   79.3560 C.2       1 ATE500      0.0000 
     21 H          11.6711   25.3864   76.8032 H         1 ATE500      0.0000 
     22 H          11.4467   27.0104   75.0559 H         1 ATE500      0.0000 
     23 H          13.1881   26.8337   75.3322 H         1 ATE500      0.0000 
     24 H          12.3093   29.2394   75.0627 H         1 ATE500      0.0000 
     25 H          13.3705   28.9232   76.4462 H         1 ATE500      0.0000 
     26 H          11.1413   26.4358   79.0537 H         1 ATE500      0.0000 
     27 H           9.9689   26.7873   77.7723 H         1 ATE500      0.0000 
     28 H          12.2227   28.5566   78.8164 H         1 ATE500      0.0000 
     29 H          10.3375   28.4521   80.2889 H         1 ATE500      0.0000 
     30 H           9.1853   28.7738   78.9816 H         1 ATE500      0.0000 
     31 H          12.4952   30.9373   77.8074 H         1 ATE500      0.0000 
     32 H          10.7148   31.6122   75.3899 H         1 ATE500      0.0000 
     33 H          12.4778   31.4345   75.4001 H         1 ATE500      0.0000 
     34 H           9.4467   31.2586   77.7717 H         1 ATE500      0.0000 
     35 H          11.2302   30.6772   80.2055 H         1 ATE500      0.0000 
     36 H           9.4662   30.8432   80.1791 H         1 ATE500      0.0000 
     37 H          11.6939   32.9781   79.0406 H         1 ATE500      0.0000 
     38 H           9.9234   33.3120   80.5453 H         1 ATE500      0.0000 
     39 H           8.7474   33.6270   79.2578 H         1 ATE500      0.0000 
     40 H          11.6622   33.8329   75.3755 H         1 ATE500      0.0000 
     41 H          12.7700   33.4513   76.7048 H         1 ATE500      0.0000 
     42 H          11.3032   35.8285   77.6831 H         1 ATE500      0.0000 
     43 H          10.3187   35.6566   80.0410 H         1 ATE500      0.0000 
     44 H           9.9618   29.7250   75.3488 H         1 ATE500      0.0000 
     45 H           9.6983   28.2785   76.0002 H         1 ATE500      0.0000 
     46 H           9.1776   29.6037   76.7476 H         1 ATE500      0.0000 
     47 H           9.4680   34.5380   75.7512 H         1 ATE500      0.0000 
     48 H           9.0140   33.0722   76.2323 H         1 ATE500      0.0000 
     49 H           8.6618   34.3585   77.1311 H         1 ATE500      0.0000 
     50 H          13.6641   25.5138   77.4301 H         1 ATE500      0.0000 
@<TRIPOS>BOND
     1    2    1 1    
     2   50    1 1    
     3    3    2 1    
     4    5    2 1    
     5   21    2 1    
     6    4    3 1    
     7   22    3 1    
     8   23    3 1    
     9    8    4 1    
    10   24    4 1    
    11   25    4 1    
    12    6    5 1    
    13   26    5 1    
    14   27    5 1    
    15    7    6 1    
    16    8    6 1    
    17   28    6 1    
    18   13    7 1    
    19   29    7 1    
    20   30    7 1    
    21    9    8 1    
    22   10    8 1    
    23   44    9 1    
    24   45    9 1    
    25   46    9 1    
    26   11   10 1    
    27   12   10 1    
    28   31   10 1    
    29   17   11 1    
    30   32   11 1    
    31   33   11 1    
    32   13   12 1    
    33   14   12 1    
    34   34   12 1    
    35   35   13 1    
    36   36   13 1    
    37   15   14 1    
    38   16   14 1    
    39   37   14 1    
    40   20   15 1    
    41   38   15 1    
    42   39   15 1    
    43   17   16 1    
    44   18   16 1    
    45   19   16 1    
    46   40   17 1    
    47   41   17 1    
    48   47   18 1    
    49   48   18 1    
    50   49   18 1    
    51   20   19 2    
    52   42   19 1    
    53   43   20 1    
@<TRIPOS>SUBSTRUCTURE
     1 ATE500      1 GROUP   
@<TRIPOS>SET

