#    Name: 1rp7_TZD_1_INTS_M
#    Modification time : Tue Mar 25 01:03:10 2014

@<TRIPOS>MOLECULE
1rp7_TZD_1_INTS_M
   79     0    15     0     0
SMALL
NO_CHARGES


@<TRIPOS>ATOM
      1 CA         26.0265  -56.9310   -0.4630 C.3       5 GLC5        0.0000 
      2 CA         24.3080  -57.2750    0.4520 C.3      15 GLL5        0.0000 
      3 CA         27.7450  -56.5870   -1.3780 C.3      10 GLP5        0.0000 
      4 N          22.5040  -57.9965   -1.1970 N.am      2 SEC2        0.0000 
      5 N          23.6740  -59.0950   -1.0500 N.am     12 SEL2        0.0000 
      6 N          21.3340  -56.8980   -1.3440 N.am      7 SEP2        0.0000 
      7 O          22.4450  -59.7210   -3.0190 O.2       1 ALC1        0.0000 
      8 O          23.0770  -60.7660   -2.5250 O.2      11 ALL1        0.0000 
      9 O          21.8130  -58.6760   -3.5130 O.2       6 ALP1        0.0000 
     10 CA         23.0225  -60.4940    2.2345 C.3       5 GLC5        0.0000 
     11 CA         24.4990  -60.9830    0.8420 C.3      15 GLL5        0.0000 
     12 CA         21.5460  -60.0050    3.6270 C.3      10 GLP5        0.0000 
     13 CA         25.7705  -63.6730   -0.1305 C.3       5 GLC5        0.0000 
     14 CA         23.9530  -62.9610   -0.5600 C.3      15 GLL5        0.0000 
     15 CA         27.5880  -64.3850    0.2990 C.3      10 GLP5        0.0000 
     16 CA         18.7915  -64.8955   -2.6575 C.3       5 GLC5        0.0000 
     17 CA         20.3830  -64.5630   -1.5240 C.3      15 GLL5        0.0000 
     18 CA         17.2000  -65.2280   -3.7910 C.3      10 GLP5        0.0000 
     19 CA         20.7370  -66.5420   -0.6055 C.3       5 GLC5        0.0000 
     20 CA         21.0910  -68.5210    0.3130 C.3      10 GLP5        0.0000 
     21 CA         22.0180  -65.6910    2.2555 C.3       5 GLC5        0.0000 
     22 CA         22.3830  -63.7130    1.8970 C.3      15 GLL5        0.0000 
     23 CA         21.6530  -67.6690    2.6140 C.3      10 GLP5        0.0000 
     24 CA         22.8405  -64.2855    3.8985 C.3       5 GLC5        0.0000 
     25 CA         23.2980  -64.8580    5.9000 C.3      10 GLP5        0.0000 
     26 CA         21.5760  -62.9350    3.2775 C.3       5 GLC5        0.0000 
     27 CA         20.7690  -62.1570    4.6580 C.3      10 GLP5        0.0000 
     28 CA         20.5875  -66.2915    1.8710 C.3       5 GLC5        0.0000 
     29 CA         19.5220  -64.9140    1.1280 C.3      15 GLL5        0.0000 
     30 CA         18.8270  -62.3140    0.2325 C.3       5 GLC5        0.0000 
     31 CA         18.2010  -64.2710    0.7870 C.3      15 GLL5        0.0000 
     32 CA         19.4530  -60.3570   -0.3220 C.3      10 GLP5        0.0000 
     33 Zn         14.3730  -64.7710    3.2535 Zn        4 ZIC7        0.0000 
     34 Zn         15.2680  -64.0150    3.2660 Zn       14 ZIL7        0.0000 
     35 Zn         13.4780  -65.5270    3.2410 Zn        9 ZIP7        0.0000 
     36 N          15.1090  -63.1000    4.2435 N.am      2 SEC2        0.0000 
     37 N          15.2680  -64.0150    3.2660 N.am     12 SEL2        0.0000 
     38 N          14.9500  -62.1850    5.2210 N.am      7 SEP2        0.0000 
     39 N          16.4660  -61.2280    3.0370 N.am      2 SEC2        0.0000 
     40 N          16.2650  -62.1220    1.8830 N.am     12 SEL2        0.0000 
     41 N          16.6670  -60.3340    4.1910 N.am      7 SEP2        0.0000 
     42 N          13.6825  -63.8455   -1.1105 N.am      2 SEC2        0.0000 
     43 N          13.1970  -65.1610   -0.3480 N.am     12 SEL2        0.0000 
     44 N          14.1680  -62.5300   -1.8730 N.am      7 SEP2        0.0000 
     45 N          12.3320  -66.3450    0.3995 N.am      2 SEC2        0.0000 
     46 N          11.4670  -67.5290    1.1470 N.am      7 SEP2        0.0000 
     47 N          12.7410  -64.6815    0.7085 N.am      2 SEC2        0.0000 
     48 N          12.2850  -64.2020    1.7650 N.am      7 SEP2        0.0000 
     49 NZ         15.9385  -67.2735    0.2495 N.4       3 LYC4        0.0000 
     50 NZ         15.5160  -65.8680   -0.8980 N.4      13 LYL4        0.0000 
     51 NZ         16.3610  -68.6790    1.3970 N.4       8 LYP4        0.0000 
     52 N          14.6880  -66.2195   -1.9285 N.am      2 SEC2        0.0000 
     53 N          15.5160  -65.8680   -0.8980 N.am     12 SEL2        0.0000 
     54 N          13.8600  -66.5710   -2.9590 N.am      7 SEP2        0.0000 
     55 N          16.1290  -65.1770   -1.8150 N.am      2 SEC2        0.0000 
     56 N          16.7420  -64.4860   -2.7320 N.am      7 SEP2        0.0000 
     57 NZ         15.4410  -67.5230    1.3890 N.4       3 LYC4        0.0000 
     58 NZ         14.5210  -66.3670    1.3810 N.4      13 LYL4        0.0000 
     59 Zn         13.9995  -65.9470    2.3110 Zn        4 ZIC7        0.0000 
     60 Zn         14.5210  -66.3670    1.3810 Zn       14 ZIL7        0.0000 
     61 N          12.9940  -66.9480    1.2640 N.am      2 SEC2        0.0000 
     62 N          14.5210  -66.3670    1.3810 N.am     12 SEL2        0.0000 
     63 N          15.4410  -67.5230    1.3890 N.am      2 SEC2        0.0000 
     64 N          16.3610  -68.6790    1.3970 N.am      7 SEP2        0.0000 
     65 CA         23.5255  -57.1322   -1.4265 C.3       5 GLC5        0.0000 
     66 CA         24.1780  -58.7200    0.1240 C.3      15 GLL5        0.0000 
     67 CA         22.8080  -56.2670   -3.1410 C.3      10 GLP5        0.0000 
     68 CA         22.4940  -58.5978    0.1925 C.3       5 GLC5        0.0000 
     69 CA         20.7450  -59.1980    0.0970 C.3      10 GLP5        0.0000 
     70 CA         22.4410  -60.0853    0.0496 C.3       5 GLC5        0.0000 
     71 CA         23.5580  -60.4590   -1.3360 C.3      15 GLL5        0.0000 
     72 CA         21.7105  -66.1362    0.7983 C.3       5 GLC5        0.0000 
     73 CA         20.6060  -64.4830    0.1940 C.3      15 GLL5        0.0000 
     74 CA         22.2080  -68.0700    1.2410 C.3      10 GLP5        0.0000 
     75 CA         20.4000  -63.3038    2.0457 C.3       5 GLC5        0.0000 
     76 CA         19.5870  -62.4050    3.7360 C.3      10 GLP5        0.0000 
     77 CA         20.3051  -62.2897   -0.1980 C.3       5 GLC5        0.0000 
     78 CA         21.8200  -63.9220    0.5170 C.3      15 GLL5        0.0000 
     79 CA         19.2242  -63.4988    2.3468 C.3       5 GLC5        0.0000 
@<TRIPOS>BOND
@<TRIPOS>SUBSTRUCTURE
     1 ALC1        7 GROUP        1 X    ALC  0     ROOT ALC X 1
     2 SEC2        4 GROUP        1 X    SEC  0     **** SEC X 2
     3 LYC4       49 GROUP        1 X    LYC  0     **** LYC X 4
     4 ZIC7       33 GROUP        1 X    ZIC  0     **** ZIC X 5
     5 GLC5        1 GROUP        1 X    GLC  0     **** GLC X 6
     6 ALP1        9 GROUP        1 Y    ALP  0     ROOT ALP Y 8
     7 SEP2        6 GROUP        1 Y    SEP  0     **** SEP Y 9
     8 LYP4       51 GROUP        1 Y    LYP  0     **** LYP Y 11
     9 ZIP7       35 GROUP        1 Y    ZIP  0     **** ZIP Y 12
    10 GLP5        3 GROUP        1 Y    GLP  0     **** GLP Y 13
    11 ALL1        8 GROUP        1 Z    ALL  0     ROOT ALL Z 15
    12 SEL2        5 GROUP        1 Z    SEL  0     **** SEL Z 16
    13 LYL4       50 GROUP        1 Z    LYL  0     **** LYL Z 18
    14 ZIL7       34 GROUP        1 Z    ZIL  0     **** ZIL Z 19
    15 GLL5        2 GROUP        1 Z    GLL  0     **** GLL Z 20
@<TRIPOS>SET

