#    Name: 1rp7_TZD_1_ligand
#    Modification time : Tue Mar 25 01:03:10 2014

@<TRIPOS>MOLECULE
1rp7_TZD_1_ligand
   42    43     1     0     0
SMALL
NO_CHARGES


@<TRIPOS>ATOM
      1 N1'        24.5960  -59.6220    1.0780 N.ar      1 TZD889      0.0000 
      2 C2'        24.1780  -58.7200    0.1240 C.ar      1 TZD889      0.0000 
      3 C2A        24.3080  -57.2750    0.4520 C.3       1 TZD889      0.0000 
      4 N3'        23.6740  -59.0950   -1.0500 N.ar      1 TZD889      0.0000 
      5 C4'        23.5580  -60.4590   -1.3360 C.ar      1 TZD889      0.0000 
      6 N4'        23.0770  -60.7660   -2.5250 N.pl3     1 TZD889      0.0000 
      7 C5'        23.9920  -61.4650   -0.3390 C.ar      1 TZD889      0.0000 
      8 C6'        24.4990  -60.9830    0.8420 C.ar      1 TZD889      0.0000 
      9 C35        23.9530  -62.9610   -0.5600 C.3       1 TZD889      0.0000 
     10 N3         22.5570  -63.5460   -0.6440 N.am      1 TZD889      0.0000 
     11 C2         21.9410  -63.8100   -1.8220 C.2       1 TZD889      0.0000 
     12 OC2        22.3730  -63.5710   -2.9610 O.2       1 TZD889      0.0000 
     13 S1         20.3830  -64.5630   -1.5240 S.3       1 TZD889      0.0000 
     14 C5         20.6060  -64.4830    0.1940 C.2       1 TZD889      0.0000 
     15 C4         21.8200  -63.9220    0.5170 C.2       1 TZD889      0.0000 
     16 C4A        22.3830  -63.7130    1.8970 C.3       1 TZD889      0.0000 
     17 C5A        19.5220  -64.9140    1.1280 C.3       1 TZD889      0.0000 
     18 C5B        18.2010  -64.2710    0.7870 C.3       1 TZD889      0.0000 
     19 O5G        17.3430  -64.3850    1.9470 O.3       1 TZD889      0.0000 
     20 P1         15.9720  -63.5670    2.0480 P.3       1 TZD889      0.0000 
     21 O11        15.1640  -64.0520    0.7640 O.3       1 TZD889      0.0000 
     22 O12        15.2680  -64.0150    3.2660 O.co2     1 TZD889      0.0000 
     23 O13        16.2650  -62.1220    1.8830 O.co2     1 TZD889      0.0000 
     24 P2         14.6210  -65.4550    0.2170 P.3       1 TZD889      0.0000 
     25 O21        13.1970  -65.1610   -0.3480 O.co2     1 TZD889      0.0000 
     26 O22        15.5160  -65.8680   -0.8980 O.co2     1 TZD889      0.0000 
     27 O23        14.5210  -66.3670    1.3810 O.co2     1 TZD889      0.0000 
     28 H          23.4326  -61.6031   -2.9408 H         1 TZD889      0.0000 
     29 H          22.4004  -60.1338   -2.9026 H         1 TZD889      0.0000 
     30 H          24.8175  -61.6478    1.5762 H         1 TZD889      0.0000 
     31 H          24.5027  -63.4615    0.2607 H         1 TZD889      0.0000 
     32 H          24.4996  -63.2024   -1.4923 H         1 TZD889      0.0000 
     33 H          19.7953  -64.6487    2.1585 H         1 TZD889      0.0000 
     34 H          19.4113  -66.0063    1.0864 H         1 TZD889      0.0000 
     35 H          17.7734  -64.7848   -0.0707 H         1 TZD889      0.0000 
     36 H          18.3759  -63.2295    0.5278 H         1 TZD889      0.0000 
     37 H          25.2575  -57.0195    0.6342 H         1 TZD889      0.0000 
     38 H          23.9864  -56.6940   -0.2957 H         1 TZD889      0.0000 
     39 H          23.7775  -57.0291    1.2632 H         1 TZD889      0.0000 
     40 H          23.2418  -64.2086    2.0267 H         1 TZD889      0.0000 
     41 H          22.5712  -62.7479    2.0791 H         1 TZD889      0.0000 
     42 H          21.7528  -64.0278    2.6068 H         1 TZD889      0.0000 
@<TRIPOS>BOND
     1    2    1 ar   
     2    8    1 ar   
     3    3    2 1    
     4    4    2 ar   
     5   37    3 1    
     6   38    3 1    
     7   39    3 1    
     8    5    4 ar   
     9    6    5 1    
    10    7    5 ar   
    11   28    6 1    
    12   29    6 1    
    13    8    7 ar   
    14    9    7 1    
    15   30    8 1    
    16   10    9 1    
    17   31    9 1    
    18   32    9 1    
    19   11   10 am   
    20   15   10 1    
    21   12   11 2    
    22   13   11 1    
    23   14   13 1    
    24   15   14 2    
    25   17   14 1    
    26   16   15 1    
    27   40   16 1    
    28   41   16 1    
    29   42   16 1    
    30   18   17 1    
    31   33   17 1    
    32   34   17 1    
    33   19   18 1    
    34   35   18 1    
    35   36   18 1    
    36   20   19 1    
    37   21   20 1    
    38   22   20 ar   
    39   23   20 ar   
    40   24   21 1    
    41   25   24 ar   
    42   26   24 ar   
    43   27   24 ar   
@<TRIPOS>SUBSTRUCTURE
     1 TZD889      1 GROUP   
@<TRIPOS>SET

