#    Name: 4kfn_1QR_1_INTS_M
#    Modification time : Tue Mar 25 07:48:46 2014

@<TRIPOS>MOLECULE
4kfn_1QR_1_INTS_M
   54     0     6     0     0
SMALL
NO_CHARGES


@<TRIPOS>ATOM
      1 CA         14.5900    8.3250   -3.4665 C.3       2 GLC5        0.0000 
      2 CA         14.6670    7.6840   -1.3460 C.3       6 GLL5        0.0000 
      3 CA         14.5130    8.9660   -5.5870 C.3       4 GLP5        0.0000 
      4 CA         16.2860   10.5445   -0.0630 C.3       2 GLC5        0.0000 
      5 CA         15.4790    8.5330   -0.6070 C.3       6 GLL5        0.0000 
      6 CA         17.0930   12.5560    0.4810 C.3       4 GLP5        0.0000 
      7 CA         17.0970   10.7620    0.8710 C.3       2 GLC5        0.0000 
      8 CA         17.1010    8.9680    1.2610 C.3       6 GLL5        0.0000 
      9 CA         18.1875   10.4535    2.4465 C.3       2 GLC5        0.0000 
     10 CA         19.2740   11.9390    3.6320 C.3       4 GLP5        0.0000 
     11 CA         16.9780    8.4910    7.2465 C.3       2 GLC5        0.0000 
     12 CA         15.5250   10.0190    7.8010 C.3       6 GLL5        0.0000 
     13 CA         18.4310    6.9630    6.6920 C.3       4 GLP5        0.0000 
     14 CA         17.5115   10.3145    8.4480 C.3       2 GLC5        0.0000 
     15 CA         19.4980   10.6100    9.0950 C.3       4 GLP5        0.0000 
     16 CA         16.8815    6.4465   -6.1360 C.3       2 GLC5        0.0000 
     17 CA         15.5890    4.8610   -5.4600 C.3       6 GLL5        0.0000 
     18 CA         18.1740    8.0320   -6.8120 C.3       4 GLP5        0.0000 
     19 CA         15.9480    5.7430    2.3725 C.3       2 GLC5        0.0000 
     20 CA         16.0930    6.7100    0.7950 C.3       6 GLL5        0.0000 
     21 CA         15.8030    4.7760    3.9500 C.3       4 GLP5        0.0000 
     22 CA         15.1835    4.9170    1.5910 C.3       2 GLC5        0.0000 
     23 CA         15.2770    5.8660    0.0560 C.3       6 GLL5        0.0000 
     24 CA         15.0900    3.9680    3.1260 C.3       4 GLP5        0.0000 
     25 O          17.6170    8.1250    3.4615 O.2       1 ALC1        0.0000 
     26 O          16.6470    9.2650    2.6160 O.2       5 ALL1        0.0000 
     27 O          18.5870    6.9850    4.3070 O.2       3 ALP1        0.0000 
     28 O          17.5745    9.0890    3.9780 O.2       1 ALC1        0.0000 
     29 O          18.5020    8.9130    5.3400 O.2       3 ALP1        0.0000 
     30 CA         17.2525   11.1315    3.9230 C.3       2 GLC5        0.0000 
     31 CA         15.2310   10.3240    4.2140 C.3       6 GLL5        0.0000 
     32 CA         12.9780    9.2250    7.6860 C.3       2 GLC5        0.0000 
     33 CA         13.1820   11.2730    7.0540 C.3       6 GLL5        0.0000 
     34 CA         12.7740    7.1770    8.3180 C.3       4 GLP5        0.0000 
     35 O          17.2380    9.4035    5.3215 O.2       1 ALC1        0.0000 
     36 O          15.9740    9.8940    5.3030 O.2       5 ALL1        0.0000 
     37 CA         18.3365    5.2220   -4.2335 C.3       2 GLC5        0.0000 
     38 CA         16.7710    4.0520   -4.9320 C.3       6 GLL5        0.0000 
     39 CA         19.9020    6.3920   -3.5350 C.3       4 GLP5        0.0000 
     40 CA         14.6485    9.8212   -1.4143 C.3       2 GLC5        0.0000 
     41 CA         14.2240   11.5340   -1.8520 C.3       4 GLP5        0.0000 
     42 CA         15.3833    1.3563   -3.0650 C.3       2 GLC5        0.0000 
     43 CA         15.5190    3.5990   -2.7990 C.3       6 GLL5        0.0000 
     44 CA         14.8960   -0.5730   -2.7270 C.3       4 GLP5        0.0000 
     45 CA         14.8968    7.1092   -5.2302 C.3       2 GLC5        0.0000 
     46 CA         17.3516    7.8577   -0.8731 C.3       2 GLC5        0.0000 
     47 CA         16.1900    8.0580    0.4840 C.3       6 GLL5        0.0000 
     48 CA         18.3340    8.1040   -2.5800 C.3       4 GLP5        0.0000 
     49 CA         13.1258    6.5968    0.1342 C.3       2 GLC5        0.0000 
     50 CA         11.3090    6.7530    0.8320 C.3       4 GLP5        0.0000 
     51 CA         16.5725    7.6656   -1.7891 C.3       2 GLC5        0.0000 
     52 CA         14.5490    6.3460   -1.0200 C.3       6 GLL5        0.0000 
     53 CA         13.9709    8.6981    7.8296 C.3       2 GLC5        0.0000 
     54 CA         15.2790   10.2060    6.4330 C.3       6 GLL5        0.0000 
@<TRIPOS>BOND
@<TRIPOS>SUBSTRUCTURE
     1 ALC1       25 GROUP        1 X    ALC  0     ROOT ALC X 1
     2 GLC5        1 GROUP        1 X    GLC  0     **** GLC X 6
     3 ALP1       27 GROUP        1 Y    ALP  0     ROOT ALP Y 8
     4 GLP5        3 GROUP        1 Y    GLP  0     **** GLP Y 13
     5 ALL1       26 GROUP        1 Z    ALL  0     ROOT ALL Z 15
     6 GLL5        2 GROUP        1 Z    GLL  0     **** GLL Z 20
@<TRIPOS>SET

