#    Name: 4kfn_1QR_1_ligand
#    Modification time : Tue Mar 25 07:48:46 2014

@<TRIPOS>MOLECULE
4kfn_1QR_1_ligand
   50    53     1     0     0
SMALL
NO_CHARGES


@<TRIPOS>ATOM
      1 C4         14.6670    7.6840   -1.3460 C.ar      1 1QR601      0.0000 
      2 C5         15.4790    8.5330   -0.6070 C.ar      1 1QR601      0.0000 
      3 C6         16.1900    8.0580    0.4840 C.ar      1 1QR601      0.0000 
      4 C7         17.1010    8.9680    1.2610 C.3       1 1QR601      0.0000 
      5 C13        14.0790   10.8520    6.0590 C.ar      1 1QR601      0.0000 
      6 C17        15.5250   10.0190    7.8010 C.ar      1 1QR601      0.0000 
      7 C26        16.2220    2.9720   -4.0070 C.3       1 1QR601      0.0000 
      8 C28        15.5890    4.8610   -5.4600 C.3       1 1QR601      0.0000 
      9 C1         16.0930    6.7100    0.7950 C.ar      1 1QR601      0.0000 
     10 C2         15.2770    5.8660    0.0560 C.ar      1 1QR601      0.0000 
     11 C3         14.5490    6.3460   -1.0200 C.ar      1 1QR601      0.0000 
     12 N8         16.6470    9.2650    2.6160 N.am      1 1QR601      0.0000 
     13 C9         15.6330   10.1180    2.8250 C.2       1 1QR601      0.0000 
     14 O10        15.0260   10.6390    1.8930 O.2       1 1QR601      0.0000 
     15 C11        15.2310   10.3240    4.2140 C.2       1 1QR601      0.0000 
     16 C12        14.0790   10.9050    4.6420 C.2       1 1QR601      0.0000 
     17 C14        13.1820   11.2730    7.0540 C.ar      1 1QR601      0.0000 
     18 N15        13.4590   11.0530    8.3360 N.ar      1 1QR601      0.0000 
     19 C16        14.5880   10.4460    8.6980 C.ar      1 1QR601      0.0000 
     20 C18        15.2790   10.2060    6.4330 C.ar      1 1QR601      0.0000 
     21 N19        15.9740    9.8940    5.3030 N.pl3     1 1QR601      0.0000 
     22 S21        13.5470    5.2670   -2.0010 S.o2      1 1QR601      0.0000 
     23 O22        12.6170    6.0400   -2.7330 O.2       1 1QR601      0.0000 
     24 O23        13.2100    4.0950   -1.2780 O.2       1 1QR601      0.0000 
     25 N24        14.7110    4.7980   -3.1020 N.pl3     1 1QR601      0.0000 
     26 C25        15.5190    3.5990   -2.7990 C.3       1 1QR601      0.0000 
     27 C27        16.7710    4.0520   -4.9320 C.3       1 1QR601      0.0000 
     28 C29        14.9720    5.6440   -4.2870 C.3       1 1QR601      0.0000 
     29 H          14.1407    8.0625   -2.1564 H         1 1QR601      0.0000 
     30 H          15.5538    9.5292   -0.8734 H         1 1QR601      0.0000 
     31 H          17.2261    9.9137    0.6841 H         1 1QR601      0.0000 
     32 H          18.1151    8.5059    1.2905 H         1 1QR601      0.0000 
     33 H          16.3915    9.5713    8.1026 H         1 1QR601      0.0000 
     34 H          15.5107    2.3553   -4.5529 H         1 1QR601      0.0000 
     35 H          17.0398    2.3448   -3.6576 H         1 1QR601      0.0000 
     36 H          14.8475    4.1953   -5.8703 H         1 1QR601      0.0000 
     37 H          15.9304    5.5563   -6.2092 H         1 1QR601      0.0000 
     38 H          16.6368    6.3283    1.5893 H         1 1QR601      0.0000 
     39 H          15.2120    4.8650    0.3128 H         1 1QR601      0.0000 
     40 H          17.1432    8.7890    3.3837 H         1 1QR601      0.0000 
     41 H          13.3877   11.2827    4.1218 H         1 1QR601      0.0000 
     42 H          12.3127   11.7525    6.7550 H         1 1QR601      0.0000 
     43 H          14.7818   10.2796    9.7301 H         1 1QR601      0.0000 
     44 H          16.8197    9.4586    5.2551 H         1 1QR601      0.0000 
     45 H          16.2953    3.8443   -2.0416 H         1 1QR601      0.0000 
     46 H          14.8805    2.8176   -2.3320 H         1 1QR601      0.0000 
     47 H          17.2891    3.5923   -5.7565 H         1 1QR601      0.0000 
     48 H          17.4316    4.6989   -4.3799 H         1 1QR601      0.0000 
     49 H          14.0364    6.1066   -4.6415 H         1 1QR601      0.0000 
     50 H          15.6594    6.4658   -4.0276 H         1 1QR601      0.0000 
@<TRIPOS>BOND
     1    2    1 ar   
     2   11    1 ar   
     3   29    1 1    
     4    3    2 ar   
     5   30    2 1    
     6    4    3 1    
     7    9    3 ar   
     8   12    4 1    
     9   31    4 1    
    10   32    4 1    
    11   16    5 1    
    12   17    5 ar   
    13   20    5 ar   
    14   19    6 ar   
    15   20    6 ar   
    16   33    6 1    
    17   26    7 1    
    18   27    7 1    
    19   34    7 1    
    20   35    7 1    
    21   27    8 1    
    22   28    8 1    
    23   36    8 1    
    24   37    8 1    
    25   10    9 ar   
    26   38    9 1    
    27   11   10 ar   
    28   39   10 1    
    29   22   11 1    
    30   13   12 am   
    31   40   12 1    
    32   14   13 2    
    33   15   13 1    
    34   16   15 2    
    35   21   15 1    
    36   41   16 1    
    37   18   17 ar   
    38   42   17 1    
    39   19   18 ar   
    40   43   19 1    
    41   21   20 1    
    42   44   21 1    
    43   23   22 2    
    44   24   22 2    
    45   25   22 1    
    46   26   25 1    
    47   28   25 1    
    48   45   26 1    
    49   46   26 1    
    50   47   27 1    
    51   48   27 1    
    52   49   28 1    
    53   50   28 1    
@<TRIPOS>SUBSTRUCTURE
     1 1QR601      1 GROUP   
@<TRIPOS>SET

