#    Name: 1KC3_1_CAVITY_N1_6.mol2
#    Modification time : Tue Mar 11 13:08:16 2014

@<TRIPOS>MOLECULE
1KC3_1_CAVITY_N1_6.mol2
  103     0     6     0     0
SMALL
NO_CHARGES


@<TRIPOS>ATOM
      1 NZ          5.2604  -23.5583    9.8531 N.2       3 LYS4        0.0000 
      2 O           2.1515  -23.6118   11.1108 O.2       2 ALA2        0.0000 
      3 O           0.1250  -23.1120   11.4896 O.2       2 ALA2        0.0000 
      4 DU          1.2074  -22.5588   10.6108 H         6 CUB7        0.0000 
      5 DU          0.2633  -21.5058   10.1109 H         6 CUB7        0.0000 
      6 DU          1.3457  -20.9526    9.2320 H         6 CUB7        0.0000 
      7 CZ         -0.6808  -20.4528    9.6109 C.ar      4 PHE5        0.0000 
      8 OG          0.4017  -19.8996    8.7321 O.2       1 SER1        0.0000 
      9 O           6.6370  -23.6974   11.4611 O.2       2 ALA2        0.0000 
     10 O           3.5281  -23.7509   12.7187 O.2       2 ALA2        0.0000 
     11 O           4.6105  -23.1977   11.8399 O.2       2 ALA2        0.0000 
     12 OG          0.4192  -23.8043   13.9764 O.2       1 SER1        0.0000 
     13 O           1.5016  -23.2511   13.0976 O.2       2 ALA2        0.0000 
     14 O           2.5840  -22.6979   12.2188 O.2       2 ALA2        0.0000 
     15 DU          3.6664  -22.1447   11.3400 H         6 CUB7        0.0000 
     16 DU          4.7488  -21.5915   10.4612 H         6 CUB7        0.0000 
     17 CZ         -0.5249  -22.7513   13.4765 C.ar      4 PHE5        0.0000 
     18 CZ          0.5575  -22.1981   12.5977 C.ar      4 PHE5        0.0000 
     19 DU          1.6399  -21.6449   11.7188 H         6 CUB7        0.0000 
     20 CZ         -0.3866  -21.1451   12.0977 C.ar      4 PHE5        0.0000 
     21 DU          0.6959  -20.5919   11.2189 H         6 CUB7        0.0000 
     22 DU          1.7783  -20.0387   10.3401 H         6 CUB7        0.0000 
     23 DU          2.8607  -19.4855    9.4612 H         6 CUB7        0.0000 
     24 CA         -1.3306  -20.0921   11.5978 C.3       5 GLY6        0.0000 
     25 CA         -0.2482  -19.5389   10.7189 C.3       5 GLY6        0.0000 
     26 O           0.8342  -18.9857    9.8401 O.2       2 ALA2        0.0000 
     27 OG          1.9166  -18.4325    8.9613 O.2       1 SER1        0.0000 
     28 CZ          2.8782  -23.3902   14.7056 C.ar      4 PHE5        0.0000 
     29 CA          3.9606  -22.8370   13.8268 C.3       5 GLY6        0.0000 
     30 CA          5.0430  -22.2838   12.9479 C.3       5 GLY6        0.0000 
     31 N           6.1255  -21.7306   12.0691 N.2       2 ALA2        0.0000 
     32 CA          7.2079  -21.1774   11.1903 C.3       5 GLY6        0.0000 
     33 OG          1.9341  -22.3372   14.2056 O.2       1 SER1        0.0000 
     34 DU          3.0165  -21.7840   13.3268 H         6 CUB7        0.0000 
     35 DU          4.0990  -21.2308   12.4480 H         6 CUB7        0.0000 
     36 DU          5.1814  -20.6776   11.5692 H         6 CUB7        0.0000 
     37 DU          6.2638  -20.1244   10.6904 H         6 CUB7        0.0000 
     38 CZ         -0.0924  -21.8374   14.5845 C.ar      4 PHE5        0.0000 
     39 CZ          0.9900  -21.2842   13.7057 C.ar      4 PHE5        0.0000 
     40 DU          2.0725  -20.7310   12.8269 H         6 CUB7        0.0000 
     41 CZ          0.0460  -20.2312   13.2057 C.ar      4 PHE5        0.0000 
     42 DU          1.1284  -19.6780   12.3269 H         6 CUB7        0.0000 
     43 DU          2.2108  -19.1248   11.4481 H         6 CUB7        0.0000 
     44 DU          3.2932  -18.5716   10.5693 H         6 CUB7        0.0000 
     45 CZ         -0.8981  -19.1783   12.7058 C.ar      4 PHE5        0.0000 
     46 O           0.1843  -18.6251   11.8270 O.2       2 ALA2        0.0000 
     47 O           1.2667  -18.0718   10.9481 O.2       2 ALA2        0.0000 
     48 CA          2.3492  -17.5186   10.0693 C.3       5 GLY6        0.0000 
     49 O           3.4316  -16.9654    9.1905 O.2       2 ALA2        0.0000 
     50 CZ          2.2283  -23.0295   16.6924 C.ar      4 PHE5        0.0000 
     51 CA          3.3107  -22.4763   15.8136 C.3       5 GLY6        0.0000 
     52 CA          4.3931  -21.9231   14.9348 C.3       5 GLY6        0.0000 
     53 N           5.4756  -21.3699   14.0560 N.2       2 ALA2        0.0000 
     54 CA          8.7228  -19.7103   11.4195 C.3       5 GLY6        0.0000 
     55 OG          1.2842  -21.9765   16.1925 O.2       1 SER1        0.0000 
     56 DU          2.3667  -21.4233   15.3137 H         6 CUB7        0.0000 
     57 DU          3.4491  -20.8701   14.4348 H         6 CUB7        0.0000 
     58 N           4.5315  -20.3169   13.5560 N.2       2 ALA2        0.0000 
     59 N           5.6139  -19.7637   12.6772 N.2       2 ALA2        0.0000 
     60 N           6.6963  -19.2105   11.7984 N.2       2 ALA2        0.0000 
     61 DU          7.7788  -18.6573   10.9196 H         6 CUB7        0.0000 
     62 CZ          0.3402  -20.9236   15.6925 C.ar      4 PHE5        0.0000 
     63 N           1.4226  -20.3703   14.8137 N.2       2 ALA2        0.0000 
     64 N           2.5050  -19.8171   13.9349 N.2       2 ALA2        0.0000 
     65 DU          3.5874  -19.2639   13.0561 H         6 CUB7        0.0000 
     66 DU          4.6698  -18.7107   12.1773 H         6 CUB7        0.0000 
     67 DU          5.7523  -18.1575   11.2984 H         6 CUB7        0.0000 
     68 CZ         -0.6039  -19.8706   15.1926 C.ar      4 PHE5        0.0000 
     69 CZ          0.4785  -19.3174   14.3138 C.ar      4 PHE5        0.0000 
     70 N           1.5609  -18.7642   13.4349 N.2       2 ALA2        0.0000 
     71 DU          2.6434  -18.2109   12.5561 H         6 CUB7        0.0000 
     72 N           3.7258  -17.6577   11.6773 N.2       2 ALA2        0.0000 
     73 N           4.8082  -17.1045   10.7985 N.2       2 ALA2        0.0000 
     74 CZ         -0.4656  -18.2644   13.8138 C.ar      4 PHE5        0.0000 
     75 O           0.6169  -17.7112   12.9350 O.2       2 ALA2        0.0000 
     76 CA          1.6993  -17.1580   12.0562 C.3       5 GLY6        0.0000 
     77 CZ          3.6049  -23.1686   18.3004 C.ar      4 PHE5        0.0000 
     78 CZ          4.6873  -22.6154   17.4216 C.ar      4 PHE5        0.0000 
     79 CZ          1.5784  -22.6688   18.6793 C.ar      4 PHE5        0.0000 
     80 CZ          2.6608  -22.1156   17.8005 C.ar      4 PHE5        0.0000 
     81 CA          3.7433  -21.5624   16.9216 C.3       5 GLY6        0.0000 
     82 CA          4.8257  -21.0092   16.0428 C.3       5 GLY6        0.0000 
     83 NZ          0.6343  -21.6159   18.1793 N.2       3 LYS4        0.0000 
     84 N           1.7168  -21.0627   17.3005 N.2       2 ALA2        0.0000 
     85 N           2.7992  -20.5094   16.4217 N.2       2 ALA2        0.0000 
     86 N           3.8816  -19.9562   15.5429 N.2       2 ALA2        0.0000 
     87 N           4.9640  -19.4030   14.6641 N.2       2 ALA2        0.0000 
     88 N           6.0465  -18.8498   13.7852 N.2       2 ALA2        0.0000 
     89 N           7.1289  -18.2966   12.9064 N.2       2 ALA2        0.0000 
     90 OG          8.2113  -17.7434   12.0276 O.2       1 SER1        0.0000 
     91 O           4.0200  -18.3500   14.1641 O.2       2 ALA2        0.0000 
     92 O           5.1024  -17.7968   13.2853 O.2       2 ALA2        0.0000 
     93 N           6.1848  -17.2436   12.4065 N.2       2 ALA2        0.0000 
     94 N           1.9935  -17.8503   14.5430 N.2       2 ALA2        0.0000 
     95 O           3.0759  -17.2971   13.6642 O.2       2 ALA2        0.0000 
     96 N           4.1583  -16.7439   12.7853 N.2       2 ALA2        0.0000 
     97 N           2.1318  -16.2441   13.1642 N.2       2 ALA2        0.0000 
     98 CA          3.0934  -21.2018   18.9085 C.3       5 GLY6        0.0000 
     99 CA          4.1758  -20.6485   18.0297 C.3       5 GLY6        0.0000 
    100 CA          6.4790  -17.9359   14.8933 C.3       5 GLY6        0.0000 
    101 O           5.5349  -16.8829   14.3933 O.2       2 ALA2        0.0000 
    102 NZ          6.6173  -16.3297   13.5145 N.2       3 LYS4        0.0000 
    103 O           4.5908  -15.8300   13.8934 O.2       2 ALA2        0.0000 
@<TRIPOS>BOND
@<TRIPOS>SUBSTRUCTURE
     1 SER1        8 GROUP   
     2 ALA2        2 GROUP   
     3 LYS4        1 GROUP   
     4 PHE5        7 GROUP   
     5 GLY6       24 GROUP   
     6 CUB7        4 GROUP   
@<TRIPOS>SET

