#    Name: 1kc3_TRH_1_INTS_M
#    Modification time : Tue Mar 25 09:49:40 2014

@<TRIPOS>MOLECULE
1kc3_TRH_1_INTS_M
   59     0    12     0     0
SMALL
NO_CHARGES


@<TRIPOS>ATOM
      1 NZ          3.3025  -25.1865   13.1755 N.4       3 LYC4        0.0000 
      2 NZ          3.7010  -23.6580   13.5990 N.4      11 LYL4        0.0000 
      3 NZ          2.9040  -26.7150   12.7520 N.4       7 LYP4        0.0000 
      4 CA          4.2445  -22.8250   15.5355 C.3       4 GLC5        0.0000 
      5 CA          2.1710  -21.9740   15.5880 C.3      12 GLL5        0.0000 
      6 CA          6.3180  -23.6760   15.4830 C.3       8 GLP5        0.0000 
      7 CA         -0.9375  -21.6055   15.3890 C.3       4 GLC5        0.0000 
      8 CA          1.0340  -21.3270   16.3520 C.3      12 GLL5        0.0000 
      9 CA         -2.9090  -21.8840   14.4260 C.3       8 GLP5        0.0000 
     10 O           1.6315  -18.8405   16.5675 O.2       1 ALC1        0.0000 
     11 O           0.9550  -19.9400   16.0570 O.2       9 ALL1        0.0000 
     12 O           2.3080  -17.7410   17.0780 O.2       5 ALP1        0.0000 
     13 N          -0.3935  -19.9090   18.7665 N.am      2 SEC2        0.0000 
     14 N           0.4470  -21.1110   18.7240 N.am     10 SEL2        0.0000 
     15 N          -1.2340  -18.7070   18.8090 N.am      6 SEP2        0.0000 
     16 O           0.2545  -21.8885   20.0280 O.2       1 ALC1        0.0000 
     17 O           0.4470  -21.1110   18.7240 O.2       9 ALL1        0.0000 
     18 O           0.0620  -22.6660   21.3320 O.2       5 ALP1        0.0000 
     19 N           3.2185  -22.1440   20.7385 N.am      2 SEC2        0.0000 
     20 N           2.9950  -21.4790   19.5190 N.am     10 SEL2        0.0000 
     21 N           3.4420  -22.8090   21.9580 N.am      6 SEP2        0.0000 
     22 CA          3.5340  -19.9210   18.4330 C.3       4 GLC5        0.0000 
     23 CA          3.9170  -21.3780   17.1360 C.3      12 GLL5        0.0000 
     24 CA          3.1510  -18.4640   19.7300 C.3       8 GLP5        0.0000 
     25 CA          7.0350  -19.5725   16.7465 C.3       4 GLC5        0.0000 
     26 CA          5.1060  -20.4130   17.1080 C.3      12 GLL5        0.0000 
     27 CA          8.9640  -18.7320   16.3850 C.3       8 GLP5        0.0000 
     28 CA          6.0985  -21.1565   18.3790 C.3       4 GLC5        0.0000 
     29 CA          7.0910  -21.9000   19.6500 C.3       8 GLP5        0.0000 
     30 CA          4.5495  -19.0165   17.9605 C.3       4 GLC5        0.0000 
     31 CA          3.9930  -17.6200   18.8130 C.3       8 GLP5        0.0000 
     32 CA         -2.1315  -22.2810   12.9005 C.3       4 GLC5        0.0000 
     33 CA         -1.3540  -22.6780   11.3750 C.3      12 GLL5        0.0000 
     34 CA         -3.5475  -22.7705   11.6695 C.3       4 GLC5        0.0000 
     35 CA         -2.2410  -23.5120   10.4410 C.3      12 GLL5        0.0000 
     36 CA         -4.8540  -22.0290   12.8980 C.3       8 GLP5        0.0000 
     37 CA         -3.7625  -24.5975   11.8930 C.3       4 GLC5        0.0000 
     38 CA         -2.0710  -25.0340   10.5720 C.3      12 GLL5        0.0000 
     39 CA         -5.4540  -24.1610   13.2140 C.3       8 GLP5        0.0000 
     40 CA         -3.6600  -22.4880    8.7050 C.3       4 GLC5        0.0000 
     41 CA         -2.8370  -24.2300    8.3450 C.3      12 GLL5        0.0000 
     42 CA         -4.4830  -20.7460    9.0650 C.3       8 GLP5        0.0000 
     43 N          -6.3005  -25.5640    7.1655 N.am      2 SEC2        0.0000 
     44 N          -4.8020  -24.9080    6.5960 N.am     10 SEL2        0.0000 
     45 N          -7.7990  -26.2200    7.7350 N.am      6 SEP2        0.0000 
     46 CA         -0.7333  -21.3062   17.3795 C.3       4 GLC5        0.0000 
     47 CA         -2.6720  -21.1460   17.6790 C.3       8 GLP5        0.0000 
     48 CA          1.1494  -23.3666   17.0780 C.3       4 GLC5        0.0000 
     49 CA          1.3770  -21.6060   17.8080 C.3      12 GLL5        0.0000 
     50 CA          0.8090  -25.1050   17.2670 C.3       8 GLP5        0.0000 
     51 CA          2.6117  -19.9047   18.8532 C.3       4 GLC5        0.0000 
     52 CA          4.7457  -22.0868   18.6117 C.3       4 GLC5        0.0000 
     53 CA          2.7680  -21.0850   18.1450 C.3      12 GLL5        0.0000 
     54 CA          6.1490  -22.9420   19.5830 C.3       8 GLP5        0.0000 
     55 CA          5.4147  -22.2858   16.3025 C.3       4 GLC5        0.0000 
     56 CA         -2.6108  -21.5465   10.2295 C.3       4 GLC5        0.0000 
     57 CA         -3.4240  -19.9980    9.5510 C.3       8 GLP5        0.0000 
     58 CA         -3.5810  -26.8457    9.9245 C.3       4 GLC5        0.0000 
     59 CA         -4.7910  -28.4380    9.9390 C.3       8 GLP5        0.0000 
@<TRIPOS>BOND
@<TRIPOS>SUBSTRUCTURE
     1 ALC1       10 GROUP        1 X    ALC  0     ROOT ALC X 1
     2 SEC2       13 GROUP        1 X    SEC  0     **** SEC X 2
     3 LYC4        1 GROUP        1 X    LYC  0     **** LYC X 4
     4 GLC5        4 GROUP        1 X    GLC  0     **** GLC X 6
     5 ALP1       12 GROUP        1 Y    ALP  0     ROOT ALP Y 8
     6 SEP2       15 GROUP        1 Y    SEP  0     **** SEP Y 9
     7 LYP4        3 GROUP        1 Y    LYP  0     **** LYP Y 11
     8 GLP5        6 GROUP        1 Y    GLP  0     **** GLP Y 13
     9 ALL1       11 GROUP        1 Z    ALL  0     ROOT ALL Z 15
    10 SEL2       14 GROUP        1 Z    SEL  0     **** SEL Z 16
    11 LYL4        2 GROUP        1 Z    LYL  0     **** LYL Z 18
    12 GLL5        5 GROUP        1 Z    GLL  0     **** GLL Z 20
@<TRIPOS>SET

