#    Name: 1kc3_TRH_1_ligand
#    Modification time : Tue Mar 25 09:49:40 2014

@<TRIPOS>MOLECULE
1kc3_TRH_1_ligand
   59    61     1     0     0
SMALL
NO_CHARGES


@<TRIPOS>ATOM
      1 O4P         3.9080  -21.2290   12.8120 O.co2     1 TRH601      0.0000 
      2 P2          2.9820  -22.4110   13.1210 P.3       1 TRH601      0.0000 
      3 O3P         3.7010  -23.6580   13.5990 O.co2     1 TRH601      0.0000 
      4 O1          1.8540  -22.0170   14.2180 O.3       1 TRH601      0.0000 
      5 C1          2.1710  -21.9740   15.5880 C.3       1 TRH601      0.0000 
      6 C2          1.0340  -21.3270   16.3520 C.3       1 TRH601      0.0000 
      7 O2          0.9550  -19.9400   16.0570 O.3       1 TRH601      0.0000 
      8 C3          1.3770  -21.6060   17.8080 C.3       1 TRH601      0.0000 
      9 O3          0.4470  -21.1110   18.7240 O.3       1 TRH601      0.0000 
     10 C4          2.7680  -21.0850   18.1450 C.3       1 TRH601      0.0000 
     11 O4          2.9950  -21.4790   19.5190 O.3       1 TRH601      0.0000 
     12 C5          3.9170  -21.3780   17.1360 C.3       1 TRH601      0.0000 
     13 O5          3.3920  -21.2600   15.8160 O.3       1 TRH601      0.0000 
     14 C6          5.1060  -20.4130   17.1080 C.3       1 TRH601      0.0000 
     15 OPP         1.9750  -22.7260   11.9170 O.3       1 TRH601      0.0000 
     16 P           1.0870  -21.5640   11.2590 P.3       1 TRH601      0.0000 
     17 O1P         1.9730  -21.1070   10.1050 O.co2     1 TRH601      0.0000 
     18 O2P         0.5190  -20.6490   12.3210 O.co2     1 TRH601      0.0000 
     19 O5'        -0.2010  -22.2780   10.6450 O.3       1 TRH601      0.0000 
     20 C5'        -1.3540  -22.6780   11.3750 C.3       1 TRH601      0.0000 
     21 C4'        -2.2410  -23.5120   10.4410 C.3       1 TRH601      0.0000 
     22 O4'        -2.0140  -23.2890    9.0120 O.3       1 TRH601      0.0000 
     23 C3'        -2.0710  -25.0340   10.5720 C.3       1 TRH601      0.0000 
     24 O3'        -2.7070  -25.6430   11.7090 O.3       1 TRH601      0.0000 
     25 C2'        -2.6710  -25.4730    9.2480 C.3       1 TRH601      0.0000 
     26 C1'        -2.8370  -24.2300    8.3450 C.3       1 TRH601      0.0000 
     27 N11        -2.5910  -24.7710    6.9850 N.am      1 TRH601      0.0000 
     28 C21        -3.6620  -25.1140    6.2190 C.2       1 TRH601      0.0000 
     29 O21        -4.8020  -24.9080    6.5960 O.2       1 TRH601      0.0000 
     30 N31        -3.5800  -25.6930    5.0080 N.am      1 TRH601      0.0000 
     31 C41        -2.3910  -26.0160    4.4730 C.2       1 TRH601      0.0000 
     32 O41        -2.3200  -26.5490    3.3380 O.2       1 TRH601      0.0000 
     33 C51        -1.1770  -25.6940    5.2840 C.2       1 TRH601      0.0000 
     34 C5A         0.1780  -26.0350    4.7430 C.3       1 TRH601      0.0000 
     35 C61        -1.3460  -25.0690    6.5390 C.2       1 TRH601      0.0000 
     36 H           2.2681  -22.9966   15.9832 H         1 TRH601      0.0000 
     37 H           0.1381  -21.8647   16.1153 H         1 TRH601      0.0000 
     38 H           1.4498  -22.7204   17.9050 H         1 TRH601      0.0000 
     39 H           2.6440  -19.9457   18.1626 H         1 TRH601      0.0000 
     40 H           4.2834  -22.3749   17.2882 H         1 TRH601      0.0000 
     41 H          -1.9417  -21.8266   11.7157 H         1 TRH601      0.0000 
     42 H          -1.1029  -23.2990   12.2338 H         1 TRH601      0.0000 
     43 H          -3.2960  -23.3043   10.6564 H         1 TRH601      0.0000 
     44 H          -1.0113  -25.2324   10.5077 H         1 TRH601      0.0000 
     45 H          -3.6401  -25.9175    9.4119 H         1 TRH601      0.0000 
     46 H          -2.0127  -26.1741    8.7595 H         1 TRH601      0.0000 
     47 H          -3.9019  -23.9927    8.4641 H         1 TRH601      0.0000 
     48 H          -4.4611  -25.8959    4.4719 H         1 TRH601      0.0000 
     49 H          -0.5073  -24.8499    7.0965 H         1 TRH601      0.0000 
     50 H           5.5729  -20.3731   17.9914 H         1 TRH601      0.0000 
     51 H           5.7877  -20.6833   16.4281 H         1 TRH601      0.0000 
     52 H           4.8224  -19.4806   16.8840 H         1 TRH601      0.0000 
     53 H           0.9073  -25.7684    5.3731 H         1 TRH601      0.0000 
     54 H           0.2763  -27.0166    4.5794 H         1 TRH601      0.0000 
     55 H           0.3579  -25.5736    3.8743 H         1 TRH601      0.0000 
     56 H           1.3877  -19.4850   16.8353 H         1 TRH601      0.0000 
     57 H           0.1150  -21.9158   19.2161 H         1 TRH601      0.0000 
     58 H           2.1349  -21.2827   19.9899 H         1 TRH601      0.0000 
     59 H          -2.4840  -26.6154   11.6401 H         1 TRH601      0.0000 
@<TRIPOS>BOND
     1    2    1 ar   
     2    3    2 ar   
     3    4    2 1    
     4   15    2 1    
     5    5    4 1    
     6    6    5 1    
     7   13    5 1    
     8   36    5 1    
     9    7    6 1    
    10    8    6 1    
    11   37    6 1    
    12   56    7 1    
    13    9    8 1    
    14   10    8 1    
    15   38    8 1    
    16   57    9 1    
    17   11   10 1    
    18   12   10 1    
    19   39   10 1    
    20   58   11 1    
    21   13   12 1    
    22   14   12 1    
    23   40   12 1    
    24   50   14 1    
    25   51   14 1    
    26   52   14 1    
    27   16   15 1    
    28   17   16 ar   
    29   18   16 ar   
    30   19   16 1    
    31   20   19 1    
    32   21   20 1    
    33   41   20 1    
    34   42   20 1    
    35   22   21 1    
    36   23   21 1    
    37   43   21 1    
    38   26   22 1    
    39   24   23 1    
    40   25   23 1    
    41   44   23 1    
    42   59   24 1    
    43   26   25 1    
    44   45   25 1    
    45   46   25 1    
    46   27   26 1    
    47   47   26 1    
    48   28   27 1    
    49   35   27 1    
    50   29   28 2    
    51   30   28 1    
    52   31   30 1    
    53   48   30 1    
    54   32   31 2    
    55   33   31 1    
    56   34   33 1    
    57   35   33 2    
    58   53   34 1    
    59   54   34 1    
    60   55   34 1    
    61   49   35 1    
@<TRIPOS>SUBSTRUCTURE
     1 TRH601      1 GROUP   
@<TRIPOS>SET

