#    Name: 3own_3OW_2_INTS_M
#    Modification time : Tue Mar 25 05:29:15 2014

@<TRIPOS>MOLECULE
3own_3OW_2_INTS_M
  104     0     9     0     0
SMALL
NO_CHARGES


@<TRIPOS>ATOM
      1 O          19.4095   -0.9405  -17.6080 O.2       1 ALC1        0.0000 
      2 O          20.7620   -0.7030  -16.7390 O.2       7 ALL1        0.0000 
      3 O          18.0570   -1.1780  -18.4770 O.2       4 ALP1        0.0000 
      4 CA         23.0720    0.7875  -20.1965 C.3       3 GLC5        0.0000 
      5 CA         22.6630   -0.1000  -18.2570 C.3       9 GLL5        0.0000 
      6 CA         23.4810    1.6750  -22.1360 C.3       6 GLP5        0.0000 
      7 CA         23.9270    1.7410  -20.0355 C.3       3 GLC5        0.0000 
      8 CA         24.3730    1.8070  -17.9350 C.3       9 GLL5        0.0000 
      9 N          21.5250   -0.3715  -20.5245 N.am      2 SEC2        0.0000 
     10 N          21.8130    0.2430  -19.3830 N.am      8 SEL2        0.0000 
     11 N          21.2370   -0.9860  -21.6660 N.am      5 SEP2        0.0000 
     12 O          21.1350    1.4290  -19.3125 O.2       1 ALC1        0.0000 
     13 O          21.8130    0.2430  -19.3830 O.2       7 ALL1        0.0000 
     14 O          20.4570    2.6150  -19.2420 O.2       4 ALP1        0.0000 
     15 CA         23.9330    5.5795  -19.0690 C.3       3 GLC5        0.0000 
     16 CA         23.2690    4.0570  -17.5630 C.3       9 GLL5        0.0000 
     17 CA         24.5970    7.1020  -20.5750 C.3       6 GLP5        0.0000 
     18 CA         22.0370    4.8320  -16.3590 C.3       3 GLC5        0.0000 
     19 CA         20.8050    5.6070  -15.1550 C.3       6 GLP5        0.0000 
     20 CA         23.3025    5.5610  -16.3650 C.3       3 GLC5        0.0000 
     21 CA         23.3360    7.0650  -15.1670 C.3       6 GLP5        0.0000 
     22 CA         25.1430    5.5295  -19.3590 C.3       3 GLC5        0.0000 
     23 CA         25.6890    3.9570  -18.1430 C.3       9 GLL5        0.0000 
     24 N          25.3370    0.2880  -14.9280 N.am      2 SEC2        0.0000 
     25 N          25.7180    0.6450  -16.3510 N.am      8 SEL2        0.0000 
     26 N          24.9560   -0.0690  -13.5050 N.am      5 SEP2        0.0000 
     27 CA         26.8225   -1.2085  -19.8920 C.3       3 GLC5        0.0000 
     28 CA         27.5510   -0.3230  -18.3760 C.3       9 GLL5        0.0000 
     29 CA         26.0940   -2.0940  -21.4080 C.3       6 GLP5        0.0000 
     30 CA         26.4975   -1.7345  -17.8785 C.3       3 GLC5        0.0000 
     31 CA         25.4440   -3.1460  -17.3810 C.3       6 GLP5        0.0000 
     32 CA         31.2290   -1.7320  -18.4605 C.3       3 GLC5        0.0000 
     33 CA         30.0170   -0.3370  -18.6220 C.3       9 GLL5        0.0000 
     34 CA         32.4410   -3.1270  -18.2990 C.3       6 GLP5        0.0000 
     35 CA         27.4820    0.1955  -21.1600 C.3       3 GLC5        0.0000 
     36 CA         28.7190    1.3910  -19.8470 C.3       9 GLL5        0.0000 
     37 CA         26.2450   -1.0000  -22.4730 C.3       6 GLP5        0.0000 
     38 CA         29.7335    1.6345  -21.5145 C.3       3 GLC5        0.0000 
     39 CA         30.7480    1.8780  -23.1820 C.3       6 GLP5        0.0000 
     40 O          26.0085    0.9525  -19.8180 O.2       1 ALC1        0.0000 
     41 O          26.3650    0.5210  -18.4680 O.2       7 ALL1        0.0000 
     42 O          25.6520    1.3840  -21.1680 O.2       4 ALP1        0.0000 
     43 CA         18.0685    1.9280  -16.2020 C.3       3 GLC5        0.0000 
     44 CA         18.9440    1.2190  -14.2730 C.3       9 GLL5        0.0000 
     45 CA         17.1930    2.6370  -18.1310 C.3       6 GLP5        0.0000 
     46 CA         19.9615    2.7985  -14.0595 C.3       3 GLC5        0.0000 
     47 CA         20.9790    4.3780  -13.8460 C.3       6 GLP5        0.0000 
     48 CA         14.6340    0.2325  -14.9040 C.3       3 GLC5        0.0000 
     49 CA         16.6590    0.3470  -14.0440 C.3       9 GLL5        0.0000 
     50 CA         12.6090    0.1180  -15.7640 C.3       6 GLP5        0.0000 
     51 CA         18.8220    4.5830  -11.9480 C.3       3 GLC5        0.0000 
     52 CA         17.7650    2.9150  -11.9020 C.3       9 GLL5        0.0000 
     53 CA         19.8790    6.2510  -11.9940 C.3       6 GLP5        0.0000 
     54 CA         16.2815    2.6380  -16.5955 C.3       3 GLC5        0.0000 
     55 CA         15.3700    2.6390  -15.0600 C.3       9 GLL5        0.0000 
     56 CA         14.2045    1.7175  -16.0710 C.3       3 GLC5        0.0000 
     57 CA         13.0390    0.7960  -17.0820 C.3       6 GLP5        0.0000 
     58 CA         13.9965    2.6435  -14.0170 C.3       3 GLC5        0.0000 
     59 CA         12.6230    2.6480  -12.9740 C.3       6 GLP5        0.0000 
     60 N          22.2120   -0.7015  -13.3850 N.am      2 SEC2        0.0000 
     61 N          21.6350   -0.2190  -14.7040 N.am      8 SEL2        0.0000 
     62 N          22.7890   -1.1840  -12.0660 N.am      5 SEP2        0.0000 
     63 O          17.1180   -1.7905  -17.3525 O.2       1 ALC1        0.0000 
     64 O          16.1790   -2.4030  -16.2280 O.2       7 ALL1        0.0000 
     65 CA         14.0840   -5.0045  -16.7630 C.3       3 GLC5        0.0000 
     66 CA         15.6980   -3.6430  -16.7790 C.3       9 GLL5        0.0000 
     67 CA         12.4700   -6.3660  -16.7470 C.3       6 GLP5        0.0000 
     68 CA         17.2570   -8.3550  -15.0400 C.3       3 GLC5        0.0000 
     69 CA         18.0240   -6.3430  -15.3370 C.3       9 GLL5        0.0000 
     70 CA         16.4900  -10.3670  -14.7430 C.3       6 GLP5        0.0000 
     71 CA         21.3090   -6.1615  -18.8405 C.3       3 GLC5        0.0000 
     72 CA         20.4760   -4.5570  -17.7000 C.3       9 GLL5        0.0000 
     73 CA         22.1420   -7.7660  -19.9810 C.3       6 GLP5        0.0000 
     74 CA         16.1030   -4.1485  -21.4900 C.3       3 GLC5        0.0000 
     75 CA         14.4170   -3.4320  -20.9390 C.3       9 GLL5        0.0000 
     76 CA         17.7890   -4.8650  -22.0410 C.3       6 GLP5        0.0000 
     77 CA         15.6985   -0.5830  -18.5360 C.3       3 GLC5        0.0000 
     78 CA         14.7390   -2.3770  -18.7830 C.3       9 GLL5        0.0000 
     79 CA         16.6580    1.2110  -18.2890 C.3       6 GLP5        0.0000 
     80 CA         13.8890   -0.7905  -17.9325 C.3       3 GLC5        0.0000 
     81 CA         23.7383   -2.3433  -17.6510 C.3       3 GLC5        0.0000 
     82 CA         22.0310   -1.1300  -17.3290 C.3       9 GLL5        0.0000 
     83 CA         19.3750   -0.4130  -13.3313 C.3       3 GLC5        0.0000 
     84 CA         19.3000    0.0330  -14.9360 C.3       9 GLL5        0.0000 
     85 CA         19.6280   -1.4520  -12.0580 C.3       6 GLP5        0.0000 
     86 CA         17.7385    0.3705  -16.6643 C.3       3 GLC5        0.0000 
     87 CA         18.3847   -0.3025  -12.9960 C.3       3 GLC5        0.0000 
     88 CA         16.7490    0.4913  -16.3377 C.3       3 GLC5        0.0000 
     89 CA         18.6538   -1.1703  -13.4970 C.3       3 GLC5        0.0000 
     90 CA         17.0210   -0.8040  -14.7290 C.3       9 GLL5        0.0000 
     91 CA         13.4165   -4.6925  -18.7763 C.3       3 GLC5        0.0000 
     92 CA         15.2590   -3.5550  -18.2310 C.3       9 GLL5        0.0000 
     93 CA         11.5370   -5.2690  -18.9080 C.3       6 GLP5        0.0000 
     94 CA         16.1505   -5.7902  -20.2572 C.3       3 GLC5        0.0000 
     95 CA         15.3330   -4.6770  -19.0580 C.3       9 GLL5        0.0000 
     96 CA         17.1760   -6.9350  -20.7870 C.3       6 GLP5        0.0000 
     97 CA         13.1020   -4.6460  -19.7880 C.3       3 GLC5        0.0000 
     98 CA         14.9170   -4.6140  -20.3970 C.3       9 GLL5        0.0000 
     99 CA         13.1090   -4.8755  -21.6865 C.3       3 GLC5        0.0000 
    100 CA         11.5510   -5.7280  -22.7050 C.3       6 GLP5        0.0000 
    101 CA         13.0303   -3.8048  -19.1775 C.3       3 GLC5        0.0000 
    102 CA         14.3080   -2.3040  -20.1110 C.3       9 GLL5        0.0000 
    103 CA         16.3489   -1.8947  -20.2590 C.3       3 GLC5        0.0000 
    104 CA         18.1470   -1.1670  -20.8640 C.3       6 GLP5        0.0000 
@<TRIPOS>BOND
@<TRIPOS>SUBSTRUCTURE
     1 ALC1        1 GROUP        1 X    ALC  0     ROOT ALC X 1
     2 SEC2        9 GROUP        1 X    SEC  0     **** SEC X 2
     3 GLC5        4 GROUP        1 X    GLC  0     **** GLC X 6
     4 ALP1        3 GROUP        1 Y    ALP  0     ROOT ALP Y 8
     5 SEP2       11 GROUP        1 Y    SEP  0     **** SEP Y 9
     6 GLP5        6 GROUP        1 Y    GLP  0     **** GLP Y 13
     7 ALL1        2 GROUP        1 Z    ALL  0     ROOT ALL Z 15
     8 SEL2       10 GROUP        1 Z    SEL  0     **** SEL Z 16
     9 GLL5        5 GROUP        1 Z    GLL  0     **** GLL Z 20
@<TRIPOS>SET

