#    Name: 3own_3OW_2_ligand
#    Modification time : Tue Mar 25 05:29:15 2014

@<TRIPOS>MOLECULE
3own_3OW_2_ligand
   97   100     1     0     0
SMALL
NO_CHARGES


@<TRIPOS>ATOM
      1 N1         20.7620   -0.7030  -16.7390 N.am      1 3OW501      0.0000 
      2 C2         22.0310   -1.1300  -17.3290 C.3       1 3OW501      0.0000 
      3 C3         22.6630   -0.1000  -18.2570 C.3       1 3OW501      0.0000 
      4 C4         23.1020    1.1250  -17.4690 C.3       1 3OW501      0.0000 
      5 C5         24.3730    1.8070  -17.9350 C.3       1 3OW501      0.0000 
      6 C6         25.5480    0.9370  -17.5190 C.2       1 3OW501      0.0000 
      7 C7         21.7180   -2.4660  -18.0490 C.3       1 3OW501      0.0000 
      8 O8         21.8130    0.2430  -19.3830 O.3       1 3OW501      0.0000 
      9 C9         24.5470    3.2430  -17.4100 C.3       1 3OW501      0.0000 
     10 C10        23.2690    4.0570  -17.5630 C.3       1 3OW501      0.0000 
     11 C11        25.6890    3.9570  -18.1430 C.3       1 3OW501      0.0000 
     12 O12        25.7180    0.6450  -16.3510 O.2       1 3OW501      0.0000 
     13 O13        20.8980   -3.2690  -17.1970 O.3       1 3OW501      0.0000 
     14 C14        27.5510   -0.3230  -18.3760 C.3       1 3OW501      0.0000 
     15 C15        28.7810    0.5600  -18.5730 C.3       1 3OW501      0.0000 
     16 C16        30.0170   -0.3370  -18.6220 C.3       1 3OW501      0.0000 
     17 C17        28.7190    1.3910  -19.8470 C.3       1 3OW501      0.0000 
     18 N18        26.3650    0.5210  -18.4680 N.am      1 3OW501      0.0000 
     19 C19        19.3000    0.0330  -14.9360 C.ar      1 3OW501      0.0000 
     20 C20        18.9440    1.2190  -14.2730 C.ar      1 3OW501      0.0000 
     21 C21        17.6240    1.3470  -13.8240 C.ar      1 3OW501      0.0000 
     22 C22        16.6590    0.3470  -14.0440 C.ar      1 3OW501      0.0000 
     23 C23        17.0210   -0.8040  -14.7290 C.ar      1 3OW501      0.0000 
     24 C24        18.3380   -0.9730  -15.1430 C.ar      1 3OW501      0.0000 
     25 C25        20.6690   -0.2850  -15.4590 C.2       1 3OW501      0.0000 
     26 C26        16.1260   -1.9750  -14.9850 C.2       1 3OW501      0.0000 
     27 N27        17.2090    2.5360  -13.2120 N.pl3     1 3OW501      0.0000 
     28 C28        17.7650    2.9150  -11.9020 C.3       1 3OW501      0.0000 
     29 S29        16.2830    3.4880  -14.0400 S.o2      1 3OW501      0.0000 
     30 C30        15.3700    2.6390  -15.0600 C.3       1 3OW501      0.0000 
     31 O31        15.3640   -2.4110  -14.1200 O.2       1 3OW501      0.0000 
     32 O32        21.6350   -0.2190  -14.7040 O.2       1 3OW501      0.0000 
     33 O33        17.2610    4.2100  -14.8580 O.2       1 3OW501      0.0000 
     34 O34        15.7680    4.5210  -13.1890 O.2       1 3OW501      0.0000 
     35 N35        16.1790   -2.4030  -16.2280 N.am      1 3OW501      0.0000 
     36 C36        15.6980   -3.6430  -16.7790 C.3       1 3OW501      0.0000 
     37 C37        16.8150   -4.6120  -16.5260 C.ar      1 3OW501      0.0000 
     38 C38        19.2300   -4.9720  -16.9340 C.ar      1 3OW501      0.0000 
     39 C39        19.2120   -6.0340  -16.0290 C.ar      1 3OW501      0.0000 
     40 C40        18.0240   -6.3430  -15.3370 C.ar      1 3OW501      0.0000 
     41 C41        16.8230   -5.6200  -15.5360 C.ar      1 3OW501      0.0000 
     42 C42        18.0380   -4.2630  -17.1260 C.ar      1 3OW501      0.0000 
     43 C43        20.4760   -4.5570  -17.7000 C.3       1 3OW501      0.0000 
     44 C44        15.2590   -3.5550  -18.2310 C.ar      1 3OW501      0.0000 
     45 C45        15.3330   -4.6770  -19.0580 C.ar      1 3OW501      0.0000 
     46 C46        14.9170   -4.6140  -20.3970 C.ar      1 3OW501      0.0000 
     47 C47        14.4170   -3.4320  -20.9390 C.ar      1 3OW501      0.0000 
     48 C48        14.3080   -2.3040  -20.1110 C.ar      1 3OW501      0.0000 
     49 C49        14.7390   -2.3770  -18.7830 C.ar      1 3OW501      0.0000 
     50 H          19.9327   -0.7403  -17.3650 H         1 3OW501      0.0000 
     51 H          22.7335   -1.3734  -16.5288 H         1 3OW501      0.0000 
     52 H          23.6021   -0.5690  -18.6464 H         1 3OW501      0.0000 
     53 H          23.2223    0.8344  -16.3988 H         1 3OW501      0.0000 
     54 H          22.2713    1.8693  -17.4779 H         1 3OW501      0.0000 
     55 H          24.3646    1.8384  -19.0281 H         1 3OW501      0.0000 
     56 H          22.6713   -2.9450  -18.2737 H         1 3OW501      0.0000 
     57 H          21.2202   -2.2204  -18.9874 H         1 3OW501      0.0000 
     58 H          24.8023    3.1963  -16.3569 H         1 3OW501      0.0000 
     59 H          27.6211   -0.7966  -17.4012 H         1 3OW501      0.0000 
     60 H          27.5499   -1.0870  -19.1478 H         1 3OW501      0.0000 
     61 H          28.8818    1.2165  -17.7231 H         1 3OW501      0.0000 
     62 H          26.1617    0.8324  -19.5041 H         1 3OW501      0.0000 
     63 H          19.6197    1.9543  -14.1260 H         1 3OW501      0.0000 
     64 H          15.7067    0.4751  -13.7004 H         1 3OW501      0.0000 
     65 H          18.6219   -1.8494  -15.6111 H         1 3OW501      0.0000 
     66 H          16.6459   -1.7578  -16.9826 H         1 3OW501      0.0000 
     67 H          14.8415   -3.9838  -16.1711 H         1 3OW501      0.0000 
     68 H          20.0546   -6.5897  -15.8643 H         1 3OW501      0.0000 
     69 H          18.0265   -7.1269  -14.6576 H         1 3OW501      0.0000 
     70 H          16.0029   -5.8186  -14.9896 H         1 3OW501      0.0000 
     71 H          18.0558   -3.4207  -17.7546 H         1 3OW501      0.0000 
     72 H          21.2412   -5.3136  -17.5462 H         1 3OW501      0.0000 
     73 H          20.2286   -4.5088  -18.7574 H         1 3OW501      0.0000 
     74 H          15.6979   -5.5661  -18.6832 H         1 3OW501      0.0000 
     75 H          14.9844   -5.4598  -20.9862 H         1 3OW501      0.0000 
     76 H          14.1353   -3.3826  -21.9145 H         1 3OW501      0.0000 
     77 H          13.9153   -1.4349  -20.4792 H         1 3OW501      0.0000 
     78 H          14.6718   -1.5288  -18.1837 H         1 3OW501      0.0000 
     79 H          23.3795    4.9898  -17.2200 H         1 3OW501      0.0000 
     80 H          22.9862    4.1280  -18.5195 H         1 3OW501      0.0000 
     81 H          22.5063    3.6487  -17.0614 H         1 3OW501      0.0000 
     82 H          26.5612    3.4828  -18.0229 H         1 3OW501      0.0000 
     83 H          25.5199    4.0150  -19.1269 H         1 3OW501      0.0000 
     84 H          25.8157    4.8920  -17.8118 H         1 3OW501      0.0000 
     85 H          30.8554    0.1926  -18.7511 H         1 3OW501      0.0000 
     86 H          30.1288   -0.8617  -17.7781 H         1 3OW501      0.0000 
     87 H          29.9681   -0.9960  -19.3725 H         1 3OW501      0.0000 
     88 H          29.5307    1.9649  -19.9559 H         1 3OW501      0.0000 
     89 H          28.6549    0.8161  -20.6627 H         1 3OW501      0.0000 
     90 H          27.9261    2.0002  -19.8548 H         1 3OW501      0.0000 
     91 H          18.7589    3.0199  -11.9367 H         1 3OW501      0.0000 
     92 H          17.3898    3.7829  -11.5763 H         1 3OW501      0.0000 
     93 H          17.5669    2.2289  -11.2019 H         1 3OW501      0.0000 
     94 H          15.9244    2.1143  -15.7060 H         1 3OW501      0.0000 
     95 H          14.7842    1.9866  -14.5791 H         1 3OW501      0.0000 
     96 H          14.7699    3.2288  -15.6003 H         1 3OW501      0.0000 
     97 H          21.4427    1.1453  -19.1622 H         1 3OW501      0.0000 
@<TRIPOS>BOND
     1    2    1 1    
     2   25    1 am   
     3   50    1 1    
     4    3    2 1    
     5    7    2 1    
     6   51    2 1    
     7    4    3 1    
     8    8    3 1    
     9   52    3 1    
    10    5    4 1    
    11   53    4 1    
    12   54    4 1    
    13    6    5 1    
    14    9    5 1    
    15   55    5 1    
    16   12    6 2    
    17   18    6 am   
    18   13    7 1    
    19   56    7 1    
    20   57    7 1    
    21   97    8 1    
    22   10    9 1    
    23   11    9 1    
    24   58    9 1    
    25   79   10 1    
    26   80   10 1    
    27   81   10 1    
    28   82   11 1    
    29   83   11 1    
    30   84   11 1    
    31   43   13 1    
    32   15   14 1    
    33   18   14 1    
    34   59   14 1    
    35   60   14 1    
    36   16   15 1    
    37   17   15 1    
    38   61   15 1    
    39   85   16 1    
    40   86   16 1    
    41   87   16 1    
    42   88   17 1    
    43   89   17 1    
    44   90   17 1    
    45   62   18 1    
    46   20   19 ar   
    47   24   19 ar   
    48   25   19 1    
    49   21   20 ar   
    50   63   20 1    
    51   22   21 ar   
    52   27   21 1    
    53   23   22 ar   
    54   64   22 1    
    55   24   23 ar   
    56   26   23 1    
    57   65   24 1    
    58   32   25 2    
    59   31   26 2    
    60   35   26 am   
    61   28   27 1    
    62   29   27 1    
    63   91   28 1    
    64   92   28 1    
    65   93   28 1    
    66   30   29 1    
    67   33   29 2    
    68   34   29 2    
    69   94   30 1    
    70   95   30 1    
    71   96   30 1    
    72   36   35 1    
    73   66   35 1    
    74   37   36 1    
    75   44   36 1    
    76   67   36 1    
    77   41   37 ar   
    78   42   37 ar   
    79   39   38 ar   
    80   42   38 ar   
    81   43   38 1    
    82   40   39 ar   
    83   68   39 1    
    84   41   40 ar   
    85   69   40 1    
    86   70   41 1    
    87   71   42 1    
    88   72   43 1    
    89   73   43 1    
    90   45   44 ar   
    91   49   44 ar   
    92   46   45 ar   
    93   74   45 1    
    94   47   46 ar   
    95   75   46 1    
    96   48   47 ar   
    97   76   47 1    
    98   49   48 ar   
    99   77   48 1    
   100   78   49 1    
@<TRIPOS>SUBSTRUCTURE
     1 3OW501      1 GROUP   
@<TRIPOS>SET

