#    Name: 1gar_U89_2_INTS_M
#    Modification time : Tue Mar 25 02:54:36 2014

@<TRIPOS>MOLECULE
1gar_U89_2_INTS_M
   97     0    12     0     0
SMALL
NO_CHARGES


@<TRIPOS>ATOM
      1 O          66.3295   -5.2855   24.9690 O.2       1 ALC1        0.0000 
      2 O          66.5320   -5.7030   26.4420 O.2       9 ALL1        0.0000 
      3 O          66.1270   -4.8680   23.4960 O.2       5 ALP1        0.0000 
      4 CA         64.6145   -6.7980   23.7215 C.3       4 GLC5        0.0000 
      5 CA         63.9700   -6.6430   25.4280 C.3      12 GLL5        0.0000 
      6 CA         65.2590   -6.9530   22.0150 C.3       8 GLP5        0.0000 
      7 NZ         62.3295   -9.5885   25.1560 N.4       3 LYC4        0.0000 
      8 NZ         61.9200   -7.6560   24.7860 N.4      11 LYL4        0.0000 
      9 NZ         61.2600  -11.1780   24.3590 N.4       7 LYP4        0.0000 
     10 NZ         63.0735  -10.1760   24.5115 N.4       3 LYC4        0.0000 
     11 NZ         63.6350   -8.9360   25.0390 N.4      11 LYL4        0.0000 
     12 N          62.3295   -9.5885   25.1560 N.am      2 SEC2        0.0000 
     13 N          63.6350   -8.9360   25.0390 N.am     10 SEL2        0.0000 
     14 N          61.0240  -10.2410   25.2730 N.am      6 SEP2        0.0000 
     15 N          63.0735  -10.1760   24.5115 N.am      2 SEC2        0.0000 
     16 N          62.5120  -11.4160   23.9840 N.am      6 SEP2        0.0000 
     17 N          64.6745   -9.0810   24.0305 N.am      2 SEC2        0.0000 
     18 N          65.7140   -9.2260   23.0220 N.am      6 SEP2        0.0000 
     19 CA         76.8790   -1.8480   22.4450 C.3       4 GLC5        0.0000 
     20 CA         76.1150   -1.0090   20.7730 C.3      12 GLL5        0.0000 
     21 CA         77.6430   -2.6870   24.1170 C.3       8 GLP5        0.0000 
     22 O          75.8835   -3.5665   20.6840 O.2       1 ALC1        0.0000 
     23 O          75.4200   -2.1920   21.2490 O.2       9 ALL1        0.0000 
     24 O          76.3470   -4.9410   20.1190 O.2       5 ALP1        0.0000 
     25 CA         71.7195   -2.7555   22.9020 C.3       4 GLC5        0.0000 
     26 CA         73.7830   -3.4440   22.5890 C.3      12 GLL5        0.0000 
     27 CA         69.6560   -2.0670   23.2150 C.3       8 GLP5        0.0000 
     28 CA         75.8655   -4.2290   22.3980 C.3       4 GLC5        0.0000 
     29 CA         77.9480   -5.0140   22.2070 C.3       8 GLP5        0.0000 
     30 N          74.5420   -7.4985   21.9530 N.am      2 SEC2        0.0000 
     31 N          74.0180   -6.6340   23.3380 N.am     10 SEL2        0.0000 
     32 N          75.0660   -8.3630   20.5680 N.am      6 SEP2        0.0000 
     33 N          74.9910   -6.2550   24.1565 N.am      2 SEC2        0.0000 
     34 N          75.9640   -5.8760   24.9750 N.am      6 SEP2        0.0000 
     35 CA         73.5845   -9.4805   19.6190 C.3       4 GLC5        0.0000 
     36 CA         71.9530   -9.5880   20.8970 C.3      12 GLL5        0.0000 
     37 CA         75.2160   -9.3730   18.3410 C.3       8 GLP5        0.0000 
     38 CA         71.9065  -12.6030   20.2430 C.3       4 GLC5        0.0000 
     39 CA         71.1940  -10.8320   21.3430 C.3      12 GLL5        0.0000 
     40 CA         72.6190  -14.3740   19.1430 C.3       8 GLP5        0.0000 
     41 N          73.8435  -12.2930   23.5875 N.am      2 SEC2        0.0000 
     42 N          73.1480  -11.9190   22.0800 N.am     10 SEL2        0.0000 
     43 N          74.5390  -12.6670   25.0950 N.am      6 SEP2        0.0000 
     44 O          67.7400  -14.4420   21.9250 O.2       1 ALC1        0.0000 
     45 O          69.0860  -14.0790   22.4820 O.2       9 ALL1        0.0000 
     46 O          66.3940  -14.8050   21.3680 O.2       5 ALP1        0.0000 
     47 N          67.7135  -12.0145   21.3540 N.am      2 SEC2        0.0000 
     48 N          69.1400  -11.9640   21.5760 N.am     10 SEL2        0.0000 
     49 N          66.2870  -12.0650   21.1320 N.am      6 SEP2        0.0000 
     50 CA         68.0435  -10.7385   22.1265 C.3       4 GLC5        0.0000 
     51 CA         69.8380  -10.8890   21.2120 C.3      12 GLL5        0.0000 
     52 CA         66.2490  -10.5880   23.0410 C.3       8 GLP5        0.0000 
     53 CA         68.8660  -11.0595   19.3565 C.3       4 GLC5        0.0000 
     54 CA         67.8940  -11.2300   17.5010 C.3       8 GLP5        0.0000 
     55 O          67.9810   -9.2170   20.9355 O.2       1 ALC1        0.0000 
     56 O          69.1320   -9.8930   20.6690 O.2       9 ALL1        0.0000 
     57 O          66.8300   -8.5410   21.2020 O.2       5 ALP1        0.0000 
     58 N          71.7225    3.6310   15.8355 N.am      2 SEC2        0.0000 
     59 N          72.2170    2.8690   16.8870 N.am     10 SEL2        0.0000 
     60 N          71.2280    4.3930   14.7840 N.am      6 SEP2        0.0000 
     61 N          75.4505    3.4815   15.5600 N.am      2 SEC2        0.0000 
     62 N          74.3430    2.2050   15.6660 N.am     10 SEL2        0.0000 
     63 N          76.5580    4.7580   15.4540 N.am      6 SEP2        0.0000 
     64 N          75.0935    2.4525   14.5025 N.am      2 SEC2        0.0000 
     65 N          75.8440    2.7000   13.3390 N.am      6 SEP2        0.0000 
     66 N          75.6570    1.5410   15.9390 N.am      2 SEC2        0.0000 
     67 N          76.9710    0.8770   16.2120 N.am      6 SEP2        0.0000 
     68 N          73.7390    5.9040   16.1920 N.am      2 SEC2        0.0000 
     69 N          74.0880    4.4740   16.7240 N.am     10 SEL2        0.0000 
     70 N          73.3900    7.3340   15.6600 N.am      6 SEP2        0.0000 
     71 N          74.0185    4.5820   15.2835 N.am      2 SEC2        0.0000 
     72 N          73.9490    4.6900   13.8430 N.am      6 SEP2        0.0000 
     73 N          75.3230    4.6160   16.0890 N.am      2 SEC2        0.0000 
     74 CA         73.2875   -0.7440   18.8151 C.3       4 GLC5        0.0000 
     75 CA         73.7760    1.1200   18.5860 C.3      12 GLL5        0.0000 
     76 CA         71.7630   -1.7060   18.2700 C.3       8 GLP5        0.0000 
     77 CA         76.4483   -2.2017   18.7620 C.3       4 GLC5        0.0000 
     78 CA         75.5280   -0.4040   19.5050 C.3      12 GLL5        0.0000 
     79 CA         77.0750   -3.6970   17.3850 C.3       8 GLP5        0.0000 
     80 CA         75.7933   -3.1543   23.7928 C.3       4 GLC5        0.0000 
     81 CA         75.2997   -5.2683   24.4817 C.3       4 GLC5        0.0000 
     82 CA         74.1040   -3.7990   24.3480 C.3      12 GLL5        0.0000 
     83 CA         77.1450   -6.1270   24.4660 C.3       8 GLP5        0.0000 
     84 CA         70.9059  -10.1818   19.1675 C.3       4 GLC5        0.0000 
     85 CA         71.1060   -9.8140   17.1690 C.3       8 GLP5        0.0000 
     86 CA         69.4195   -8.5568   24.7007 C.3       4 GLC5        0.0000 
     87 CA         70.8450   -7.1370   24.6110 C.3      12 GLL5        0.0000 
     88 CA         68.4610  -10.4190   24.9920 C.3       8 GLP5        0.0000 
     89 CA         68.3978   -5.0012   23.2005 C.3       4 GLC5        0.0000 
     90 CA         69.9110   -6.2520   24.2080 C.3      12 GLL5        0.0000 
     91 CA         67.4440   -3.8380   21.8220 C.3       8 GLP5        0.0000 
     92 CA         68.5740   -8.4220   25.2578 C.3       4 GLC5        0.0000 
     93 CA         68.7920   -6.0770   24.9500 C.3      12 GLL5        0.0000 
     94 CA         69.2770   -9.0840   25.5460 C.3       4 GLC5        0.0000 
     95 CA         69.5340   -7.6580   26.4670 C.3      12 GLL5        0.0000 
     96 CA         70.7040   -9.5985   26.3680 C.3       4 GLC5        0.0000 
     97 CA         71.3150  -11.4480   26.6360 C.3       8 GLP5        0.0000 
@<TRIPOS>BOND
@<TRIPOS>SUBSTRUCTURE
     1 ALC1        1 GROUP        1 X    ALC  0     ROOT ALC X 1
     2 SEC2       12 GROUP        1 X    SEC  0     **** SEC X 2
     3 LYC4        7 GROUP        1 X    LYC  0     **** LYC X 4
     4 GLC5        4 GROUP        1 X    GLC  0     **** GLC X 6
     5 ALP1        3 GROUP        1 Y    ALP  0     ROOT ALP Y 8
     6 SEP2       14 GROUP        1 Y    SEP  0     **** SEP Y 9
     7 LYP4        9 GROUP        1 Y    LYP  0     **** LYP Y 11
     8 GLP5        6 GROUP        1 Y    GLP  0     **** GLP Y 13
     9 ALL1        2 GROUP        1 Z    ALL  0     ROOT ALL Z 15
    10 SEL2       13 GROUP        1 Z    SEL  0     **** SEL Z 16
    11 LYL4        8 GROUP        1 Z    LYL  0     **** LYL Z 18
    12 GLL5        5 GROUP        1 Z    GLL  0     **** GLL Z 20
@<TRIPOS>SET

