#    Name: 1gar_U89_2_ligand
#    Modification time : Tue Mar 25 02:54:36 2014

@<TRIPOS>MOLECULE
1gar_U89_2_ligand
   82    83     1     0     0
SMALL
NO_CHARGES


@<TRIPOS>ATOM
      1 N          66.5320   -5.7030   26.4420 N.am      1 U89213      0.0000 
      2 CA         65.2470   -5.3190   27.0400 C.3       1 U89213      0.0000 
      3 CB         64.3570   -6.5530   26.8880 C.3       1 U89213      0.0000 
      4 CG         63.9700   -6.6430   25.4280 C.3       1 U89213      0.0000 
      5 CD         63.1080   -7.8320   25.0750 C.2       1 U89213      0.0000 
      6 OE1        61.9200   -7.6560   24.7860 O.co2     1 U89213      0.0000 
      7 OE2        63.6350   -8.9360   25.0390 O.co2     1 U89213      0.0000 
      8 C          65.0930   -4.6890   28.4470 C.2       1 U89213      0.0000 
      9 OT1        64.5380   -5.2850   29.4020 O.co2     1 U89213      0.0000 
     10 OT2        65.4830   -3.5140   28.5410 O.co2     1 U89213      0.0000 
     11 C1         73.7760    1.1200   18.5860 C.3       1 U89213      0.0000 
     12 C2         74.4160    0.5600   19.8450 C.3       1 U89213      0.0000 
     13 C3         75.5280   -0.4040   19.5050 C.3       1 U89213      0.0000 
     14 C4         76.1150   -1.0090   20.7730 C.3       1 U89213      0.0000 
     15 N5         75.4200   -2.1920   21.2490 N.am      1 U89213      0.0000 
     16 C6         74.3910   -2.1320   22.0920 C.2       1 U89213      0.0000 
     17 O6         73.9410   -1.0430   22.4520 O.2       1 U89213      0.0000 
     18 C7         73.7830   -3.4440   22.5890 C.3       1 U89213      0.0000 
     19 S          74.1040   -3.7990   24.3480 S.3       1 U89213      0.0000 
     20 C8         72.8050   -5.0200   24.6470 C.3       1 U89213      0.0000 
     21 C9         72.9460   -6.3630   23.9000 C.2       1 U89213      0.0000 
     22 O9         74.0180   -6.6340   23.3380 O.2       1 U89213      0.0000 
     23 N10        71.9990   -7.3070   23.9430 N.am      1 U89213      0.0000 
     24 C11        72.1960   -8.5490   23.2100 C.3       1 U89213      0.0000 
     25 C12        71.7580   -8.3240   21.7520 C.3       1 U89213      0.0000 
     26 C13        71.9530   -9.5880   20.8970 C.3       1 U89213      0.0000 
     27 C14        71.1940  -10.8320   21.3430 C.2       1 U89213      0.0000 
     28 C15        71.9200  -11.8890   21.9020 C.2       1 U89213      0.0000 
     29 O15        73.1480  -11.9190   22.0800 O.2       1 U89213      0.0000 
     30 N16        71.1310  -12.9750   22.2640 N.am      1 U89213      0.0000 
     31 C17        69.7690  -13.0020   22.1080 C.2       1 U89213      0.0000 
     32 N18        69.0860  -14.0790   22.4820 N.pl3     1 U89213      0.0000 
     33 N19        69.1400  -11.9640   21.5760 N.2       1 U89213      0.0000 
     34 C20        69.8380  -10.8890   21.2120 C.2       1 U89213      0.0000 
     35 N21        69.1320   -9.8930   20.6690 N.pl3     1 U89213      0.0000 
     36 C22        70.8450   -7.1370   24.6110 C.ar      1 U89213      0.0000 
     37 C23        69.9110   -6.2520   24.2080 C.ar      1 U89213      0.0000 
     38 C24        68.7920   -6.0770   24.9500 C.ar      1 U89213      0.0000 
     39 C25        68.5820   -6.7730   26.0970 C.ar      1 U89213      0.0000 
     40 C26        69.5340   -7.6580   26.4670 C.ar      1 U89213      0.0000 
     41 C27        70.6520   -7.8400   25.7330 C.ar      1 U89213      0.0000 
     42 C28        67.4220   -6.6130   26.9130 C.2       1 U89213      0.0000 
     43 O28        67.2580   -7.2580   27.9610 O.2       1 U89213      0.0000 
     44 OP4        74.3010    2.3890   18.1630 O.3       1 U89213      0.0000 
     45 P          73.8070    3.0210   16.7780 P.3       1 U89213      0.0000 
     46 OP1        72.2170    2.8690   16.8870 O.co2     1 U89213      0.0000 
     47 OP2        74.3430    2.2050   15.6660 O.co2     1 U89213      0.0000 
     48 OP3        74.0880    4.4740   16.7240 O.co2     1 U89213      0.0000 
     49 H          66.7560   -5.1811   25.5284 H         1 U89213      0.0000 
     50 H          64.7520   -4.5776   26.3060 H         1 U89213      0.0000 
     51 H          63.4778   -6.4344   27.4943 H         1 U89213      0.0000 
     52 H          64.9100   -7.4282   27.1759 H         1 U89213      0.0000 
     53 H          64.8928   -6.6710   24.8131 H         1 U89213      0.0000 
     54 H          63.4381   -5.7133   25.1397 H         1 U89213      0.0000 
     55 H          72.6767    1.1866   18.7681 H         1 U89213      0.0000 
     56 H          73.8909    0.3552   17.7810 H         1 U89213      0.0000 
     57 H          73.6548    0.0454   20.4359 H         1 U89213      0.0000 
     58 H          74.8163    1.3836   20.4407 H         1 U89213      0.0000 
     59 H          76.3141    0.1205   18.9622 H         1 U89213      0.0000 
     60 H          75.1395   -1.2034   18.8743 H         1 U89213      0.0000 
     61 H          76.1202   -0.2177   21.5559 H         1 U89213      0.0000 
     62 H          77.1862   -1.2385   20.5753 H         1 U89213      0.0000 
     63 H          75.7812   -3.1064   20.8849 H         1 U89213      0.0000 
     64 H          74.1909   -4.3177   22.1046 H         1 U89213      0.0000 
     65 H          72.7048   -3.4608   22.5487 H         1 U89213      0.0000 
     66 H          71.9041   -4.4782   24.3702 H         1 U89213      0.0000 
     67 H          72.8344   -5.1355   25.7276 H         1 U89213      0.0000 
     68 H          71.5940   -9.3528   23.6222 H         1 U89213      0.0000 
     69 H          73.2401   -8.8460   23.2059 H         1 U89213      0.0000 
     70 H          72.3451   -7.5105   21.3251 H         1 U89213      0.0000 
     71 H          70.7051   -8.0414   21.7358 H         1 U89213      0.0000 
     72 H          73.0402   -9.8227   20.8631 H         1 U89213      0.0000 
     73 H          71.6668   -9.3484   19.8488 H         1 U89213      0.0000 
     74 H          71.6120  -13.8172   22.6791 H         1 U89213      0.0000 
     75 H          69.6179  -14.8120   22.9060 H         1 U89213      0.0000 
     76 H          68.1019  -14.0591   22.3057 H         1 U89213      0.0000 
     77 H          68.2139   -9.7516   21.0393 H         1 U89213      0.0000 
     78 H          69.5851   -9.3785   19.9410 H         1 U89213      0.0000 
     79 H          70.0466   -5.7068   23.3345 H         1 U89213      0.0000 
     80 H          68.0670   -5.3858   24.6319 H         1 U89213      0.0000 
     81 H          69.3999   -8.2177   27.3476 H         1 U89213      0.0000 
     82 H          71.3677   -8.5350   26.0472 H         1 U89213      0.0000 
@<TRIPOS>BOND
     1    2    1 1    
     2   42    1 am   
     3   49    1 1    
     4    3    2 1    
     5    8    2 1    
     6   50    2 1    
     7    4    3 1    
     8   51    3 1    
     9   52    3 1    
    10    5    4 1    
    11   53    4 1    
    12   54    4 1    
    13    6    5 ar   
    14    7    5 ar   
    15    9    8 ar   
    16   10    8 ar   
    17   12   11 1    
    18   44   11 1    
    19   55   11 1    
    20   56   11 1    
    21   13   12 1    
    22   57   12 1    
    23   58   12 1    
    24   14   13 1    
    25   59   13 1    
    26   60   13 1    
    27   15   14 1    
    28   61   14 1    
    29   62   14 1    
    30   16   15 am   
    31   63   15 1    
    32   17   16 2    
    33   18   16 1    
    34   19   18 1    
    35   64   18 1    
    36   65   18 1    
    37   20   19 1    
    38   21   20 1    
    39   66   20 1    
    40   67   20 1    
    41   22   21 2    
    42   23   21 am   
    43   24   23 1    
    44   36   23 1    
    45   25   24 1    
    46   68   24 1    
    47   69   24 1    
    48   26   25 1    
    49   70   25 1    
    50   71   25 1    
    51   27   26 1    
    52   72   26 1    
    53   73   26 1    
    54   28   27 1    
    55   34   27 2    
    56   29   28 2    
    57   30   28 am   
    58   31   30 1    
    59   74   30 1    
    60   32   31 1    
    61   33   31 2    
    62   75   32 1    
    63   76   32 1    
    64   34   33 1    
    65   35   34 1    
    66   77   35 1    
    67   78   35 1    
    68   37   36 ar   
    69   41   36 ar   
    70   38   37 ar   
    71   79   37 1    
    72   39   38 ar   
    73   80   38 1    
    74   40   39 ar   
    75   42   39 1    
    76   41   40 ar   
    77   81   40 1    
    78   82   41 1    
    79   43   42 2    
    80   45   44 1    
    81   46   45 ar   
    82   47   45 ar   
    83   48   45 ar   
@<TRIPOS>SUBSTRUCTURE
     1 U89213      1 GROUP   
@<TRIPOS>SET

