#    Name: 3OMF_1_CAVITY_N1_ALL.mol2
#    Modification time : Tue Mar 11 20:36:04 2014

@<TRIPOS>MOLECULE
3OMF_1_CAVITY_N1_ALL.mol2
   72     0     6     0     0
SMALL
NO_CHARGES


@<TRIPOS>ATOM
      1 CA          1.6003   11.6374  -16.5666 C.3       5 GLY6        0.0000 
      2 CA          0.6446   11.3546  -15.4456 C.3       5 GLY6        0.0000 
      3 CA          1.6845   10.1698  -16.8651 C.3       5 GLY6        0.0000 
      4 DU          0.7288    9.8870  -15.7440 H         6 CUB7        0.0000 
      5 CA         -0.2268    9.6041  -14.6230 C.3       5 GLY6        0.0000 
      6 CA         -1.1825    9.3213  -13.5020 C.3       5 GLY6        0.0000 
      7 CA         -2.1382    9.0385  -12.3810 C.3       5 GLY6        0.0000 
      8 DU          0.8131    8.4194  -16.0425 H         6 CUB7        0.0000 
      9 DU         -1.0983    7.8537  -13.8005 H         6 CUB7        0.0000 
     10 CA         -3.0096    7.2881  -11.5584 C.3       5 GLY6        0.0000 
     11 CA          1.4609   17.0977  -13.3007 C.3       5 GLY6        0.0000 
     12 N           2.5007   15.9129  -14.7202 N.2       2 ALA2        0.0000 
     13 N           2.5850   14.4453  -15.0187 N.2       2 ALA2        0.0000 
     14 CA          3.6248   13.2606  -16.4382 C.3       5 GLY6        0.0000 
     15 CA          2.6692   12.9777  -15.3172 C.3       5 GLY6        0.0000 
     16 CA          1.7135   12.6949  -14.1962 C.3       5 GLY6        0.0000 
     17 CA          3.7091   11.7930  -16.7367 C.3       5 GLY6        0.0000 
     18 CA          2.7534   11.5102  -15.6157 C.3       5 GLY6        0.0000 
     19 CA          1.7977   11.2273  -14.4947 C.3       5 GLY6        0.0000 
     20 CA          0.8420   10.9445  -13.3736 C.3       5 GLY6        0.0000 
     21 CA         -0.1136   10.6617  -12.2526 C.3       5 GLY6        0.0000 
     22 CA          2.8376   10.0426  -15.9141 C.3       5 GLY6        0.0000 
     23 CZ          1.8819    9.7597  -14.7931 C.ar      4 PHE5        0.0000 
     24 DU          0.9263    9.4769  -13.6721 H         6 CUB7        0.0000 
     25 NZ         -0.0294    9.1941  -12.5511 N.2       3 LYS4        0.0000 
     26 NZ         -0.9851    8.9112  -11.4301 N.2       3 LYS4        0.0000 
     27 CA          2.9218    8.5750  -16.2126 C.3       5 GLY6        0.0000 
     28 CZ          1.9661    8.2921  -15.0916 C.ar      4 PHE5        0.0000 
     29 DU          1.0105    8.0093  -13.9706 H         6 CUB7        0.0000 
     30 DU          0.0548    7.7265  -12.8496 H         6 CUB7        0.0000 
     31 NZ         -0.9009    7.4437  -11.7285 N.2       3 LYS4        0.0000 
     32 NZ         -1.8566    7.1608  -10.6075 N.2       3 LYS4        0.0000 
     33 CA          2.0504    6.8246  -15.3901 C.3       5 GLY6        0.0000 
     34 OG          1.0947    6.5417  -14.2691 O.2       1 SER1        0.0000 
     35 OG          0.1390    6.2589  -13.1480 O.2       1 SER1        0.0000 
     36 DU         -0.8167    5.9761  -12.0270 H         6 CUB7        0.0000 
     37 DU         -1.7723    5.6932  -10.9060 H         6 CUB7        0.0000 
     38 OG         -0.7325    4.5085  -12.3255 O.2       1 SER1        0.0000 
     39 CA          2.6139   16.9705  -12.3498 C.3       5 GLY6        0.0000 
     40 CA          2.6982   15.5029  -12.6483 C.3       5 GLY6        0.0000 
     41 CA          2.7824   14.0353  -12.9468 C.3       5 GLY6        0.0000 
     42 CZ          2.8666   12.5677  -13.2453 C.ar      4 PHE5        0.0000 
     43 CA          1.9109   12.2849  -12.1242 C.3       5 GLY6        0.0000 
     44 CZ          2.9508   11.1001  -13.5437 C.ar      4 PHE5        0.0000 
     45 CA          1.9951   10.8173  -12.4227 C.3       5 GLY6        0.0000 
     46 O           1.0394   10.5344  -11.3017 O.2       2 ALA2        0.0000 
     47 CZ          3.0350    9.6325  -13.8422 C.ar      4 PHE5        0.0000 
     48 CZ          2.0793    9.3497  -12.7212 C.ar      4 PHE5        0.0000 
     49 NZ          1.1237    9.0669  -11.6002 N.2       3 LYS4        0.0000 
     50 CZ          2.1635    7.8821  -13.0197 C.ar      4 PHE5        0.0000 
     51 CA          1.2079    7.5993  -11.8987 C.3       5 GLY6        0.0000 
     52 NZ          0.2522    7.3164  -10.7776 N.2       3 LYS4        0.0000 
     53 CZ          2.2478    6.4145  -13.3182 C.ar      4 PHE5        0.0000 
     54 OG          1.2921    6.1317  -12.1971 O.2       1 SER1        0.0000 
     55 DU          0.3364    5.8488  -11.0761 H         6 CUB7        0.0000 
     56 NZ         -0.6193    5.5660   -9.9551 N.2       3 LYS4        0.0000 
     57 OG          0.4206    4.3813  -11.3746 O.2       1 SER1        0.0000 
     58 DU         -0.5351    4.0984  -10.2536 H         6 CUB7        0.0000 
     59 OG          0.5048    2.9137  -11.6731 O.2       1 SER1        0.0000 
     60 N          -0.4508    2.6308  -10.5520 N.2       2 ALA2        0.0000 
     61 N          -1.3223    0.8804   -9.7295 N.2       2 ALA2        0.0000 
     62 CA          3.1482   10.6900  -11.4718 C.3       5 GLY6        0.0000 
     63 CA          2.3609    7.4720  -10.9477 C.3       5 GLY6        0.0000 
     64 N           2.4452    6.0044  -11.2462 N.2       2 ALA2        0.0000 
     65 NZ          1.4895    5.7216  -10.1252 N.2       3 LYS4        0.0000 
     66 N           2.5294    4.5369  -11.5447 N.2       2 ALA2        0.0000 
     67 N           1.5737    4.2540  -10.4237 N.2       2 ALA2        0.0000 
     68 N           0.6180    3.9712   -9.3027 N.2       2 ALA2        0.0000 
     69 N          -0.3376    3.6884   -8.1816 N.2       2 ALA2        0.0000 
     70 N           1.6579    2.7864  -10.7222 N.2       2 ALA2        0.0000 
     71 O           0.7022    2.5036   -9.6011 O.2       2 ALA2        0.0000 
     72 O          -0.2534    2.2208   -8.4801 O.2       2 ALA2        0.0000 
@<TRIPOS>BOND
@<TRIPOS>SUBSTRUCTURE
     1 SER1       34 GROUP   
     2 ALA2       12 GROUP   
     3 LYS4       25 GROUP   
     4 PHE5       23 GROUP   
     5 GLY6        1 GROUP   
     6 CUB7        4 GROUP   
@<TRIPOS>SET

