#    Name: 3omf_AMP_1_INTS_M
#    Modification time : Tue Mar 25 04:51:12 2014

@<TRIPOS>MOLECULE
3omf_AMP_1_INTS_M
   47     0     9     0     0
SMALL
NO_CHARGES


@<TRIPOS>ATOM
      1 N           2.2160    1.1745  -12.6430 N.am      2 SEC2        0.0000 
      2 N           2.4580    2.0540  -11.5630 N.am      8 SEL2        0.0000 
      3 N           1.9740    0.2950  -13.7230 N.am      5 SEP2        0.0000 
      4 N           1.9760    2.5920  -12.7815 N.am      2 SEC2        0.0000 
      5 N           1.4940    3.1300  -14.0000 N.am      5 SEP2        0.0000 
      6 N           3.5890    2.7015  -11.0670 N.am      2 SEC2        0.0000 
      7 N           4.7200    3.3490  -10.5710 N.am      5 SEP2        0.0000 
      8 N           1.8560    1.0750   -8.0965 N.am      2 SEC2        0.0000 
      9 N           2.4490    1.9740   -9.0110 N.am      8 SEL2        0.0000 
     10 N           1.2630    0.1760   -7.1820 N.am      5 SEP2        0.0000 
     11 N           3.5845    2.6615   -9.7910 N.am      2 SEC2        0.0000 
     12 N           2.5165    2.9170   -7.9495 N.am      2 SEC2        0.0000 
     13 N           2.5840    3.8600   -6.8880 N.am      5 SEP2        0.0000 
     14 N           3.7840    1.7765   -8.4240 N.am      2 SEC2        0.0000 
     15 N           5.1190    1.5790   -7.8370 N.am      5 SEP2        0.0000 
     16 N           3.1835    3.6345  -10.3150 N.am      2 SEC2        0.0000 
     17 N           1.6470    3.9200  -10.0590 N.am      8 SEL2        0.0000 
     18 CA          2.6865    7.5720  -10.1195 C.3       3 GLC5        0.0000 
     19 CA          1.2870    6.1510  -10.5300 C.3       9 GLL5        0.0000 
     20 CA          4.0860    8.9930   -9.7090 C.3       6 GLP5        0.0000 
     21 O           0.0200    7.6950   -8.6340 O.2       1 ALC1        0.0000 
     22 O          -0.5560    6.6860   -9.0440 O.2       7 ALL1        0.0000 
     23 O           0.5960    8.7040   -8.2240 O.2       4 ALP1        0.0000 
     24 O          -1.3625    9.0825   -9.9545 O.2       1 ALC1        0.0000 
     25 O          -1.6340    8.2590  -10.9670 O.2       7 ALL1        0.0000 
     26 O          -1.0910    9.9060   -8.9420 O.2       4 ALP1        0.0000 
     27 CA          2.4310    8.5860  -10.5715 C.3       3 GLC5        0.0000 
     28 CA          0.7760    8.1790  -11.4340 C.3       9 GLL5        0.0000 
     29 CA          3.9735   12.0710  -14.9890 C.3       3 GLC5        0.0000 
     30 CA          2.0260   11.8130  -14.5380 C.3       9 GLL5        0.0000 
     31 CA          5.9210   12.3290  -15.4400 C.3       6 GLP5        0.0000 
     32 CA          0.2545   12.4410  -14.5770 C.3       3 GLC5        0.0000 
     33 CA         -1.5170   13.0690  -14.6160 C.3       6 GLP5        0.0000 
     34 CA          1.5540   12.2160  -10.2590 C.3       3 GLC5        0.0000 
     35 CA          2.2310   12.3530  -12.2250 C.3       9 GLL5        0.0000 
     36 CA          0.8770   12.0790   -8.2930 C.3       6 GLP5        0.0000 
     37 CA          1.0915   13.4335  -12.2990 C.3       3 GLC5        0.0000 
     38 CA         -0.0480   14.5140  -12.3730 C.3       6 GLP5        0.0000 
     39 N           0.6025   11.9540  -10.9600 N.am      2 SEC2        0.0000 
     40 N           1.7980   11.1560  -11.8030 N.am      8 SEL2        0.0000 
     41 N          -0.5930   12.7520  -10.1170 N.am      5 SEP2        0.0000 
     42 CA          2.7785    9.5945  -11.2110 C.3       3 GLC5        0.0000 
     43 CA          1.4710   10.1960  -12.7130 C.3       9 GLL5        0.0000 
     44 CA          3.3422    4.8578  -10.2280 C.3       3 GLC5        0.0000 
     45 CA          5.1990    4.2210   -9.6220 C.3       6 GLP5        0.0000 
     46 CA         -0.0400   11.5095  -13.2812 C.3       3 GLC5        0.0000 
     47 CA         -1.6040   12.6780  -13.1280 C.3       6 GLP5        0.0000 
@<TRIPOS>BOND
@<TRIPOS>SUBSTRUCTURE
     1 ALC1       21 GROUP        1 X    ALC  0     ROOT ALC X 1
     2 SEC2        1 GROUP        1 X    SEC  0     **** SEC X 2
     3 GLC5       18 GROUP        1 X    GLC  0     **** GLC X 6
     4 ALP1       23 GROUP        1 Y    ALP  0     ROOT ALP Y 8
     5 SEP2        3 GROUP        1 Y    SEP  0     **** SEP Y 9
     6 GLP5       20 GROUP        1 Y    GLP  0     **** GLP Y 13
     7 ALL1       22 GROUP        1 Z    ALL  0     ROOT ALL Z 15
     8 SEL2        2 GROUP        1 Z    SEL  0     **** SEL Z 16
     9 GLL5       19 GROUP        1 Z    GLL  0     **** GLL Z 20
@<TRIPOS>SET

