#    Name: 3omf_AMP_1_ligand
#    Modification time : Tue Mar 25 04:51:12 2014

@<TRIPOS>MOLECULE
3omf_AMP_1_ligand
   35    37     1     0     0
SMALL
NO_CHARGES


@<TRIPOS>ATOM
      1 P           1.7040    2.3450  -10.2850 P.3       1 AMP115      0.0000 
      2 O1P         2.4580    2.0540  -11.5630 O.co2     1 AMP115      0.0000 
      3 O2P         0.2850    1.8540  -10.2720 O.co2     1 AMP115      0.0000 
      4 O3P         2.4490    1.9740   -9.0110 O.co2     1 AMP115      0.0000 
      5 O5'         1.6470    3.9200  -10.0590 O.3       1 AMP115      0.0000 
      6 C5'         1.6840    4.8380  -11.1380 C.3       1 AMP115      0.0000 
      7 C4'         1.2870    6.1510  -10.5300 C.3       1 AMP115      0.0000 
      8 O4'         1.7790    7.1730  -11.3760 O.3       1 AMP115      0.0000 
      9 C3'        -0.2240    6.3180  -10.3880 C.3       1 AMP115      0.0000 
     10 O3'        -0.5560    6.6860   -9.0440 O.3       1 AMP115      0.0000 
     11 C2'        -0.5490    7.4210  -11.3850 C.3       1 AMP115      0.0000 
     12 O2'        -1.6340    8.2590  -10.9670 O.3       1 AMP115      0.0000 
     13 C1'         0.7760    8.1790  -11.4340 C.3       1 AMP115      0.0000 
     14 N9          1.0240    8.9510  -12.6630 N.pl3     1 AMP115      0.0000 
     15 C8          0.8700    8.4610  -13.9090 C.2       1 AMP115      0.0000 
     16 N7          1.1980    9.3930  -14.8300 N.2       1 AMP115      0.0000 
     17 C5          1.5770   10.4860  -14.1560 C.ar      1 AMP115      0.0000 
     18 C6          2.0260   11.8130  -14.5380 C.ar      1 AMP115      0.0000 
     19 N6          2.1410   12.1300  -15.8510 N.pl3     1 AMP115      0.0000 
     20 N1          2.3390   12.6720  -13.5290 N.ar      1 AMP115      0.0000 
     21 C2          2.2310   12.3530  -12.2250 C.ar      1 AMP115      0.0000 
     22 N3          1.7980   11.1560  -11.8030 N.ar      1 AMP115      0.0000 
     23 C4          1.4710   10.1960  -12.7130 C.ar      1 AMP115      0.0000 
     24 H           0.9743    4.5857  -11.9116 H         1 AMP115      0.0000 
     25 H           2.6747    4.9352  -11.5560 H         1 AMP115      0.0000 
     26 H           1.7326    6.2300   -9.5471 H         1 AMP115      0.0000 
     27 H          -0.6844    5.4206  -10.7124 H         1 AMP115      0.0000 
     28 H          -0.6922    6.9674  -12.3390 H         1 AMP115      0.0000 
     29 H           0.8446    8.8067  -10.5666 H         1 AMP115      0.0000 
     30 H           0.5629    7.5548  -14.1193 H         1 AMP115      0.0000 
     31 H           1.8645   11.4217  -16.5005 H         1 AMP115      0.0000 
     32 H           2.4922   13.0441  -16.0539 H         1 AMP115      0.0000 
     33 H           2.5012   13.0831  -11.5010 H         1 AMP115      0.0000 
     34 H           0.2474    7.1744   -8.7035 H         1 AMP115      0.0000 
     35 H          -1.2673    8.7979  -10.2086 H         1 AMP115      0.0000 
@<TRIPOS>BOND
     1    2    1 ar   
     2    3    1 ar   
     3    4    1 ar   
     4    5    1 1    
     5    6    5 1    
     6    7    6 1    
     7   24    6 1    
     8   25    6 1    
     9    8    7 1    
    10    9    7 1    
    11   26    7 1    
    12   13    8 1    
    13   10    9 1    
    14   11    9 1    
    15   27    9 1    
    16   34   10 1    
    17   12   11 1    
    18   13   11 1    
    19   28   11 1    
    20   35   12 1    
    21   14   13 1    
    22   29   13 1    
    23   15   14 1    
    24   23   14 1    
    25   16   15 2    
    26   30   15 1    
    27   17   16 1    
    28   18   17 ar   
    29   23   17 ar   
    30   19   18 1    
    31   20   18 ar   
    32   31   19 1    
    33   32   19 1    
    34   21   20 ar   
    35   22   21 ar   
    36   33   21 1    
    37   23   22 ar   
@<TRIPOS>SUBSTRUCTURE
     1 AMP115      1 GROUP   
@<TRIPOS>SET

