#    Name: 5rhn_8BR_1_INTS_M
#    Modification time : Tue Mar 25 13:49:26 2014

@<TRIPOS>MOLECULE
5rhn_8BR_1_INTS_M
   52     0     9     0     0
SMALL
NO_CHARGES


@<TRIPOS>ATOM
      1 N          13.3845    5.5435   59.7975 N.am      2 SEC2        0.0000 
      2 N          12.8170    6.8170   60.0420 N.am      8 SEL2        0.0000 
      3 N          13.9520    4.2700   59.5530 N.am      5 SEP2        0.0000 
      4 N          12.2070    5.7040   59.0085 N.am      2 SEC2        0.0000 
      5 N          11.5970    4.5910   57.9750 N.am      5 SEP2        0.0000 
      6 N          13.7620    6.4010   58.8540 N.am      2 SEC2        0.0000 
      7 N          14.7070    5.9850   57.6660 N.am      5 SEP2        0.0000 
      8 N          11.4000    6.9955   63.5400 N.am      2 SEC2        0.0000 
      9 N          11.8610    7.4120   62.3160 N.am      8 SEL2        0.0000 
     10 N          10.9390    6.5790   64.7640 N.am      5 SEP2        0.0000 
     11 N          10.9360    8.5280   62.7515 N.am      2 SEC2        0.0000 
     12 N          10.0110    9.6440   63.1870 N.am      5 SEP2        0.0000 
     13 N          10.3975    8.8875   61.7375 N.am      2 SEC2        0.0000 
     14 N          10.7840    8.1310   60.2880 N.am      8 SEL2        0.0000 
     15 CA         11.8235    7.9030   57.3545 C.3       3 GLC5        0.0000 
     16 CA         10.4370    8.0960   58.8660 C.3       9 GLL5        0.0000 
     17 CA         13.2100    7.7100   55.8430 C.3       6 GLP5        0.0000 
     18 CA          9.4215   11.2195   58.6220 C.3       3 GLC5        0.0000 
     19 CA          9.2530    9.0050   58.6680 C.3       9 GLL5        0.0000 
     20 CA          9.5900   13.4340   58.5760 C.3       6 GLP5        0.0000 
     21 O           6.7340   10.1585   59.5825 O.2       1 ALC1        0.0000 
     22 O           6.9680    8.8150   59.6170 O.2       7 ALL1        0.0000 
     23 O           6.5000   11.5020   59.5480 O.2       4 ALP1        0.0000 
     24 O           5.3535    9.6875   57.7945 O.2       1 ALC1        0.0000 
     25 O           5.9360    8.7090   57.0840 O.2       7 ALL1        0.0000 
     26 O           4.7710   10.6660   58.5050 O.2       4 ALP1        0.0000 
     27 CA          8.8385   11.6680   57.7365 C.3       3 GLC5        0.0000 
     28 CA          8.0870    9.9020   56.8970 C.3       9 GLL5        0.0000 
     29 CA         10.9650    7.9570   53.2700 C.3       3 GLC5        0.0000 
     30 CA          9.7340    7.8660   54.6990 C.3       9 GLL5        0.0000 
     31 CA         12.1960    8.0480   51.8410 C.3       6 GLP5        0.0000 
     32 CA         11.4720    7.7880   55.2710 C.3       3 GLC5        0.0000 
     33 CA         10.1880   11.2135   52.2970 C.3       3 GLC5        0.0000 
     34 CA          8.3510   11.3520   53.5680 C.3       9 GLL5        0.0000 
     35 CA         12.0250   11.0750   51.0260 C.3       6 GLP5        0.0000 
     36 CA          9.4730   13.9185   52.5525 C.3       3 GLC5        0.0000 
     37 CA          8.0430   12.4240   52.7510 C.3       9 GLL5        0.0000 
     38 CA         10.9030   15.4130   52.3540 C.3       6 GLP5        0.0000 
     39 CA          6.0910   11.8795   53.2495 C.3       3 GLC5        0.0000 
     40 CA          4.1390   11.3350   53.7480 C.3       6 GLP5        0.0000 
     41 CA          5.8345   13.6030   56.2755 C.3       3 GLC5        0.0000 
     42 CA          6.9470   13.4440   54.6000 C.3       9 GLL5        0.0000 
     43 CA          4.7220   13.7620   57.9510 C.3       6 GLP5        0.0000 
     44 CA          5.5430   12.3895   54.1740 C.3       3 GLC5        0.0000 
     45 N           5.7665   12.4745   55.7440 N.am      2 SEC2        0.0000 
     46 N           7.3770   12.5780   55.4640 N.am      8 SEL2        0.0000 
     47 N           4.1560   12.3710   56.0240 N.am      5 SEP2        0.0000 
     48 CA          8.7560   12.4445   56.7580 C.3       3 GLC5        0.0000 
     49 CA          7.9220   11.4550   54.9400 C.3       9 GLL5        0.0000 
     50 CA          6.2302    9.6172   55.5408 C.3       3 GLC5        0.0000 
     51 CA          4.7550    9.9800   54.0380 C.3       6 GLP5        0.0000 
     52 CA          6.4458   10.6918   54.1460 C.3       3 GLC5        0.0000 
@<TRIPOS>BOND
@<TRIPOS>SUBSTRUCTURE
     1 ALC1       21 GROUP        1 X    ALC  0     ROOT ALC X 1
     2 SEC2        1 GROUP        1 X    SEC  0     **** SEC X 2
     3 GLC5       15 GROUP        1 X    GLC  0     **** GLC X 6
     4 ALP1       23 GROUP        1 Y    ALP  0     ROOT ALP Y 8
     5 SEP2        3 GROUP        1 Y    SEP  0     **** SEP Y 9
     6 GLP5       17 GROUP        1 Y    GLP  0     **** GLP Y 13
     7 ALL1       22 GROUP        1 Z    ALL  0     ROOT ALL Z 15
     8 SEL2        2 GROUP        1 Z    SEL  0     **** SEL Z 16
     9 GLL5       16 GROUP        1 Z    GLL  0     **** GLL Z 20
@<TRIPOS>SET

