#    Name: 5rhn_8BR_1_ligand
#    Modification time : Tue Mar 25 13:49:26 2014

@<TRIPOS>MOLECULE
5rhn_8BR_1_ligand
   35    37     1     0     0
SMALL
NO_CHARGES


@<TRIPOS>ATOM
      1 P          11.6020    6.8980   60.9330 P.3       1 8BR201      0.0000 
      2 O1P        10.5890    5.7810   60.8150 O.co2     1 8BR201      0.0000 
      3 O2P        12.8170    6.8170   60.0420 O.co2     1 8BR201      0.0000 
      4 O3P        11.8610    7.4120   62.3160 O.co2     1 8BR201      0.0000 
      5 O5'        10.7840    8.1310   60.2880 O.3       1 8BR201      0.0000 
      6 C5'        10.4370    8.0960   58.8660 C.3       1 8BR201      0.0000 
      7 C4'         9.2530    9.0050   58.6680 C.3       1 8BR201      0.0000 
      8 O4'         9.3630    9.7460   57.4110 O.3       1 8BR201      0.0000 
      9 C3'         7.8740    8.2780   58.5930 C.3       1 8BR201      0.0000 
     10 O3'         6.9680    8.8150   59.6170 O.3       1 8BR201      0.0000 
     11 C2'         7.3240    8.6070   57.1900 C.3       1 8BR201      0.0000 
     12 O2'         5.9360    8.7090   57.0840 O.3       1 8BR201      0.0000 
     13 C1'         8.0870    9.9020   56.8970 C.3       1 8BR201      0.0000 
     14 N9          8.2000   10.2370   55.4510 N.pl3     1 8BR201      0.0000 
     15 C8          8.9160    9.5240   54.4630 C.2       1 8BR201      0.0000 
     16 BR8         9.7340    7.8660   54.6990 Br        1 8BR201      0.0000 
     17 N7          8.9710   10.1840   53.3000 N.2       1 8BR201      0.0000 
     18 C5          8.3510   11.3520   53.5680 C.ar      1 8BR201      0.0000 
     19 C6          8.0430   12.4240   52.7510 C.ar      1 8BR201      0.0000 
     20 N6          8.3580   12.4410   51.4380 N.pl3     1 8BR201      0.0000 
     21 N1          7.3840   13.4690   53.2850 N.ar      1 8BR201      0.0000 
     22 C2          6.9470   13.4440   54.6000 C.ar      1 8BR201      0.0000 
     23 N3          7.3770   12.5780   55.4640 N.ar      1 8BR201      0.0000 
     24 C4          7.9220   11.4550   54.9400 C.ar      1 8BR201      0.0000 
     25 H          10.1678    7.0910   58.5600 H         1 8BR201      0.0000 
     26 H          11.2626    8.4515   58.2594 H         1 8BR201      0.0000 
     27 H           9.1877    9.7167   59.4868 H         1 8BR201      0.0000 
     28 H           8.0290    7.2489   58.6728 H         1 8BR201      0.0000 
     29 H           7.7689    7.8555   56.5247 H         1 8BR201      0.0000 
     30 H           7.5669   10.7097   57.4105 H         1 8BR201      0.0000 
     31 H           8.7939   11.6156   51.0794 H         1 8BR201      0.0000 
     32 H           8.1274   13.2775   50.9410 H         1 8BR201      0.0000 
     33 H           6.2301   14.1802   54.8742 H         1 8BR201      0.0000 
     34 H           6.9158    9.7955   59.4277 H         1 8BR201      0.0000 
     35 H           5.6889    9.4870   57.6617 H         1 8BR201      0.0000 
@<TRIPOS>BOND
     1    2    1 ar   
     2    3    1 ar   
     3    4    1 ar   
     4    5    1 1    
     5    6    5 1    
     6    7    6 1    
     7   25    6 1    
     8   26    6 1    
     9    8    7 1    
    10    9    7 1    
    11   27    7 1    
    12   13    8 1    
    13   10    9 1    
    14   11    9 1    
    15   28    9 1    
    16   34   10 1    
    17   12   11 1    
    18   13   11 1    
    19   29   11 1    
    20   35   12 1    
    21   14   13 1    
    22   30   13 1    
    23   15   14 1    
    24   24   14 1    
    25   16   15 1    
    26   17   15 2    
    27   18   17 1    
    28   19   18 ar   
    29   24   18 ar   
    30   20   19 1    
    31   21   19 ar   
    32   31   20 1    
    33   32   20 1    
    34   22   21 ar   
    35   23   22 ar   
    36   33   22 1    
    37   24   23 ar   
@<TRIPOS>SUBSTRUCTURE
     1 8BR201      1 GROUP   
@<TRIPOS>SET

