#    Name: 3qlh_T27_2_INTS_M
#    Modification time : Mon Apr  7 19:41:54 2014

@<TRIPOS>MOLECULE
3qlh_T27_2_INTS_M
   85     0     9     0     0
SMALL
NO_CHARGES


@<TRIPOS>ATOM
      1 N          51.9825  -25.4260   31.8575 N.am      2 SEC2        0.0000 
      2 N          52.3930  -25.4830   33.2670 N.am      8 SEL2        0.0000 
      3 N          51.5720  -25.3690   30.4480 N.am      5 SEP2        0.0000 
      4 CA         48.0720  -21.8330   37.3670 C.3       3 GLC5        0.0000 
      5 CA         48.8510  -23.3760   37.5940 C.3       9 GLL5        0.0000 
      6 CA         47.2930  -20.2900   37.1400 C.3       6 GLP5        0.0000 
      7 CA         48.2050  -23.3685   35.5625 C.3       3 GLC5        0.0000 
      8 CA         47.5590  -23.3610   33.5310 C.3       6 GLP5        0.0000 
      9 CA         49.6545  -23.1970   39.3825 C.3       3 GLC5        0.0000 
     10 CA         50.4580  -23.0180   41.1710 C.3       6 GLP5        0.0000 
     11 CA         53.8980  -26.7485   37.3820 C.3       3 GLC5        0.0000 
     12 CA         52.3890  -27.1380   38.3480 C.3       9 GLL5        0.0000 
     13 CA         55.4070  -26.3590   36.4160 C.3       6 GLP5        0.0000 
     14 CA         50.9850  -24.5945   33.0400 C.3       3 GLC5        0.0000 
     15 CA         52.8680  -24.2870   33.7950 C.3       9 GLL5        0.0000 
     16 CA         49.1020  -24.9020   32.2850 C.3       6 GLP5        0.0000 
     17 CA         54.7705  -24.5775   34.3285 C.3       3 GLC5        0.0000 
     18 CA         56.6730  -24.8680   34.8620 C.3       6 GLP5        0.0000 
     19 CA         54.3850  -24.4510   35.7060 C.3       3 GLC5        0.0000 
     20 CA         52.5760  -23.8500   35.1150 C.3       9 GLL5        0.0000 
     21 CA         56.1940  -25.0520   36.2970 C.3       6 GLP5        0.0000 
     22 CA         51.9950  -21.8180   34.8630 C.3       3 GLC5        0.0000 
     23 CA         51.4140  -19.7860   34.6110 C.3       6 GLP5        0.0000 
     24 CA         50.4465  -24.8205   34.0820 C.3       3 GLC5        0.0000 
     25 CA         51.7910  -24.7390   35.8790 C.3       9 GLL5        0.0000 
     26 CA         53.5990  -25.5490   36.1475 C.3       3 GLC5        0.0000 
     27 CA         50.3605  -25.5620   33.1985 C.3       3 GLC5        0.0000 
     28 CA         51.6190  -26.2220   34.1120 C.3       9 GLL5        0.0000 
     29 CA         52.7825  -27.8980   33.7215 C.3       3 GLC5        0.0000 
     30 CA         53.9460  -29.5740   33.3310 C.3       6 GLP5        0.0000 
     31 CA         53.5130  -26.2905   35.2640 C.3       3 GLC5        0.0000 
     32 O          51.6510  -27.7130   32.4375 O.2       1 ALC1        0.0000 
     33 O          51.1750  -27.4810   33.6270 O.2       7 ALL1        0.0000 
     34 O          52.1270  -27.9450   31.2480 O.2       4 ALP1        0.0000 
     35 CA         51.2050  -29.8775   31.4070 C.3       3 GLC5        0.0000 
     36 CA         50.2630  -29.7210   33.3920 C.3       9 GLL5        0.0000 
     37 CA         52.1470  -30.0340   29.4220 C.3       6 GLP5        0.0000 
     38 CA         49.7555  -26.7095   33.2255 C.3       3 GLC5        0.0000 
     39 CA         50.4090  -28.5170   34.1660 C.3       9 GLL5        0.0000 
     40 CA         48.4700  -27.1460   34.5115 C.3       3 GLC5        0.0000 
     41 CA         49.8060  -28.4660   35.5050 C.3       9 GLL5        0.0000 
     42 CA         47.1340  -25.8260   33.5180 C.3       6 GLP5        0.0000 
     43 CA         48.2250  -32.3240   37.6125 C.3       3 GLC5        0.0000 
     44 CA         48.2270  -31.9080   35.7550 C.3       9 GLL5        0.0000 
     45 CA         48.2230  -32.7400   39.4700 C.3       6 GLP5        0.0000 
     46 CA         46.7945  -32.9510   34.7590 C.3       3 GLC5        0.0000 
     47 CA         45.3620  -33.9940   33.7630 C.3       6 GLP5        0.0000 
     48 CA         47.7250  -28.3605   42.4500 C.3       3 GLC5        0.0000 
     49 CA         46.8820  -27.0040   41.1660 C.3       9 GLL5        0.0000 
     50 CA         48.5680  -29.7170   43.7340 C.3       6 GLP5        0.0000 
     51 CA         45.1580  -26.3190   41.0175 C.3       3 GLC5        0.0000 
     52 CA         43.4340  -25.6340   40.8690 C.3       6 GLP5        0.0000 
     53 CA         48.7905  -28.4965   41.7020 C.3       3 GLC5        0.0000 
     54 CA         47.8150  -27.4980   40.3760 C.3       9 GLL5        0.0000 
     55 CA         49.7660  -29.4950   43.0280 C.3       6 GLP5        0.0000 
     56 CA         45.8510  -26.6345   43.7520 C.3       3 GLC5        0.0000 
     57 CA         46.0450  -27.8570   41.9100 C.3       9 GLL5        0.0000 
     58 CA         45.6570  -25.4120   45.5940 C.3       6 GLP5        0.0000 
     59 CA         47.0945  -28.3155   43.2895 C.3       3 GLC5        0.0000 
     60 CA         48.1440  -28.7740   44.6690 C.3       6 GLP5        0.0000 
     61 CA         45.4045  -29.6730   41.1495 C.3       3 GLC5        0.0000 
     62 CA         44.7640  -31.4890   40.3890 C.3       6 GLP5        0.0000 
     63 CA         44.4550  -27.4375   41.3785 C.3       3 GLC5        0.0000 
     64 CA         42.8650  -27.0180   40.8470 C.3       6 GLP5        0.0000 
     65 CA         50.5875  -27.5205   40.9543 C.3       3 GLC5        0.0000 
     66 CA         50.0410  -27.2130   39.3400 C.3       9 GLL5        0.0000 
     67 CA         51.7900  -28.0850   42.4550 C.3       6 GLP5        0.0000 
     68 CA         46.8095  -26.9105   38.2702 C.3       3 GLC5        0.0000 
     69 CA         48.7290  -26.6990   39.5670 C.3       9 GLL5        0.0000 
     70 CA         45.0850  -27.7520   37.2590 C.3       6 GLP5        0.0000 
     71 CA         51.7422  -25.2748   39.7188 C.3       3 GLC5        0.0000 
     72 CA         50.9940  -26.5090   38.5490 C.3       9 GLL5        0.0000 
     73 CA         51.7930  -23.7260   40.9890 C.3       6 GLP5        0.0000 
     74 CA         51.7407  -27.4543   40.4517 C.3       3 GLC5        0.0000 
     75 CA         52.1410  -29.3465   33.5550 C.3       3 GLC5        0.0000 
     76 CA         46.6554  -30.4930   35.8820 C.3       3 GLC5        0.0000 
     77 CA         49.0860  -29.5870   36.0270 C.3       9 GLL5        0.0000 
     78 CA         44.6890  -29.9440   36.0730 C.3       6 GLP5        0.0000 
     79 CA         48.8809  -32.8896   33.9143 C.3       3 GLC5        0.0000 
     80 CA         49.0250  -34.4260   32.6640 C.3       6 GLP5        0.0000 
     81 CA         48.3452  -25.4785   41.2070 C.3       3 GLC5        0.0000 
     82 CA         49.3420  -23.7060   41.6430 C.3       6 GLP5        0.0000 
     83 CA         46.2168  -27.5015   39.0150 C.3       3 GLC5        0.0000 
     84 CA         50.5271  -24.9024   39.9919 C.3       3 GLC5        0.0000 
     85 CA         48.3390  -25.4390   38.9960 C.3       9 GLL5        0.0000 
@<TRIPOS>BOND
@<TRIPOS>SUBSTRUCTURE
     1 ALC1       32 GROUP        1 X    ALC  0     ROOT ALC X 1
     2 SEC2        1 GROUP        1 X    SEC  0     **** SEC X 2
     3 GLC5        4 GROUP        1 X    GLC  0     **** GLC X 6
     4 ALP1       34 GROUP        1 Y    ALP  0     ROOT ALP Y 8
     5 SEP2        3 GROUP        1 Y    SEP  0     **** SEP Y 9
     6 GLP5        6 GROUP        1 Y    GLP  0     **** GLP Y 13
     7 ALL1       33 GROUP        1 Z    ALL  0     ROOT ALL Z 15
     8 SEL2        2 GROUP        1 Z    SEL  0     **** SEL Z 16
     9 GLL5        5 GROUP        1 Z    GLL  0     **** GLL Z 20
@<TRIPOS>SET

