#    Name: 3qlh_T27_2_ligand
#    Modification time : Mon Apr  7 19:41:54 2014

@<TRIPOS>MOLECULE
3qlh_T27_2_ligand
   46    48     1     0     0
SMALL
NO_CHARGES


@<TRIPOS>ATOM
      1 C1         49.2700  -24.7060   38.1980 C.ar      1 T27555      0.0000 
      2 N2         52.3930  -25.4830   33.2670 N.ar      1 T27555      0.0000 
      3 C3         48.7290  -26.6990   39.5670 C.ar      1 T27555      0.0000 
      4 C4         50.0410  -27.2130   39.3400 C.ar      1 T27555      0.0000 
      5 C5         50.9940  -26.5090   38.5490 C.ar      1 T27555      0.0000 
      6 C6         50.6010  -25.2230   37.9550 C.ar      1 T27555      0.0000 
      7 C7         48.8510  -23.3760   37.5940 C.3       1 T27555      0.0000 
      8 C2         48.3390  -25.4390   38.9960 C.ar      1 T27555      0.0000 
      9 C8         52.3890  -27.1380   38.3480 C.3       1 T27555      0.0000 
     10 N1         51.4000  -24.4520   37.1570 N.pl3     1 T27555      0.0000 
     11 C9         52.8680  -24.2870   33.7950 C.ar      1 T27555      0.0000 
     12 C10        52.5760  -23.8500   35.1150 C.ar      1 T27555      0.0000 
     13 C11        51.7910  -24.7390   35.8790 C.ar      1 T27555      0.0000 
     14 N3         51.3150  -25.9030   35.3610 N.ar      1 T27555      0.0000 
     15 C12        51.6190  -26.2220   34.1120 C.ar      1 T27555      0.0000 
     16 N4         51.1750  -27.4810   33.6270 N.pl3     1 T27555      0.0000 
     17 C13        48.9470  -30.7650   35.2270 C.ar      1 T27555      0.0000 
     18 C14        49.5460  -30.8320   33.9210 C.ar      1 T27555      0.0000 
     19 C15        50.2630  -29.7210   33.3920 C.ar      1 T27555      0.0000 
     20 C16        50.4090  -28.5170   34.1660 C.ar      1 T27555      0.0000 
     21 C17        49.8060  -28.4660   35.5050 C.ar      1 T27555      0.0000 
     22 C18        49.0860  -29.5870   36.0270 C.ar      1 T27555      0.0000 
     23 N5         47.6730  -32.8300   36.1850 N.1       1 T27555      0.0000 
     24 C19        48.2270  -31.9080   35.7550 C.1       1 T27555      0.0000 
     25 C20        46.8820  -27.0040   41.1660 C.2       1 T27555      0.0000 
     26 C21        47.8150  -27.4980   40.3760 C.2       1 T27555      0.0000 
     27 N6         45.3410  -28.5990   42.4630 N.1       1 T27555      0.0000 
     28 C22        46.0450  -27.8570   41.9100 C.1       1 T27555      0.0000 
     29 H          50.3041  -28.1150   39.7588 H         1 T27555      0.0000 
     30 H          47.4090  -25.0763   39.1606 H         1 T27555      0.0000 
     31 H          51.7581  -23.5230   37.5789 H         1 T27555      0.0000 
     32 H          53.4700  -23.6712   33.2016 H         1 T27555      0.0000 
     33 H          52.9002  -22.9886   35.4663 H         1 T27555      0.0000 
     34 H          51.5210  -27.6815   32.5739 H         1 T27555      0.0000 
     35 H          49.4528  -31.6869   33.3728 H         1 T27555      0.0000 
     36 H          50.6757  -29.7725   32.4644 H         1 T27555      0.0000 
     37 H          49.9106  -27.6188   36.0527 H         1 T27555      0.0000 
     38 H          48.6800  -29.5470   36.9510 H         1 T27555      0.0000 
     39 H          46.7312  -25.9771   41.2679 H         1 T27555      0.0000 
     40 H          47.9561  -28.5490   40.2832 H         1 T27555      0.0000 
     41 H          49.4365  -22.6267   37.9034 H         1 T27555      0.0000 
     42 H          48.8971  -23.3907   36.5952 H         1 T27555      0.0000 
     43 H          47.9122  -23.1354   37.8405 H         1 T27555      0.0000 
     44 H          52.9775  -26.5626   37.7801 H         1 T27555      0.0000 
     45 H          52.8636  -27.2746   39.2175 H         1 T27555      0.0000 
     46 H          52.3329  -28.0309   37.9012 H         1 T27555      0.0000 
@<TRIPOS>BOND
     1    6    1 ar   
     2    7    1 1    
     3    8    1 ar   
     4   11    2 ar   
     5   15    2 ar   
     6    4    3 ar   
     7    8    3 ar   
     8   26    3 1    
     9    5    4 ar   
    10   29    4 1    
    11    6    5 ar   
    12    9    5 1    
    13   10    6 1    
    14   41    7 1    
    15   42    7 1    
    16   43    7 1    
    17   30    8 1    
    18   44    9 1    
    19   45    9 1    
    20   46    9 1    
    21   13   10 1    
    22   31   10 1    
    23   12   11 ar   
    24   32   11 1    
    25   13   12 ar   
    26   33   12 1    
    27   14   13 ar   
    28   15   14 ar   
    29   16   15 1    
    30   20   16 1    
    31   34   16 1    
    32   18   17 ar   
    33   22   17 ar   
    34   24   17 1    
    35   19   18 ar   
    36   35   18 1    
    37   20   19 ar   
    38   36   19 1    
    39   21   20 ar   
    40   22   21 ar   
    41   37   21 1    
    42   38   22 1    
    43   24   23 3    
    44   26   25 2    
    45   28   25 1    
    46   39   25 1    
    47   40   26 1    
    48   28   27 3    
@<TRIPOS>SUBSTRUCTURE
     1 T27555      1 GROUP   
@<TRIPOS>SET

