#    Name: 3i1y_33N_1_INTS_M
#    Modification time : Tue Mar 25 15:27:59 2014

@<TRIPOS>MOLECULE
3i1y_33N_1_INTS_M
   47     0     9     0     0
SMALL
NO_CHARGES


@<TRIPOS>ATOM
      1 CA         71.8520  -12.7860   68.6440 C.3       3 GLC5        0.0000 
      2 CA         73.9780  -12.4210   68.8370 C.3       9 GLL5        0.0000 
      3 CA         69.7260  -13.1510   68.4510 C.3       6 GLP5        0.0000 
      4 CA         77.1795  -15.4485   68.6705 C.3       3 GLC5        0.0000 
      5 CA         75.7060  -13.9770   68.2580 C.3       9 GLL5        0.0000 
      6 CA         78.6530  -16.9200   69.0830 C.3       6 GLP5        0.0000 
      7 CA         72.5195   -5.5350   64.3590 C.3       3 GLC5        0.0000 
      8 CA         74.2510   -6.5970   63.6110 C.3       9 GLL5        0.0000 
      9 CA         70.7880   -4.4730   65.1070 C.3       6 GLP5        0.0000 
     10 CA         74.3780   -5.0895   65.1035 C.3       3 GLC5        0.0000 
     11 CA         74.5050   -3.5820   66.5960 C.3       6 GLP5        0.0000 
     12 N          75.0930  -10.6595   64.1485 N.am      2 SEC2        0.0000 
     13 N          75.9010   -9.6880   64.4060 N.am      8 SEL2        0.0000 
     14 N          74.2850  -11.6310   63.8910 N.am      5 SEP2        0.0000 
     15 O          72.7800   -8.2400   65.2625 O.2       1 ALC1        0.0000 
     16 O          74.3740   -8.6440   65.6180 O.2       7 ALL1        0.0000 
     17 O          71.1860   -7.8360   64.9070 O.2       4 ALP1        0.0000 
     18 O          73.4920   -7.6630   65.8740 O.2       1 ALC1        0.0000 
     19 O          72.6100   -6.6820   66.1300 O.2       4 ALP1        0.0000 
     20 CA         73.5195   -8.5505   69.9845 C.3       3 GLC5        0.0000 
     21 CA         74.4450   -9.9840   69.1310 C.3       9 GLL5        0.0000 
     22 CA         72.5940   -7.1170   70.8380 C.3       6 GLP5        0.0000 
     23 CA         72.6995  -10.3100   70.2470 C.3       3 GLC5        0.0000 
     24 CA         70.9540  -10.6360   71.3630 C.3       6 GLP5        0.0000 
     25 CA         77.6835  -10.0130   71.8485 C.3       3 GLC5        0.0000 
     26 CA         76.2470   -8.5480   72.7390 C.3       9 GLL5        0.0000 
     27 CA         79.1200  -11.4780   70.9580 C.3       6 GLP5        0.0000 
     28 CA         73.9250   -7.7862   68.1308 C.3       3 GLC5        0.0000 
     29 CA         74.7820   -9.0290   67.9830 C.3       9 GLL5        0.0000 
     30 CA         73.2420   -6.2170   68.9470 C.3       6 GLP5        0.0000 
     31 CA         77.7750  -11.8890   69.6710 C.3       3 GLC5        0.0000 
     32 CA         76.2290  -11.6530   68.5250 C.3       9 GLL5        0.0000 
     33 CA         76.8127  -11.3715   72.0588 C.3       3 GLC5        0.0000 
     34 CA         74.9010  -10.1690   71.5910 C.3       9 GLL5        0.0000 
     35 CA         78.4340  -12.8070   71.9430 C.3       6 GLP5        0.0000 
     36 CA         74.3438  -14.0876   70.2267 C.3       3 GLC5        0.0000 
     37 CA         73.7450  -14.6530   71.9760 C.3       6 GLP5        0.0000 
     38 CA         74.9745   -4.6765   60.5007 C.3       3 GLC5        0.0000 
     39 CA         75.7870   -6.8220   61.3640 C.3       9 GLL5        0.0000 
     40 CA         74.5910   -3.0630   59.5310 C.3       6 GLP5        0.0000 
     41 CA         74.8406   -7.2469   71.5629 C.3       3 GLC5        0.0000 
     42 CA         75.0790   -9.4780   70.4040 C.3       9 GLL5        0.0000 
     43 CA         74.0740   -5.7090   72.4400 C.3       6 GLP5        0.0000 
     44 CA         77.5601   -7.7019   70.8576 C.3       3 GLC5        0.0000 
     45 CA         76.4250   -7.8590   71.5520 C.3       9 GLL5        0.0000 
     46 CA         78.9290   -7.0840   69.8620 C.3       6 GLP5        0.0000 
     47 CA         74.9692   -7.4172   72.5942 C.3       3 GLC5        0.0000 
@<TRIPOS>BOND
@<TRIPOS>SUBSTRUCTURE
     1 ALC1       15 GROUP        1 X    ALC  0     ROOT ALC X 1
     2 SEC2       12 GROUP        1 X    SEC  0     **** SEC X 2
     3 GLC5        1 GROUP        1 X    GLC  0     **** GLC X 6
     4 ALP1       17 GROUP        1 Y    ALP  0     ROOT ALP Y 8
     5 SEP2       14 GROUP        1 Y    SEP  0     **** SEP Y 9
     6 GLP5        3 GROUP        1 Y    GLP  0     **** GLP Y 13
     7 ALL1       16 GROUP        1 Z    ALL  0     ROOT ALL Z 15
     8 SEL2       13 GROUP        1 Z    SEL  0     **** SEL Z 16
     9 GLL5        2 GROUP        1 Z    GLL  0     **** GLL Z 20
@<TRIPOS>SET

