#    Name: 3i1y_33N_1_ligand
#    Modification time : Tue Mar 25 15:27:59 2014

@<TRIPOS>MOLECULE
3i1y_33N_1_ligand
   44    46     1     0     0
SMALL
NO_CHARGES


@<TRIPOS>ATOM
      1 C4         74.7820   -9.0290   67.9830 C.3       1 33N999      0.0000 
      2 C5         76.2290  -11.6530   68.5250 C.ar      1 33N999      0.0000 
      3 C6         73.9780  -12.4210   68.8370 C.ar      1 33N999      0.0000 
      4 C7         74.9010  -10.1690   71.5910 C.ar      1 33N999      0.0000 
      5 C8         75.8460   -8.3240   70.3830 C.ar      1 33N999      0.0000 
      6 C10        76.6310  -12.9470   68.2430 C.ar      1 33N999      0.0000 
      7 C13        76.4250   -7.8590   71.5520 C.ar      1 33N999      0.0000 
      8 C15        75.7060  -13.9770   68.2580 C.ar      1 33N999      0.0000 
      9 C17        75.1510   -8.7410   64.5260 C.2       1 33N999      0.0000 
     10 C20        75.8790   -7.8160   62.3210 C.ar      1 33N999      0.0000 
     11 C21        74.2510   -6.5970   63.6110 C.ar      1 33N999      0.0000 
     12 C22        75.7870   -6.8220   61.3640 C.ar      1 33N999      0.0000 
     13 C24        74.9290   -5.7580   61.5770 C.ar      1 33N999      0.0000 
     14 O19        75.9010   -9.6880   64.4060 O.2       1 33N999      0.0000 
     15 C18        75.0940   -7.7010   63.4750 C.ar      1 33N999      0.0000 
     16 N23        74.1970   -5.6750   62.6720 N.ar      1 33N999      0.0000 
     17 N14        74.3740   -8.6440   65.6180 N.am      1 33N999      0.0000 
     18 C9         74.4340   -9.6820   66.6460 C.3       1 33N999      0.0000 
     19 C1         74.4450   -9.9840   69.1310 C.3       1 33N999      0.0000 
     20 C3         75.0790   -9.4780   70.4040 C.ar      1 33N999      0.0000 
     21 C16        76.2470   -8.5480   72.7390 C.ar      1 33N999      0.0000 
     22 C12        75.4820   -9.7030   72.7580 C.ar      1 33N999      0.0000 
     23 C2         74.9020  -11.3890   68.8200 C.ar      1 33N999      0.0000 
     24 C11        74.3800  -13.7140   68.5570 C.ar      1 33N999      0.0000 
     25 H          74.2095   -8.1154   68.0974 H         1 33N999      0.0000 
     26 H          75.8415   -8.7999   68.0070 H         1 33N999      0.0000 
     27 H          76.9168  -10.8859   68.5155 H         1 33N999      0.0000 
     28 H          72.9910  -12.2238   69.0585 H         1 33N999      0.0000 
     29 H          74.3357  -11.0305   71.6053 H         1 33N999      0.0000 
     30 H          75.9849   -7.8137   69.5001 H         1 33N999      0.0000 
     31 H          77.6177  -13.1438   68.0221 H         1 33N999      0.0000 
     32 H          76.9907   -6.9963   71.5375 H         1 33N999      0.0000 
     33 H          76.0048  -14.9405   68.0464 H         1 33N999      0.0000 
     34 H          76.4977   -8.6124   62.1977 H         1 33N999      0.0000 
     35 H          73.6719   -6.5333   64.4778 H         1 33N999      0.0000 
     36 H          76.3476   -6.8728   60.5073 H         1 33N999      0.0000 
     37 H          74.8790   -5.0151   60.8355 H         1 33N999      0.0000 
     38 H          73.7257   -7.8680   65.7788 H         1 33N999      0.0000 
     39 H          73.4757  -10.1859   66.7491 H         1 33N999      0.0000 
     40 H          75.2001  -10.4183   66.4138 H         1 33N999      0.0000 
     41 H          73.3663   -9.9835   69.2592 H         1 33N999      0.0000 
     42 H          76.6816   -8.2037   73.6061 H         1 33N999      0.0000 
     43 H          75.3457  -10.2152   73.6417 H         1 33N999      0.0000 
     44 H          73.6934  -14.4823   68.5707 H         1 33N999      0.0000 
@<TRIPOS>BOND
     1   18    1 1    
     2   19    1 1    
     3   25    1 1    
     4   26    1 1    
     5    6    2 ar   
     6   23    2 ar   
     7   27    2 1    
     8   23    3 ar   
     9   24    3 ar   
    10   28    3 1    
    11   20    4 ar   
    12   22    4 ar   
    13   29    4 1    
    14    7    5 ar   
    15   20    5 ar   
    16   30    5 1    
    17    8    6 ar   
    18   31    6 1    
    19   21    7 ar   
    20   32    7 1    
    21   24    8 ar   
    22   33    8 1    
    23   14    9 2    
    24   15    9 1    
    25   17    9 am   
    26   12   10 ar   
    27   15   10 ar   
    28   34   10 1    
    29   15   11 ar   
    30   16   11 ar   
    31   35   11 1    
    32   13   12 ar   
    33   36   12 1    
    34   16   13 ar   
    35   37   13 1    
    36   18   17 1    
    37   38   17 1    
    38   39   18 1    
    39   40   18 1    
    40   20   19 1    
    41   23   19 1    
    42   41   19 1    
    43   22   21 ar   
    44   42   21 1    
    45   43   22 1    
    46   44   24 1    
@<TRIPOS>SUBSTRUCTURE
     1 33N999      1 GROUP   
@<TRIPOS>SET

