#    Name: 1xdd_AAY_1_INTS_M
#    Modification time : Mon Apr  7 15:14:35 2014

@<TRIPOS>MOLECULE
1xdd_AAY_1_INTS_M
  106     0     6     0     0
SMALL
NO_CHARGES


@<TRIPOS>ATOM
      1 N          27.9835   84.7560   39.0980 N.am      1 SEC2        0.0000 
      2 N          29.1670   85.3540   38.8860 N.am      5 SEL2        0.0000 
      3 N          26.8000   84.1580   39.3100 N.am      3 SEP2        0.0000 
      4 CA         30.5260   88.3900   36.7525 C.3       2 GLC5        0.0000 
      5 CA         29.1350   86.9140   37.0540 C.3       6 GLL5        0.0000 
      6 CA         31.9170   89.8660   36.4510 C.3       4 GLP5        0.0000 
      7 CA         27.6615   85.9830   34.4080 C.3       2 GLC5        0.0000 
      8 CA         28.7540   85.8550   36.0080 C.3       6 GLL5        0.0000 
      9 CA         26.5690   86.1110   32.8080 C.3       4 GLP5        0.0000 
     10 CA         29.4445   87.6475   34.8790 C.3       2 GLC5        0.0000 
     11 CA         30.1350   89.4400   33.7500 C.3       4 GLP5        0.0000 
     12 CA         30.0790   89.3235   37.4710 C.3       2 GLC5        0.0000 
     13 CA         28.2410   88.7810   38.4910 C.3       6 GLL5        0.0000 
     14 CA         28.6065   90.5790   38.7350 C.3       2 GLC5        0.0000 
     15 CA         28.9720   92.3770   38.9790 C.3       4 GLP5        0.0000 
     16 CA         30.8770   85.3385   41.2120 C.3       2 GLC5        0.0000 
     17 CA         31.6430   86.1280   39.6900 C.3       6 GLL5        0.0000 
     18 CA         30.1110   84.5490   42.7340 C.3       4 GLP5        0.0000 
     19 CA         31.7055   83.7070   40.5205 C.3       2 GLC5        0.0000 
     20 CA         32.2890   84.8370   39.1730 C.3       6 GLL5        0.0000 
     21 CA         31.1220   82.5770   41.8680 C.3       4 GLP5        0.0000 
     22 CA         34.3200   83.1685   37.5130 C.3       2 GLC5        0.0000 
     23 CA         33.3240   85.1000   38.0670 C.3       6 GLL5        0.0000 
     24 CA         35.3160   81.2370   36.9590 C.3       4 GLP5        0.0000 
     25 CA         34.4070   84.8195   35.5230 C.3       2 GLC5        0.0000 
     26 CA         32.7270   84.9580   36.6380 C.3       6 GLL5        0.0000 
     27 CA         36.0870   84.6810   34.4080 C.3       4 GLP5        0.0000 
     28 CA         32.4290   83.8725   34.9945 C.3       2 GLC5        0.0000 
     29 CA         32.1310   82.7870   33.3510 C.3       4 GLP5        0.0000 
     30 CA         32.0040   86.0000   41.7720 C.3       2 GLC5        0.0000 
     31 CA         32.7210   87.1360   40.1510 C.3       6 GLL5        0.0000 
     32 CA         31.2870   84.8640   43.3930 C.3       4 GLP5        0.0000 
     33 CA         35.1480   91.3950   39.3310 C.3       2 GLC5        0.0000 
     34 CA         34.3460   89.4710   39.8620 C.3       6 GLL5        0.0000 
     35 CA         35.9500   93.3190   38.8000 C.3       4 GLP5        0.0000 
     36 CA         34.5425   88.0390   43.7665 C.3       2 GLC5        0.0000 
     37 CA         33.8410   89.2000   42.2700 C.3       6 GLL5        0.0000 
     38 CA         35.2440   86.8780   45.2630 C.3       4 GLP5        0.0000 
     39 CA         32.0135   89.1905   38.4805 C.3       2 GLC5        0.0000 
     40 CA         32.1100   88.5150   40.5100 C.3       6 GLL5        0.0000 
     41 CA         31.1355   86.6160   42.4970 C.3       2 GLC5        0.0000 
     42 CA         30.9840   88.3680   41.6010 C.3       6 GLL5        0.0000 
     43 CA         29.7235   91.0550   40.5505 C.3       2 GLC5        0.0000 
     44 CA         30.4750   89.7330   42.1220 C.3       6 GLL5        0.0000 
     45 CA         28.1405   91.0890   44.1695 C.3       2 GLC5        0.0000 
     46 CA         29.3430   89.6190   43.1780 C.3       6 GLL5        0.0000 
     47 CA         26.9380   92.5590   45.1610 C.3       4 GLP5        0.0000 
     48 CA         28.8130   86.1220   43.5800 C.3       2 GLC5        0.0000 
     49 CA         27.5150   87.6950   44.4260 C.3       6 GLL5        0.0000 
     50 CA         29.0860   92.0925   45.2465 C.3       2 GLC5        0.0000 
     51 CA         31.2340   91.6260   45.3320 C.3       6 GLL5        0.0000 
     52 CA         29.2540   93.3860   45.4285 C.3       2 GLC5        0.0000 
     53 CA         31.0940   92.8040   46.0580 C.3       6 GLL5        0.0000 
     54 CA         27.4140   93.9680   44.7990 C.3       4 GLP5        0.0000 
     55 CA         31.7750   96.9835   47.9155 C.3       2 GLC5        0.0000 
     56 CA         30.8120   95.2890   47.6190 C.3       6 GLL5        0.0000 
     57 CA         32.7380   98.6780   48.2120 C.3       4 GLP5        0.0000 
     58 CA         32.6835   94.6040   47.1275 C.3       2 GLC5        0.0000 
     59 CA         34.5550   93.9190   46.6360 C.3       4 GLP5        0.0000 
     60 CA         26.9590   96.3590   48.8800 C.3       2 GLC5        0.0000 
     61 CA         28.2370   95.3000   50.3360 C.3       6 GLL5        0.0000 
     62 CA         25.6810   97.4180   47.4240 C.3       4 GLP5        0.0000 
     63 CA         30.4825   89.4800   49.3850 C.3       2 GLC5        0.0000 
     64 CA         29.5440   91.4070   49.1180 C.3       6 GLL5        0.0000 
     65 CA         31.4210   87.5530   49.6520 C.3       4 GLP5        0.0000 
     66 CA         28.4480   91.9165   47.2640 C.3       2 GLC5        0.0000 
     67 CA         30.1190   91.5080   47.8540 C.3       6 GLL5        0.0000 
     68 CA         26.7770   92.3250   46.6740 C.3       4 GLP5        0.0000 
     69 CA         30.8370   88.9460   48.3825 C.3       2 GLC5        0.0000 
     70 CA         30.2530   90.3390   47.1130 C.3       6 GLL5        0.0000 
     71 CA         26.9432   89.3647   36.7930 C.3       2 GLC5        0.0000 
     72 CA         25.8190   90.4870   35.6180 C.3       4 GLP5        0.0000 
     73 CA         34.4623   85.3007   39.6060 C.3       2 GLC5        0.0000 
     74 CA         36.1180   85.6330   40.5920 C.3       4 GLP5        0.0000 
     75 CA         32.8783   88.3860   37.5063 C.3       2 GLC5        0.0000 
     76 CA         33.7310   87.3600   39.0360 C.3       6 GLL5        0.0000 
     77 CA         34.6991   86.3270   39.9741 C.3       2 GLC5        0.0000 
     78 CA         33.9480   86.4520   38.0870 C.3       6 GLL5        0.0000 
     79 CA         36.0497   89.5065   38.2338 C.3       2 GLC5        0.0000 
     80 CA         34.4430   88.5050   38.9530 C.3       6 GLL5        0.0000 
     81 CA         37.7050   90.0250   37.0600 C.3       4 GLP5        0.0000 
     82 CA         35.2563   87.3105   39.9998 C.3       2 GLC5        0.0000 
     83 CA         33.1557   89.4270   37.9292 C.3       2 GLC5        0.0000 
     84 CA         34.6670   90.9920   42.1693 C.3       2 GLC5        0.0000 
     85 CA         35.8020   92.6310   42.7630 C.3       4 GLP5        0.0000 
     86 CA         35.5769   89.0751   41.9169 C.3       2 GLC5        0.0000 
     87 CA         37.3410   88.8060   42.5130 C.3       4 GLP5        0.0000 
     88 CA         26.8955   89.5580   45.4892 C.3       2 GLC5        0.0000 
     89 CA         26.5390   90.8430   46.9790 C.3       4 GLP5        0.0000 
     90 CA         25.9260   89.6852   41.8573 C.3       2 GLC5        0.0000 
     91 CA         26.9890   88.8510   43.5730 C.3       6 GLL5        0.0000 
     92 CA         24.3190   90.4170   40.6740 C.3       4 GLP5        0.0000 
     93 CA         32.8040   89.2045   46.2290 C.3       2 GLC5        0.0000 
     94 CA         30.9690   89.1450   45.0580 C.3       6 GLL5        0.0000 
     95 CA         34.7130   88.6320   47.0010 C.3       4 GLP5        0.0000 
     96 CA         28.5380   90.6085   46.7318 C.3       2 GLC5        0.0000 
     97 CA         30.8210   90.4090   45.8560 C.3       6 GLL5        0.0000 
     98 CA         32.8595   93.0670   46.1655 C.3       2 GLC5        0.0000 
     99 CA         32.5032   93.6217   47.1822 C.3       2 GLC5        0.0000 
    100 CA         30.5330   92.7450   47.3400 C.3       6 GLL5        0.0000 
    101 CA         28.4489   92.9409   47.6154 C.3       2 GLC5        0.0000 
    102 CA         31.3513   91.3350   49.8680 C.3       2 GLC5        0.0000 
    103 CA         33.2440   90.6910   50.2340 C.3       4 GLP5        0.0000 
    104 CA         27.9198   91.2695   48.9910 C.3       2 GLC5        0.0000 
    105 CA         26.3810   90.5600   48.4800 C.3       4 GLP5        0.0000 
    106 CA         31.7668   90.9619   48.7945 C.3       2 GLC5        0.0000 
@<TRIPOS>BOND
@<TRIPOS>SUBSTRUCTURE
     1 SEC2        1 GROUP        1 X    SEC  0     ROOT SEC X 2
     2 GLC5        4 GROUP        1 X    GLC  0     **** GLC X 6
     3 SEP2        3 GROUP        1 Y    SEP  0     ROOT SEP Y 9
     4 GLP5        6 GROUP        1 Y    GLP  0     **** GLP Y 13
     5 SEL2        2 GROUP        1 Z    SEL  0     ROOT SEL Z 16
     6 GLL5        5 GROUP        1 Z    GLL  0     **** GLL Z 20
@<TRIPOS>SET

