#    Name: 1xdd_AAY_1_ligand
#    Modification time : Mon Apr  7 15:14:35 2014

@<TRIPOS>MOLECULE
1xdd_AAY_1_ligand
   93    97     1     0     0
SMALL
NO_CHARGES


@<TRIPOS>ATOM
      1 O52        29.1670   85.3540   38.8860 O.2       1 AAY401      0.0000 
      2 C51        29.7230   86.2550   38.2960 C.2       1 AAY401      0.0000 
      3 C53        29.1350   86.9140   37.0540 C.3       1 AAY401      0.0000 
      4 C62        28.7540   85.8550   36.0080 C.3       1 AAY401      0.0000 
      5 C55        27.8940   87.7040   37.4450 C.3       1 AAY401      0.0000 
      6 C58        28.2410   88.7810   38.4910 C.3       1 AAY401      0.0000 
      7 O50        30.8820   86.8020   38.6570 O.3       1 AAY401      0.0000 
      8 C26        31.6430   86.1280   39.6900 C.3       1 AAY401      0.0000 
      9 C28        32.2890   84.8370   39.1730 C.3       1 AAY401      0.0000 
     10 C31        33.3240   85.1000   38.0670 C.3       1 AAY401      0.0000 
     11 C46        32.7270   84.9580   36.6380 C.3       1 AAY401      0.0000 
     12 C33        33.9480   86.4520   38.0870 C.2       1 AAY401      0.0000 
     13 C35        33.7310   87.3600   39.0360 C.2       1 AAY401      0.0000 
     14 C24        32.7210   87.1360   40.1510 C.3       1 AAY401      0.0000 
     15 C36        34.4430   88.5050   38.9530 C.2       1 AAY401      0.0000 
     16 C38        34.3460   89.4710   39.8620 C.2       1 AAY401      0.0000 
     17 C40        33.2230   89.5060   40.8810 C.3       1 AAY401      0.0000 
     18 C42        33.8410   89.2000   42.2700 C.3       1 AAY401      0.0000 
     19 C22        32.1100   88.5150   40.5100 C.3       1 AAY401      0.0000 
     20 C19        30.9840   88.3680   41.6010 C.3       1 AAY401      0.0000 
     21 C16        30.4750   89.7330   42.1220 C.3       1 AAY401      0.0000 
     22 C2         29.3430   89.6190   43.1780 C.3       1 AAY401      0.0000 
     23 N1         29.7070   88.9010   44.4010 N.am      1 AAY401      0.0000 
     24 C12        28.8580   88.0190   44.9870 C.2       1 AAY401      0.0000 
     25 O13        29.1390   87.4550   46.0250 O.2       1 AAY401      0.0000 
     26 C9         27.5150   87.6950   44.4260 C.3       1 AAY401      0.0000 
     27 C7         26.9890   88.8510   43.5730 C.3       1 AAY401      0.0000 
     28 O14        25.7750   88.4650   42.9330 O.3       1 AAY401      0.0000 
     29 C4         28.0770   89.0560   42.5080 C.3       1 AAY401      0.0000 
     30 C66        30.9690   89.1450   45.0580 C.3       1 AAY401      0.0000 
     31 C69        30.8210   90.4090   45.8560 C.ar      1 AAY401      0.0000 
     32 C92        31.2340   91.6260   45.3320 C.ar      1 AAY401      0.0000 
     33 C90        31.0940   92.8040   46.0580 C.ar      1 AAY401      0.0000 
     34 C73        30.5330   92.7450   47.3400 C.ar      1 AAY401      0.0000 
     35 C74        30.3700   93.9040   48.1170 C.ar      1 AAY401      0.0000 
     36 C85        30.8120   95.2890   47.6190 C.3       1 AAY401      0.0000 
     37 O88        30.0640   95.6950   46.4720 O.3       1 AAY401      0.0000 
     38 C75        29.7900   93.7890   49.3850 C.ar      1 AAY401      0.0000 
     39 O80        29.6220   94.9180   50.1740 O.3       1 AAY401      0.0000 
     40 C81        28.2370   95.3000   50.3360 C.3       1 AAY401      0.0000 
     41 C76        29.3730   92.5510   49.8860 C.ar      1 AAY401      0.0000 
     42 C78        29.5440   91.4070   49.1180 C.ar      1 AAY401      0.0000 
     43 C72        30.1190   91.5080   47.8540 C.ar      1 AAY401      0.0000 
     44 C70        30.2530   90.3390   47.1130 C.ar      1 AAY401      0.0000 
     45 H          29.8555   87.5807   36.6297 H         1 AAY401      0.0000 
     46 H          27.1506   87.0313   37.8661 H         1 AAY401      0.0000 
     47 H          27.4779   88.1893   36.5653 H         1 AAY401      0.0000 
     48 H          31.0250   85.9056   40.5368 H         1 AAY401      0.0000 
     49 H          31.5087   84.1783   38.7801 H         1 AAY401      0.0000 
     50 H          32.7807   84.3242   40.0052 H         1 AAY401      0.0000 
     51 H          34.1203   84.3505   38.1339 H         1 AAY401      0.0000 
     52 H          34.5899   86.6402   37.2733 H         1 AAY401      0.0000 
     53 H          33.2274   86.7511   41.0087 H         1 AAY401      0.0000 
     54 H          35.1007   88.6296   38.1298 H         1 AAY401      0.0000 
     55 H          35.0157   90.2561   39.9414 H         1 AAY401      0.0000 
     56 H          32.8167   90.5048   40.9116 H         1 AAY401      0.0000 
     57 H          31.6194   88.8880   39.5918 H         1 AAY401      0.0000 
     58 H          31.3876   87.7915   42.4330 H         1 AAY401      0.0000 
     59 H          30.1530   87.8162   41.1622 H         1 AAY401      0.0000 
     60 H          30.1055   90.3216   41.2731 H         1 AAY401      0.0000 
     61 H          31.3162   90.2794   42.5663 H         1 AAY401      0.0000 
     62 H          29.0827   90.6819   43.4474 H         1 AAY401      0.0000 
     63 H          26.8044   87.5063   45.2343 H         1 AAY401      0.0000 
     64 H          27.5730   86.7996   43.8026 H         1 AAY401      0.0000 
     65 H          26.9188   89.7107   44.1585 H         1 AAY401      0.0000 
     66 H          28.3097   88.1080   42.0461 H         1 AAY401      0.0000 
     67 H          27.7246   89.7570   41.7659 H         1 AAY401      0.0000 
     68 H          31.7702   89.2773   44.3355 H         1 AAY401      0.0000 
     69 H          31.2260   88.3319   45.7320 H         1 AAY401      0.0000 
     70 H          31.6533   91.6588   44.3852 H         1 AAY401      0.0000 
     71 H          31.3928   93.6962   45.6682 H         1 AAY401      0.0000 
     72 H          31.8914   95.2318   47.4025 H         1 AAY401      0.0000 
     73 H          30.6888   95.9947   48.4569 H         1 AAY401      0.0000 
     74 H          28.9444   92.4939   50.8149 H         1 AAY401      0.0000 
     75 H          29.2494   90.4932   49.4777 H         1 AAY401      0.0000 
     76 H          29.9356   89.4464   47.4954 H         1 AAY401      0.0000 
     77 H          29.5453   85.3154   35.7205 H         1 AAY401      0.0000 
     78 H          28.0737   85.2125   36.3607 H         1 AAY401      0.0000 
     79 H          28.3667   86.2691   35.1843 H         1 AAY401      0.0000 
     80 H          28.6178   88.3800   39.3260 H         1 AAY401      0.0000 
     81 H          28.9192   89.4295   38.1454 H         1 AAY401      0.0000 
     82 H          27.4369   89.3122   38.7579 H         1 AAY401      0.0000 
     83 H          33.4128   85.1283   35.9304 H         1 AAY401      0.0000 
     84 H          32.3617   84.0410   36.4775 H         1 AAY401      0.0000 
     85 H          31.9788   85.6030   36.4823 H         1 AAY401      0.0000 
     86 H          34.2810   88.3023   42.2911 H         1 AAY401      0.0000 
     87 H          34.5358   89.8730   42.5238 H         1 AAY401      0.0000 
     88 H          33.1502   89.2049   42.9931 H         1 AAY401      0.0000 
     89 H          28.1406   96.1123   50.9112 H         1 AAY401      0.0000 
     90 H          27.8043   95.5089   49.4590 H         1 AAY401      0.0000 
     91 H          27.6987   94.5732   50.7627 H         1 AAY401      0.0000 
     92 H          25.5400   87.5806   43.3361 H         1 AAY401      0.0000 
     93 H          30.0107   96.6914   46.5374 H         1 AAY401      0.0000 
@<TRIPOS>BOND
     1    2    1 2    
     2    3    2 1    
     3    7    2 1    
     4    4    3 1    
     5    5    3 1    
     6   45    3 1    
     7   77    4 1    
     8   78    4 1    
     9   79    4 1    
    10    6    5 1    
    11   46    5 1    
    12   47    5 1    
    13   80    6 1    
    14   81    6 1    
    15   82    6 1    
    16    8    7 1    
    17    9    8 1    
    18   14    8 1    
    19   48    8 1    
    20   10    9 1    
    21   49    9 1    
    22   50    9 1    
    23   11   10 1    
    24   12   10 1    
    25   51   10 1    
    26   83   11 1    
    27   84   11 1    
    28   85   11 1    
    29   13   12 2    
    30   52   12 1    
    31   14   13 1    
    32   15   13 1    
    33   19   14 1    
    34   53   14 1    
    35   16   15 2    
    36   54   15 1    
    37   17   16 1    
    38   55   16 1    
    39   18   17 1    
    40   19   17 1    
    41   56   17 1    
    42   86   18 1    
    43   87   18 1    
    44   88   18 1    
    45   20   19 1    
    46   57   19 1    
    47   21   20 1    
    48   58   20 1    
    49   59   20 1    
    50   22   21 1    
    51   60   21 1    
    52   61   21 1    
    53   23   22 1    
    54   29   22 1    
    55   62   22 1    
    56   24   23 am   
    57   30   23 1    
    58   25   24 2    
    59   26   24 1    
    60   27   26 1    
    61   63   26 1    
    62   64   26 1    
    63   28   27 1    
    64   29   27 1    
    65   65   27 1    
    66   92   28 1    
    67   66   29 1    
    68   67   29 1    
    69   31   30 1    
    70   68   30 1    
    71   69   30 1    
    72   32   31 ar   
    73   44   31 ar   
    74   33   32 ar   
    75   70   32 1    
    76   34   33 ar   
    77   71   33 1    
    78   35   34 ar   
    79   43   34 ar   
    80   36   35 1    
    81   38   35 ar   
    82   37   36 1    
    83   72   36 1    
    84   73   36 1    
    85   93   37 1    
    86   39   38 1    
    87   41   38 ar   
    88   40   39 1    
    89   89   40 1    
    90   90   40 1    
    91   91   40 1    
    92   42   41 ar   
    93   74   41 1    
    94   43   42 ar   
    95   75   42 1    
    96   44   43 ar   
    97   76   44 1    
@<TRIPOS>SUBSTRUCTURE
     1 AAY401      1 GROUP   
@<TRIPOS>SET

