#    Name: 3aaq_ARU_1_INTS_M
#    Modification time : Mon Apr  7 19:01:37 2014

@<TRIPOS>MOLECULE
3aaq_ARU_1_INTS_M
   74     0     9     0     0
SMALL
NO_CHARGES


@<TRIPOS>ATOM
      1 CA         34.6010   26.0575   30.7725 C.3       3 GLC5        0.0000 
      2 CA         34.0220   25.7170   32.6470 C.3       9 GLL5        0.0000 
      3 CA         35.1800   26.3980   28.8980 C.3       6 GLP5        0.0000 
      4 CA         34.6665   24.0380   31.6460 C.3       3 GLC5        0.0000 
      5 CA         35.3110   22.3590   30.6450 C.3       6 GLP5        0.0000 
      6 CA         34.7330   26.3675   34.4285 C.3       3 GLC5        0.0000 
      7 CA         35.4440   27.0180   36.2100 C.3       6 GLP5        0.0000 
      8 CA         32.4845   24.7825   33.5490 C.3       3 GLC5        0.0000 
      9 CA         30.9470   23.8480   34.4510 C.3       6 GLP5        0.0000 
     10 CA         35.6435   27.0260   34.2145 C.3       3 GLC5        0.0000 
     11 CA         35.8430   27.0340   32.2190 C.3       9 GLL5        0.0000 
     12 CA         32.1235   29.0990   33.1355 C.3       3 GLC5        0.0000 
     13 CA         31.6010   28.9560   31.2930 C.3       9 GLL5        0.0000 
     14 CA         32.6460   29.2420   34.9780 C.3       6 GLP5        0.0000 
     15 CA         32.1535   30.3280   32.9565 C.3       3 GLC5        0.0000 
     16 CA         30.9810   30.3220   31.4030 C.3       9 GLL5        0.0000 
     17 CA         33.3260   30.3340   34.5100 C.3       6 GLP5        0.0000 
     18 N          31.7435   31.0370   33.3525 N.am      1 SEC2        0.0000 
     19 N          30.8570   30.7030   32.7310 N.am      7 SEL2        0.0000 
     20 N          32.6300   31.3710   33.9740 N.am      4 SEP2        0.0000 
     21 CA         27.4995   30.4030   30.5055 C.3       3 GLC5        0.0000 
     22 CA         29.6330   30.1110   30.7420 C.3       9 GLL5        0.0000 
     23 CA         25.3660   30.6950   30.2690 C.3       6 GLP5        0.0000 
     24 CA         27.4170   29.1005   27.7485 C.3       3 GLC5        0.0000 
     25 CA         29.2850   29.1790   28.6680 C.3       9 GLL5        0.0000 
     26 CA         25.5490   29.0220   26.8290 C.3       6 GLP5        0.0000 
     27 CA         27.3255   29.9370   29.4685 C.3       3 GLC5        0.0000 
     28 CA         36.4740   27.5745   29.6860 C.3       3 GLC5        0.0000 
     29 CA         37.7680   28.7510   30.4740 C.3       9 GLL5        0.0000 
     30 CA         36.5595   28.8935   33.5525 C.3       3 GLC5        0.0000 
     31 CA         37.7410   28.4930   31.9600 C.3       9 GLL5        0.0000 
     32 CA         35.3780   29.2940   35.1450 C.3       6 GLP5        0.0000 
     33 CA         37.4470   24.6040   33.9040 C.3       3 GLC5        0.0000 
     34 CA         38.0140   26.0220   32.3780 C.3       9 GLL5        0.0000 
     35 CA         36.8800   23.1860   35.4300 C.3       6 GLP5        0.0000 
     36 NZ         28.1575   36.6060   25.2805 N.4       2 LYC4        0.0000 
     37 NZ         27.4530   35.8250   25.7750 N.4       8 LYL4        0.0000 
     38 NZ         29.8440   38.1860   25.0880 N.4       5 LYP4        0.0000 
     39 N          28.1575   36.6060   25.2805 N.am      1 SEC2        0.0000 
     40 N          27.4530   35.8250   25.7750 N.am      7 SEL2        0.0000 
     41 N          28.8620   37.3870   24.7860 N.am      4 SEP2        0.0000 
     42 N          26.5840   35.9930   24.6160 N.am      1 SEC2        0.0000 
     43 N          25.7150   36.1610   23.4570 N.am      4 SEP2        0.0000 
     44 CA         28.0170   35.2310   30.6610 C.3       3 GLC5        0.0000 
     45 CA         27.7700   33.7750   29.5010 C.3       9 GLL5        0.0000 
     46 CA         28.2640   36.6870   31.8210 C.3       6 GLP5        0.0000 
     47 CA         26.5680   32.2350   29.8850 C.3       3 GLC5        0.0000 
     48 NZ         28.3175   37.1090   26.2965 N.4       2 LYC4        0.0000 
     49 NZ         27.7730   36.8310   27.8070 N.4       8 LYL4        0.0000 
     50 N          27.4030   37.7130   28.8155 N.am      1 SEC2        0.0000 
     51 N          27.7730   36.8310   27.8070 N.am      7 SEL2        0.0000 
     52 N          27.0330   38.5950   29.8240 N.am      4 SEP2        0.0000 
     53 N          28.7225   37.0340   28.8700 N.am      1 SEC2        0.0000 
     54 N          29.6720   37.2370   29.9330 N.am      4 SEP2        0.0000 
     55 N          28.9735   37.5835   27.0875 N.am      1 SEC2        0.0000 
     56 N          30.1740   38.3360   26.3680 N.am      4 SEP2        0.0000 
     57 N          28.3175   37.1090   26.2965 N.am      1 SEC2        0.0000 
     58 N          25.4550   36.8400   27.6945 N.am      1 SEC2        0.0000 
     59 N          25.9190   35.4960   27.4740 N.am      7 SEL2        0.0000 
     60 N          24.9910   38.1840   27.9150 N.am      4 SEP2        0.0000 
     61 N          25.4280   35.7760   28.6145 N.am      1 SEC2        0.0000 
     62 N          24.9370   36.0560   29.7550 N.am      4 SEP2        0.0000 
     63 N          25.9610   31.3880   27.8810 N.am      1 SEC2        0.0000 
     64 N          26.3620   32.3520   26.9140 N.am      7 SEL2        0.0000 
     65 N          25.5600   30.4240   28.8480 N.am      4 SEP2        0.0000 
     66 CA         35.1300   26.9341   30.4584 C.3       3 GLC5        0.0000 
     67 CA         33.6440   27.7830   31.8360 C.3       9 GLL5        0.0000 
     68 CA         28.4712   28.3595   31.3208 C.3       3 GLC5        0.0000 
     69 CA         29.8520   28.8270   29.9770 C.3       9 GLL5        0.0000 
     70 CA         27.2000   27.2500   32.2820 C.3       6 GLP5        0.0000 
     71 CA         30.1472   27.4135   28.6397 C.3       3 GLC5        0.0000 
     72 CA         30.7260   25.8240   27.9570 C.3       6 GLP5        0.0000 
     73 CA         38.9765   24.0880   32.7435 C.3       3 GLC5        0.0000 
     74 CA         39.2840   21.9540   32.7780 C.3       6 GLP5        0.0000 
@<TRIPOS>BOND
@<TRIPOS>SUBSTRUCTURE
     1 SEC2       18 GROUP        1 X    SEC  0     ROOT SEC X 2
     2 LYC4       36 GROUP        1 X    LYC  0     **** LYC X 4
     3 GLC5        1 GROUP        1 X    GLC  0     **** GLC X 6
     4 SEP2       20 GROUP        1 Y    SEP  0     ROOT SEP Y 9
     5 LYP4       38 GROUP        1 Y    LYP  0     **** LYP Y 11
     6 GLP5        3 GROUP        1 Y    GLP  0     **** GLP Y 13
     7 SEL2       19 GROUP        1 Z    SEL  0     ROOT SEL Z 16
     8 LYL4       37 GROUP        1 Z    LYL  0     **** LYL Z 18
     9 GLL5        2 GROUP        1 Z    GLL  0     **** GLL Z 20
@<TRIPOS>SET

