#    Name: 3aaq_ARU_1_ligand
#    Modification time : Mon Apr  7 19:01:37 2014

@<TRIPOS>MOLECULE
3aaq_ARU_1_ligand
   57    59     1     0     0
SMALL
NO_CHARGES


@<TRIPOS>ATOM
      1 N1         35.3140   25.8890   32.6230 N.ar      1 ARU1        0.0000 
      2 C2         34.0220   25.7170   32.6470 C.ar      1 ARU1        0.0000 
      3 N3         33.1840   26.6220   32.2680 N.ar      1 ARU1        0.0000 
      4 C4         33.6440   27.7830   31.8360 C.ar      1 ARU1        0.0000 
      5 C5         34.9900   28.0300   31.8010 C.ar      1 ARU1        0.0000 
      6 C6         35.8430   27.0340   32.2190 C.ar      1 ARU1        0.0000 
      7 N6         37.1500   27.1810   32.2020 N.3       1 ARU1        0.0000 
      8 N7         35.1490   29.2470   31.3380 N.2       1 ARU1        0.0000 
      9 C8         33.9480   29.7430   31.1090 C.2       1 ARU1        0.0000 
     10 N9         33.0320   28.8490   31.4130 N.pl3     1 ARU1        0.0000 
     11 C1'        31.6010   28.9560   31.2930 C.3       1 ARU1        0.0000 
     12 C2'        30.9810   30.3220   31.4030 C.3       1 ARU1        0.0000 
     13 O2'        30.8570   30.7030   32.7310 O.3       1 ARU1        0.0000 
     14 C3'        29.6330   30.1110   30.7420 C.3       1 ARU1        0.0000 
     15 O3'        28.6010   29.8920   31.6860 O.3       1 ARU1        0.0000 
     16 C4'        29.8520   28.8270   29.9770 C.3       1 ARU1        0.0000 
     17 O4'        31.2570   28.6560   29.9660 O.3       1 ARU1        0.0000 
     18 C5'        29.2850   29.1790   28.6680 C.3       1 ARU1        0.0000 
     19 O5'        30.2360   29.8450   28.0060 O.3       1 ARU1        0.0000 
     20 CAA        37.7680   28.7510   30.4740 C.3       1 ARU1        0.0000 
     21 CAB        37.7410   28.4930   31.9600 C.3       1 ARU1        0.0000 
     22 CAD        38.0140   26.0220   32.3780 C.3       1 ARU1        0.0000 
     23 CAE        39.3240   26.4220   33.0400 C.3       1 ARU1        0.0000 
     24 OAF        27.4530   35.8250   25.7750 O.co2     1 ARU1        0.0000 
     25 BRAG       27.7700   33.7750   29.5010 Br        1 ARU1        0.0000 
     26 OAH        28.0770   32.8980   25.4370 O.co2     1 ARU1        0.0000 
     27 OAI        31.0640   31.5270   26.5360 O.co2     1 ARU1        0.0000 
     28 OAJ        27.7730   36.8310   27.8070 O.co2     1 ARU1        0.0000 
     29 PAK        27.2550   35.7550   27.1390 P.3       1 ARU1        0.0000 
     30 CAL        28.1780   34.2130   27.7110 C.3       1 ARU1        0.0000 
     31 PAM        27.7120   32.6580   26.7770 P.3       1 ARU1        0.0000 
     32 OAN        28.5940   31.6460   27.5230 O.3       1 ARU1        0.0000 
     33 PAO        29.8700   30.8620   26.9250 P.3       1 ARU1        0.0000 
     34 OAV        25.9190   35.4960   27.4740 O.co2     1 ARU1        0.0000 
     35 BRAW       30.0770   34.6190   27.5150 Br        1 ARU1        0.0000 
     36 OAX        26.3620   32.3520   26.9140 O.co2     1 ARU1        0.0000 
     37 OAY        29.2110   29.9860   25.8300 O.co2     1 ARU1        0.0000 
     38 H          33.6409   24.7710   33.0016 H         1 ARU1        0.0000 
     39 H          33.7665   30.6485   30.7619 H         1 ARU1        0.0000 
     40 H          31.0756   28.2924   31.9481 H         1 ARU1        0.0000 
     41 H          31.5434   30.9882   30.7945 H         1 ARU1        0.0000 
     42 H          29.4527   30.8817   30.0592 H         1 ARU1        0.0000 
     43 H          29.3180   28.0753   30.4447 H         1 ARU1        0.0000 
     44 H          28.3731   29.7726   28.8406 H         1 ARU1        0.0000 
     45 H          28.9746   28.2468   28.1697 H         1 ARU1        0.0000 
     46 H          38.7616   28.5348   32.3429 H         1 ARU1        0.0000 
     47 H          37.1554   29.2767   32.4425 H         1 ARU1        0.0000 
     48 H          38.2451   25.5561   31.4117 H         1 ARU1        0.0000 
     49 H          37.5286   25.2641   33.0059 H         1 ARU1        0.0000 
     50 H          38.1701   29.6410   30.2588 H         1 ARU1        0.0000 
     51 H          38.3043   28.0616   29.9870 H         1 ARU1        0.0000 
     52 H          36.8496   28.7410   30.0786 H         1 ARU1        0.0000 
     53 H          39.9295   25.6368   33.1697 H         1 ARU1        0.0000 
     54 H          39.8264   27.0925   32.4941 H         1 ARU1        0.0000 
     55 H          39.1755   26.8296   33.9410 H         1 ARU1        0.0000 
     56 H          30.6992   31.6901   32.7033 H         1 ARU1        0.0000 
     57 H          29.0486   29.9557   32.5780 H         1 ARU1        0.0000 
@<TRIPOS>BOND
     1    2    1 ar   
     2    6    1 ar   
     3    3    2 ar   
     4   38    2 1    
     5    4    3 ar   
     6    5    4 ar   
     7   10    4 1    
     8    6    5 ar   
     9    8    5 1    
    10    7    6 1    
    11   21    7 1    
    12   22    7 1    
    13    9    8 2    
    14   10    9 1    
    15   39    9 1    
    16   11   10 1    
    17   12   11 1    
    18   17   11 1    
    19   40   11 1    
    20   13   12 1    
    21   14   12 1    
    22   41   12 1    
    23   56   13 1    
    24   15   14 1    
    25   16   14 1    
    26   42   14 1    
    27   57   15 1    
    28   17   16 1    
    29   18   16 1    
    30   43   16 1    
    31   19   18 1    
    32   44   18 1    
    33   45   18 1    
    34   33   19 1    
    35   21   20 1    
    36   50   20 1    
    37   51   20 1    
    38   52   20 1    
    39   46   21 1    
    40   47   21 1    
    41   23   22 1    
    42   48   22 1    
    43   49   22 1    
    44   53   23 1    
    45   54   23 1    
    46   55   23 1    
    47   29   24 ar   
    48   30   25 1    
    49   31   26 ar   
    50   33   27 ar   
    51   29   28 ar   
    52   30   29 1    
    53   34   29 ar   
    54   31   30 1    
    55   35   30 1    
    56   32   31 1    
    57   36   31 ar   
    58   33   32 1    
    59   37   33 ar   
@<TRIPOS>SUBSTRUCTURE
     1 ARU1        1 GROUP   
@<TRIPOS>SET

