#    Name: 3LK8_1_CAVITY_N1_6.mol2
#    Modification time : Tue Mar 11 11:37:18 2014

@<TRIPOS>MOLECULE
3LK8_1_CAVITY_N1_6.mol2
   81     0     6     0     0
SMALL
NO_CHARGES


@<TRIPOS>ATOM
      1 N           3.3453   -6.0182    1.2721 N.2       1 ALA2        0.0000 
      2 N           2.9626   -8.8225    3.0721 N.2       1 ALA2        0.0000 
      3 O           2.5799  -11.6267    4.8720 O.2       1 ALA2        0.0000 
      4 O           2.0685  -10.4132    4.1538 O.2       1 ALA2        0.0000 
      5 N           0.6629  -10.7905    4.5173 N.2       1 ALA2        0.0000 
      6 CA         -0.8714   -7.1499    2.3626 C.3       5 GLY6        0.0000 
      7 CA          2.9473   -4.0078    1.8196 C.3       5 GLY6        0.0000 
      8 N           2.0532   -5.5985    2.9014 N.2       1 ALA2        0.0000 
      9 DU          1.5417   -4.3850    2.1831 H         6 CUB7        0.0000 
     10 CA          2.1819   -9.6163    5.4195 C.3       5 GLY6        0.0000 
     11 CA          1.6705   -8.4028    4.7013 C.3       5 GLY6        0.0000 
     12 N           1.1590   -7.1893    3.9831 N.2       1 ALA2        0.0000 
     13 CA          0.6476   -5.9758    3.2648 C.3       5 GLY6        0.0000 
     14 CA          0.1362   -4.7623    2.5466 C.3       5 GLY6        0.0000 
     15 CA         -0.3753   -3.5488    1.8284 C.3       5 GLY6        0.0000 
     16 N          10.3460   -9.3602    6.3042 N.2       1 ALA2        0.0000 
     17 O           9.4519  -10.9509    7.3859 O.2       1 ALA2        0.0000 
     18 N           3.5721   -4.4244    3.8036 N.2       1 ALA2        0.0000 
     19 OD1         3.0607   -3.2109    3.0854 O.3       2 ASP3        0.0000 
     20 N           2.5493   -1.9974    2.3671 N.2       1 ALA2        0.0000 
     21 N           3.1895   -7.2286    5.6035 N.2       1 ALA2        0.0000 
     22 N           2.6780   -6.0151    4.8853 N.2       1 ALA2        0.0000 
     23 N           2.1666   -4.8016    4.1671 N.2       1 ALA2        0.0000 
     24 OD1         1.6552   -3.5881    3.4488 O.3       2 ASP3        0.0000 
     25 DU          1.1437   -2.3746    2.7306 H         6 CUB7        0.0000 
     26 CA          1.7839   -7.6059    5.9670 C.3       5 GLY6        0.0000 
     27 O           1.2725   -6.3923    5.2488 O.2       1 ALA2        0.0000 
     28 N           0.7610   -5.1788    4.5306 N.2       1 ALA2        0.0000 
     29 N           0.2496   -3.9653    3.8123 N.2       1 ALA2        0.0000 
     30 CA         -0.2618   -2.7518    3.0941 C.3       5 GLY6        0.0000 
     31 N          10.9708   -9.7767    8.2881 N.2       1 ALA2        0.0000 
     32 N          10.4594   -8.5632    7.5699 N.2       1 ALA2        0.0000 
     33 N           9.5653  -10.1540    8.6516 N.2       1 ALA2        0.0000 
     34 N           9.0539   -8.9405    7.9334 N.2       1 ALA2        0.0000 
     35 N           8.5424   -7.7270    7.2152 N.2       1 ALA2        0.0000 
     36 O           7.6483   -9.3177    8.2969 O.2       1 ALA2        0.0000 
     37 N           7.1369   -8.1042    7.5787 N.2       1 ALA2        0.0000 
     38 N           6.6254   -6.8907    6.8605 N.2       1 ALA2        0.0000 
     39 CA          5.2199   -7.2679    7.2239 C.3       5 GLY6        0.0000 
     40 O           4.7085   -6.0544    6.5057 O.2       1 ALA2        0.0000 
     41 N           4.1970   -4.8409    5.7875 N.2       1 ALA2        0.0000 
     42 CA          3.8143   -7.6452    7.5874 C.3       5 GLY6        0.0000 
     43 DU          3.3029   -6.4317    6.8692 H         6 CUB7        0.0000 
     44 N           2.7915   -5.2182    6.1510 N.2       1 ALA2        0.0000 
     45 OD1         2.2800   -4.0047    5.4328 O.3       2 ASP3        0.0000 
     46 OD1         1.7686   -2.7912    4.7146 O.3       2 ASP3        0.0000 
     47 OD1         1.2572   -1.5777    3.9963 O.3       2 ASP3        0.0000 
     48 CA          1.8974   -6.8089    7.2327 C.3       5 GLY6        0.0000 
     49 N           1.3859   -5.5954    6.5145 N.2       1 ALA2        0.0000 
     50 N           0.8745   -4.3819    5.7963 N.2       1 ALA2        0.0000 
     51 N          11.0843   -8.9798    9.5538 N.2       1 ALA2        0.0000 
     52 CA         10.5728   -7.7663    8.8356 C.3       5 GLY6        0.0000 
     53 N           9.6787   -9.3571    9.9173 N.2       1 ALA2        0.0000 
     54 N           9.1673   -8.1435    9.1991 N.2       1 ALA2        0.0000 
     55 N           8.2732   -9.7343   10.2808 N.2       1 ALA2        0.0000 
     56 O           7.7618   -8.5208    9.5626 O.2       1 ALA2        0.0000 
     57 N           7.2503   -7.3073    8.8444 N.2       1 ALA2        0.0000 
     58 O           6.7389   -6.0938    8.1262 O.2       1 ALA2        0.0000 
     59 CZ          6.3562   -8.8980    9.9261 C.ar      4 PHE5        0.0000 
     60 CZ          5.8448   -7.6845    9.2079 C.ar      4 PHE5        0.0000 
     61 O           5.3333   -6.4710    8.4897 O.2       1 ALA2        0.0000 
     62 CA          4.8219   -5.2575    7.7714 C.3       5 GLY6        0.0000 
     63 CZ          3.9278   -6.8483    8.8532 C.ar      4 PHE5        0.0000 
     64 NZ          3.4163   -5.6348    8.1349 N.2       3 LYS4        0.0000 
     65 NZ          2.9049   -4.4212    7.4167 N.2       3 LYS4        0.0000 
     66 CA          2.5222   -7.2255    9.2166 C.3       5 GLY6        0.0000 
     67 CA          2.0108   -6.0120    8.4984 C.3       5 GLY6        0.0000 
     68 NZ          1.4994   -4.7985    7.7802 N.2       3 LYS4        0.0000 
     69 CA         11.1977   -8.1829   10.8196 C.3       5 GLY6        0.0000 
     70 CA         10.3036   -9.7736   11.9013 C.3       5 GLY6        0.0000 
     71 CA          9.7922   -8.5601   11.1830 C.3       5 GLY6        0.0000 
     72 CA          9.2807   -7.3466   10.4648 C.3       5 GLY6        0.0000 
     73 CA          8.3866   -8.9374   11.5465 C.3       5 GLY6        0.0000 
     74 N           7.8752   -7.7239   10.8283 N.2       1 ALA2        0.0000 
     75 N           7.3638   -6.5104   10.1101 N.2       1 ALA2        0.0000 
     76 N           6.4696   -8.1011   11.1918 N.2       1 ALA2        0.0000 
     77 N           5.9582   -6.8876   10.4736 N.2       1 ALA2        0.0000 
     78 CA          5.4468   -5.6741    9.7554 C.3       5 GLY6        0.0000 
     79 CA          4.5527   -7.2648   10.8371 C.3       5 GLY6        0.0000 
     80 CA          4.0412   -6.0513   10.1189 C.3       5 GLY6        0.0000 
     81 CA          3.5298   -4.8378    9.4006 C.3       5 GLY6        0.0000 
@<TRIPOS>BOND
@<TRIPOS>SUBSTRUCTURE
     1 ALA2        1 GROUP   
     2 ASP3       19 GROUP   
     3 LYS4       64 GROUP   
     4 PHE5       59 GROUP   
     5 GLY6        6 GROUP   
     6 CUB7        9 GROUP   
@<TRIPOS>SET

