#    Name: 3lk8_Z79_1_INTS_M
#    Modification time : Mon Mar 24 21:44:31 2014

@<TRIPOS>MOLECULE
3lk8_Z79_1_INTS_M
   51     0    12     0     0
SMALL
NO_CHARGES


@<TRIPOS>ATOM
      1 Zn          3.7890   -2.3095    4.5560 Zn        3 ZIC7        0.0000 
      2 Zn          3.2440   -3.0610    4.0450 Zn       11 ZIL7        0.0000 
      3 Zn          4.3340   -1.5580    5.0670 Zn        7 ZIP7        0.0000 
      4 O           0.3065   -2.5505    5.9625 O.2       1 ALC1        0.0000 
      5 O           1.5060   -2.3710    5.3080 O.2       9 ALL1        0.0000 
      6 O          -0.8930   -2.7300    6.6170 O.2       5 ALP1        0.0000 
      7 Zn          3.3200   -1.5350    5.5555 Zn        3 ZIC7        0.0000 
      8 Zn          2.3060   -1.5120    6.0440 Zn       11 ZIL7        0.0000 
      9 O           2.2105   -1.8320    7.2660 O.2       1 ALC1        0.0000 
     10 O           2.3060   -1.5120    6.0440 O.2       9 ALL1        0.0000 
     11 O           2.1150   -2.1520    8.4880 O.2       5 ALP1        0.0000 
     12 O           1.8620   -0.8070    7.4400 O.2       1 ALC1        0.0000 
     13 O           1.4180   -0.1020    8.8360 O.2       5 ALP1        0.0000 
     14 CA         -0.6115   -4.5775    2.6135 C.3       4 GLC5        0.0000 
     15 CA          1.1460   -4.1060    3.6320 C.3      12 GLL5        0.0000 
     16 CA         -2.3690   -5.0490    1.5950 C.3       8 GLP5        0.0000 
     17 Zn          3.0075   -3.5030    4.3810 Zn        3 ZIC7        0.0000 
     18 Zn          1.6810   -5.4480    3.6950 Zn       11 ZIL7        0.0000 
     19 N          -1.0255   -6.4320    5.9465 N.am      2 SEC2        0.0000 
     20 N           0.1810   -5.9000    5.5650 N.am     10 SEL2        0.0000 
     21 N          -2.2320   -6.9640    6.3280 N.am      6 SEP2        0.0000 
     22 N          -0.9005   -5.3100    6.7785 N.am      2 SEC2        0.0000 
     23 N          -1.9820   -4.7200    7.9920 N.am      6 SEP2        0.0000 
     24 CA          0.6260   -6.5475    7.7925 C.3       4 GLC5        0.0000 
     25 CA          2.3120   -5.3360    7.2560 C.3      12 GLL5        0.0000 
     26 CA         -1.0600   -7.7590    8.3290 C.3       8 GLP5        0.0000 
     27 CA          5.0470   -6.2800   11.1180 C.3       4 GLC5        0.0000 
     28 CA          6.3280   -6.7880    9.5380 C.3      12 GLL5        0.0000 
     29 CA          3.7660   -5.7720   12.6980 C.3       8 GLP5        0.0000 
     30 CA          6.4095   -5.0300    9.7050 C.3       4 GLC5        0.0000 
     31 CA          6.4910   -3.2720    9.8720 C.3       8 GLP5        0.0000 
     32 CA          5.2175   -8.5640    9.8330 C.3       4 GLC5        0.0000 
     33 CA          4.1070  -10.3400   10.1280 C.3       8 GLP5        0.0000 
     34 CA          5.0235   -8.6760    7.1015 C.3       4 GLC5        0.0000 
     35 CA          4.6550   -6.8330    7.2040 C.3      12 GLL5        0.0000 
     36 CA          5.3920  -10.5190    6.9990 C.3       8 GLP5        0.0000 
     37 CA          5.0025   -8.1500    4.8190 C.3       4 GLC5        0.0000 
     38 CA          3.7430   -6.9330    6.1500 C.3      12 GLL5        0.0000 
     39 CA          6.2620   -9.3670    3.4880 C.3       8 GLP5        0.0000 
     40 CA          3.8655   -8.7600    6.8805 C.3       4 GLC5        0.0000 
     41 CA          3.9880  -10.5870    7.6110 C.3       8 GLP5        0.0000 
     42 CA          1.9098   -8.0412    7.1223 C.3       4 GLC5        0.0000 
     43 CA          0.6640   -9.5270    8.0890 C.3       8 GLP5        0.0000 
     44 CA          4.0385   -3.8120    7.7643 C.3       4 GLC5        0.0000 
     45 CA          3.2220   -5.2360    8.3110 C.3      12 GLL5        0.0000 
     46 CA          5.3100   -2.3380    7.7450 C.3       8 GLP5        0.0000 
     47 CA          2.5463   -5.5998    9.7996 C.3       4 GLC5        0.0000 
     48 CA          4.3940   -5.9730    8.2850 C.3      12 GLL5        0.0000 
     49 CA          1.5120   -5.5700   11.5650 C.3       8 GLP5        0.0000 
     50 CA          5.3937   -4.7205    8.0753 C.3       4 GLC5        0.0000 
     51 CA          6.2630   -3.0380    8.4060 C.3       8 GLP5        0.0000 
@<TRIPOS>BOND
@<TRIPOS>SUBSTRUCTURE
     1 ALC1        4 GROUP        1 X    ALC  0     ROOT ALC X 1
     2 SEC2       19 GROUP        1 X    SEC  0     **** SEC X 2
     3 ZIC7        1 GROUP        1 X    ZIC  0     **** ZIC X 5
     4 GLC5       14 GROUP        1 X    GLC  0     **** GLC X 6
     5 ALP1        6 GROUP        1 Y    ALP  0     ROOT ALP Y 8
     6 SEP2       21 GROUP        1 Y    SEP  0     **** SEP Y 9
     7 ZIP7        3 GROUP        1 Y    ZIP  0     **** ZIP Y 12
     8 GLP5       16 GROUP        1 Y    GLP  0     **** GLP Y 13
     9 ALL1        5 GROUP        1 Z    ALL  0     ROOT ALL Z 15
    10 SEL2       20 GROUP        1 Z    SEL  0     **** SEL Z 16
    11 ZIL7        2 GROUP        1 Z    ZIL  0     **** ZIL Z 19
    12 GLL5       15 GROUP        1 Z    GLL  0     **** GLL Z 20
@<TRIPOS>SET

