#    Name: 3lk8_Z79_1_ligand
#    Modification time : Mon Mar 24 21:44:32 2014

@<TRIPOS>MOLECULE
3lk8_Z79_1_ligand
   29    29     1     0     0
SMALL
NO_CHARGES


@<TRIPOS>ATOM
      1 O4          3.2440   -3.0610    4.0450 O.2       1 Z790        0.0000 
      2 C8          2.0610   -3.1300    4.3500 C.2       1 Z790        0.0000 
      3 N2          1.5060   -2.3710    5.3080 N.am      1 Z790        0.0000 
      4 O5          2.3060   -1.5120    6.0440 O.3       1 Z790        0.0000 
      5 C7          1.1460   -4.1060    3.6320 C.3       1 Z790        0.0000 
      6 N1          1.6810   -5.4480    3.6950 N.pl3     1 Z790        0.0000 
      7 S1          1.4570   -6.3220    5.0030 S.o2      1 Z790        0.0000 
      8 O1          0.1810   -5.9000    5.5650 O.2       1 Z790        0.0000 
      9 O2          1.3840   -7.7240    4.6820 O.2       1 Z790        0.0000 
     10 C3          2.5680   -6.1780    6.1610 C.ar      1 Z790        0.0000 
     11 C6          2.3120   -5.3360    7.2560 C.ar      1 Z790        0.0000 
     12 C5          3.2220   -5.2360    8.3110 C.ar      1 Z790        0.0000 
     13 C4          4.3940   -5.9730    8.2850 C.ar      1 Z790        0.0000 
     14 O3          5.2670   -5.8580    9.3380 O.3       1 Z790        0.0000 
     15 C9          6.3280   -6.7880    9.5380 C.3       1 Z790        0.0000 
     16 C2          4.6550   -6.8330    7.2040 C.ar      1 Z790        0.0000 
     17 C1          3.7430   -6.9330    6.1500 C.ar      1 Z790        0.0000 
     18 H           0.4935   -2.4126    5.5098 H         1 Z790        0.0000 
     19 H           1.0379   -3.7721    2.5909 H         1 Z790        0.0000 
     20 H           0.1537   -4.0537    4.1005 H         1 Z790        0.0000 
     21 H           2.1889   -5.8736    2.9662 H         1 Z790        0.0000 
     22 H           1.4402   -4.7862    7.2780 H         1 Z790        0.0000 
     23 H           3.0169   -4.6144    9.1034 H         1 Z790        0.0000 
     24 H           5.5183   -7.3870    7.1924 H         1 Z790        0.0000 
     25 H           3.9381   -7.5653    5.3630 H         1 Z790        0.0000 
     26 H           6.9545   -6.8099    8.7589 H         1 Z790        0.0000 
     27 H           6.8726   -6.5621   10.3457 H         1 Z790        0.0000 
     28 H           5.9865   -7.7192    9.6658 H         1 Z790        0.0000 
     29 H           1.8343   -1.4054    6.9192 H         1 Z790        0.0000 
@<TRIPOS>BOND
     1    2    1 2    
     2    3    2 am   
     3    5    2 1    
     4    4    3 1    
     5   18    3 1    
     6   29    4 1    
     7    6    5 1    
     8   19    5 1    
     9   20    5 1    
    10    7    6 1    
    11   21    6 1    
    12    8    7 2    
    13    9    7 2    
    14   10    7 1    
    15   11   10 ar   
    16   17   10 ar   
    17   12   11 ar   
    18   22   11 1    
    19   13   12 ar   
    20   23   12 1    
    21   14   13 1    
    22   16   13 ar   
    23   15   14 1    
    24   26   15 1    
    25   27   15 1    
    26   28   15 1    
    27   17   16 ar   
    28   24   16 1    
    29   25   17 1    
@<TRIPOS>SUBSTRUCTURE
     1 Z790        1 GROUP   
@<TRIPOS>SET

