#    Name: 2bto_GTP_1_INTS_M
#    Modification time : Mon Mar 24 21:40:39 2014

@<TRIPOS>MOLECULE
2bto_GTP_1_INTS_M
   66     0    12     0     0
SMALL
NO_CHARGES


@<TRIPOS>ATOM
      1 N          85.1610  -12.0295   -3.4815 N.am      2 SEC2        0.0000 
      2 N          84.2320  -12.7840   -2.3630 N.am     10 SEL2        0.0000 
      3 N          86.0900  -11.2750   -4.6000 N.am      6 SEP2        0.0000 
      4 N          83.5155  -11.5430   -2.3615 N.am      2 SEC2        0.0000 
      5 N          82.7990  -10.3020   -2.3600 N.am      6 SEP2        0.0000 
      6 NZ         82.7960  -15.2310   -1.5295 N.4       3 LYC4        0.0000 
      7 NZ         83.6650  -15.1050   -2.5940 N.4      11 LYL4        0.0000 
      8 NZ         81.1960  -16.2780   -1.0930 N.4       7 LYP4        0.0000 
      9 N          82.7960  -15.2310   -1.5295 N.am      2 SEC2        0.0000 
     10 N          83.6650  -15.1050   -2.5940 N.am     10 SEL2        0.0000 
     11 N          81.9270  -15.3570   -0.4650 N.am      6 SEP2        0.0000 
     12 N          82.5390  -15.8300   -2.4875 N.am      2 SEC2        0.0000 
     13 N          81.4130  -16.5550   -2.3810 N.am      6 SEP2        0.0000 
     14 N          83.2460  -14.1300   -5.7030 N.am      2 SEC2        0.0000 
     15 N          83.4330  -13.7270   -4.5300 N.am     10 SEL2        0.0000 
     16 N          83.0590  -14.5330   -6.8760 N.am      6 SEP2        0.0000 
     17 N          84.2540  -13.1680   -5.6995 N.am      2 SEC2        0.0000 
     18 N          85.0750  -12.6090   -6.8690 N.am      6 SEP2        0.0000 
     19 N          81.7435  -13.8720   -4.1590 N.am      2 SEC2        0.0000 
     20 N          80.0540  -14.0170   -3.7880 N.am      6 SEP2        0.0000 
     21 N          85.9650  -12.7600   -4.1540 N.am      2 SEC2        0.0000 
     22 N          85.8400  -14.2450   -3.7080 N.am     10 SEL2        0.0000 
     23 N          88.8855  -15.4190   -4.1200 N.am      2 SEC2        0.0000 
     24 N          87.6880  -15.2160   -5.3040 N.am     10 SEL2        0.0000 
     25 N          90.0830  -15.6220   -2.9360 N.am      6 SEP2        0.0000 
     26 N          87.6905  -14.3470   -6.6290 N.am      2 SEC2        0.0000 
     27 N          87.6930  -13.4780   -7.9540 N.am      6 SEP2        0.0000 
     28 N          85.2625  -13.9635   -6.3820 N.am      2 SEC2        0.0000 
     29 N          85.4500  -15.3180   -5.8950 N.am     10 SEL2        0.0000 
     30 N          87.3750  -19.1415   -1.5445 N.am      2 SEC2        0.0000 
     31 N          87.1900  -18.9000   -3.0850 N.am     10 SEL2        0.0000 
     32 N          87.5600  -19.3830   -0.0040 N.am      6 SEP2        0.0000 
     33 N          89.6800  -18.0710   -4.1495 N.am      2 SEC2        0.0000 
     34 N          88.3990  -17.7110   -4.9120 N.am     10 SEL2        0.0000 
     35 N          90.9610  -18.4310   -3.3870 N.am      6 SEP2        0.0000 
     36 CA         84.2670  -18.4715   -5.9670 C.3       4 GLC5        0.0000 
     37 CA         85.2650  -20.0110   -4.9950 C.3      12 GLL5        0.0000 
     38 CA         83.2690  -16.9320   -6.9390 C.3       8 GLP5        0.0000 
     39 CA         87.1505  -20.5230   -6.7980 C.3       4 GLC5        0.0000 
     40 CA         85.5340  -21.3040   -5.7830 C.3      12 GLL5        0.0000 
     41 CA         88.7670  -19.7420   -7.8130 C.3       8 GLP5        0.0000 
     42 CA         84.5370  -20.5960   -7.5625 C.3       4 GLC5        0.0000 
     43 CA         83.5400  -19.8880   -9.3420 C.3       8 GLP5        0.0000 
     44 O          82.8620  -22.8240   -5.9235 O.2       1 ALC1        0.0000 
     45 O          84.2980  -23.2720   -6.3020 O.2       9 ALL1        0.0000 
     46 O          81.4260  -22.3760   -5.5450 O.2       5 ALP1        0.0000 
     47 N          92.1750  -21.7075   -0.8710 N.am      2 SEC2        0.0000 
     48 N          92.2090  -22.5320   -2.0920 N.am     10 SEL2        0.0000 
     49 N          92.1410  -20.8830    0.3500 N.am      6 SEP2        0.0000 
     50 N          93.4935  -23.1565   -1.8255 N.am      2 SEC2        0.0000 
     51 N          94.7780  -23.7810   -1.5590 N.am      6 SEP2        0.0000 
     52 O          93.1705  -24.2060   -3.7700 O.2       1 ALC1        0.0000 
     53 O          91.9880  -23.9030   -3.9010 O.2       9 ALL1        0.0000 
     54 O          94.3530  -24.5090   -3.6390 O.2       5 ALP1        0.0000 
     55 O          90.7120  -26.0950   -6.4765 O.2       1 ALC1        0.0000 
     56 O          91.7090  -25.2820   -5.7570 O.2       9 ALL1        0.0000 
     57 O          89.7150  -26.9080   -7.1960 O.2       5 ALP1        0.0000 
     58 O          93.0310  -24.8955   -4.6980 O.2       1 ALC1        0.0000 
     59 N          88.8340  -25.0445   -5.7020 N.am      2 SEC2        0.0000 
     60 N          89.8740  -24.0330   -4.9930 N.am     10 SEL2        0.0000 
     61 N          87.7940  -26.0560   -6.4110 N.am      6 SEP2        0.0000 
     62 CA         90.3217  -21.5378   -4.3180 C.3       4 GLC5        0.0000 
     63 CA         90.1420  -22.6150   -3.0710 C.3      12 GLL5        0.0000 
     64 CA         90.8900  -20.1920   -5.0520 C.3       8 GLP5        0.0000 
     65 CA         90.5168  -23.9427   -2.1245 C.3       4 GLC5        0.0000 
     66 CA         91.2800  -25.0020   -0.6650 C.3       8 GLP5        0.0000 
@<TRIPOS>BOND
@<TRIPOS>SUBSTRUCTURE
     1 ALC1       44 GROUP        1 X    ALC  0     ROOT ALC X 1
     2 SEC2        1 GROUP        1 X    SEC  0     **** SEC X 2
     3 LYC4        6 GROUP        1 X    LYC  0     **** LYC X 4
     4 GLC5       36 GROUP        1 X    GLC  0     **** GLC X 6
     5 ALP1       46 GROUP        1 Y    ALP  0     ROOT ALP Y 8
     6 SEP2        3 GROUP        1 Y    SEP  0     **** SEP Y 9
     7 LYP4        8 GROUP        1 Y    LYP  0     **** LYP Y 11
     8 GLP5       38 GROUP        1 Y    GLP  0     **** GLP Y 13
     9 ALL1       45 GROUP        1 Z    ALL  0     ROOT ALL Z 15
    10 SEL2        2 GROUP        1 Z    SEL  0     **** SEL Z 16
    11 LYL4        7 GROUP        1 Z    LYL  0     **** LYL Z 18
    12 GLL5       37 GROUP        1 Z    GLL  0     **** GLL Z 20
@<TRIPOS>SET

