#    Name: 2bto_GTP_1_ligand
#    Modification time : Mon Mar 24 21:40:39 2014

@<TRIPOS>MOLECULE
2bto_GTP_1_ligand
   44    46     1     0     0
SMALL
NO_CHARGES


@<TRIPOS>ATOM
      1 PG         84.2840  -13.9430   -3.3320 P.3       1 GTP1433     0.0000 
      2 O1G        84.2320  -12.7840   -2.3630 O.co2     1 GTP1433     0.0000 
      3 O2G        83.6650  -15.1050   -2.5940 O.co2     1 GTP1433     0.0000 
      4 O3G        83.4330  -13.7270   -4.5300 O.co2     1 GTP1433     0.0000 
      5 O3B        85.8400  -14.2450   -3.7080 O.3       1 GTP1433     0.0000 
      6 PB         86.3370  -15.3930   -4.7100 P.3       1 GTP1433     0.0000 
      7 O1B        87.6880  -15.2160   -5.3040 O.co2     1 GTP1433     0.0000 
      8 O2B        85.4500  -15.3180   -5.8950 O.co2     1 GTP1433     0.0000 
      9 O3A        86.1230  -16.8010   -4.0030 O.3       1 GTP1433     0.0000 
     10 PA         87.0330  -18.0970   -4.3580 P.3       1 GTP1433     0.0000 
     11 O1A        87.1900  -18.9000   -3.0850 O.co2     1 GTP1433     0.0000 
     12 O2A        88.3990  -17.7110   -4.9120 O.co2     1 GTP1433     0.0000 
     13 O5'        86.1270  -18.9530   -5.3980 O.3       1 GTP1433     0.0000 
     14 C5'        85.2650  -20.0110   -4.9950 C.3       1 GTP1433     0.0000 
     15 C4'        85.5340  -21.3040   -5.7830 C.3       1 GTP1433     0.0000 
     16 O4'        86.8880  -21.7290   -5.7010 O.3       1 GTP1433     0.0000 
     17 C3'        84.7190  -22.4640   -5.2270 C.3       1 GTP1433     0.0000 
     18 O3'        84.2980  -23.2720   -6.3020 O.3       1 GTP1433     0.0000 
     19 C2'        85.6690  -23.2400   -4.3270 C.3       1 GTP1433     0.0000 
     20 O2'        85.4630  -24.6210   -4.4560 O.3       1 GTP1433     0.0000 
     21 C1'        87.0280  -22.9130   -4.9090 C.3       1 GTP1433     0.0000 
     22 N9         88.1100  -22.6270   -3.9550 N.pl3     1 GTP1433     0.0000 
     23 C8         88.1200  -21.7640   -2.8800 C.2       1 GTP1433     0.0000 
     24 N7         89.3670  -21.7760   -2.3370 N.2       1 GTP1433     0.0000 
     25 C5         90.1420  -22.6150   -3.0710 C.2       1 GTP1433     0.0000 
     26 C6         91.4830  -22.9910   -2.9840 C.2       1 GTP1433     0.0000 
     27 O6         92.2090  -22.5320   -2.0920 O.2       1 GTP1433     0.0000 
     28 N1         91.9880  -23.9030   -3.9010 N.am      1 GTP1433     0.0000 
     29 C2         91.1920  -24.4210   -4.8980 C.2       1 GTP1433     0.0000 
     30 N2         91.7090  -25.2820   -5.7570 N.pl3     1 GTP1433     0.0000 
     31 N3         89.8740  -24.0330   -4.9930 N.2       1 GTP1433     0.0000 
     32 C4         89.3650  -23.1520   -4.0970 C.2       1 GTP1433     0.0000 
     33 H          84.2009  -19.7527   -5.1445 H         1 GTP1433     0.0000 
     34 H          85.3838  -20.2511   -3.9228 H         1 GTP1433     0.0000 
     35 H          85.2333  -21.1594   -6.8082 H         1 GTP1433     0.0000 
     36 H          83.9297  -22.0764   -4.6468 H         1 GTP1433     0.0000 
     37 H          85.6148  -22.8667   -3.3568 H         1 GTP1433     0.0000 
     38 H          87.3300  -23.7295   -5.5668 H         1 GTP1433     0.0000 
     39 H          87.3726  -21.2499   -2.5766 H         1 GTP1433     0.0000 
     40 H          92.9813  -24.1956   -3.8297 H         1 GTP1433     0.0000 
     41 H          91.0887  -25.6272   -6.4613 H         1 GTP1433     0.0000 
     42 H          92.6736  -25.5101   -5.6248 H         1 GTP1433     0.0000 
     43 H          83.3024  -23.1800   -6.3203 H         1 GTP1433     0.0000 
     44 H          85.0420  -24.7368   -5.3557 H         1 GTP1433     0.0000 
@<TRIPOS>BOND
     1    2    1 ar   
     2    3    1 ar   
     3    4    1 ar   
     4    5    1 1    
     5    6    5 1    
     6    7    6 ar   
     7    8    6 ar   
     8    9    6 1    
     9   10    9 1    
    10   11   10 ar   
    11   12   10 ar   
    12   13   10 1    
    13   14   13 1    
    14   15   14 1    
    15   33   14 1    
    16   34   14 1    
    17   16   15 1    
    18   17   15 1    
    19   35   15 1    
    20   21   16 1    
    21   18   17 1    
    22   19   17 1    
    23   36   17 1    
    24   43   18 1    
    25   20   19 1    
    26   21   19 1    
    27   37   19 1    
    28   44   20 1    
    29   22   21 1    
    30   38   21 1    
    31   23   22 1    
    32   32   22 1    
    33   24   23 2    
    34   39   23 1    
    35   25   24 1    
    36   26   25 1    
    37   32   25 2    
    38   27   26 2    
    39   28   26 am   
    40   29   28 1    
    41   40   28 1    
    42   30   29 1    
    43   31   29 2    
    44   41   30 1    
    45   42   30 1    
    46   32   31 1    
@<TRIPOS>SUBSTRUCTURE
     1 GTP1433     1 GROUP   
@<TRIPOS>SET

