#    Name: 4e4l_0NH_2_INTS_M
#    Modification time : Tue Mar 25 10:35:33 2014

@<TRIPOS>MOLECULE
4e4l_0NH_2_INTS_M
   53     0     9     0     0
SMALL
NO_CHARGES


@<TRIPOS>ATOM
      1 CA        -12.1590   33.8695  -43.8810 C.3       3 GLC5        0.0000 
      2 CA        -12.0670   33.1310  -45.9440 C.3       9 GLL5        0.0000 
      3 CA        -12.2510   34.6080  -41.8180 C.3       6 GLP5        0.0000 
      4 CA        -13.3510   33.6225  -43.4745 C.3       3 GLC5        0.0000 
      5 CA        -14.4510   32.6370  -45.1310 C.3       9 GLL5        0.0000 
      6 CA        -15.9135   32.6655  -44.2250 C.3       3 GLC5        0.0000 
      7 CA        -17.3760   32.6940  -43.3190 C.3       6 GLP5        0.0000 
      8 CA        -13.3875   30.7745  -42.5715 C.3       3 GLC5        0.0000 
      9 CA        -13.9110   31.3400  -44.5250 C.3       9 GLL5        0.0000 
     10 CA        -12.8640   30.2090  -40.6180 C.3       6 GLP5        0.0000 
     11 CA        -15.2615   31.7455  -43.3180 C.3       3 GLC5        0.0000 
     12 CA        -16.6120   32.1510  -42.1110 C.3       6 GLP5        0.0000 
     13 CA        -15.1100   34.0200  -48.3595 C.3       3 GLC5        0.0000 
     14 CA        -14.3760   35.5020  -47.1710 C.3       9 GLL5        0.0000 
     15 CA        -15.8440   32.5380  -49.5480 C.3       6 GLP5        0.0000 
     16 CA        -12.8880   29.2965  -42.5050 C.3       3 GLC5        0.0000 
     17 CA        -12.9120   28.3840  -44.3920 C.3       9 GLL5        0.0000 
     18 CA        -16.0910   29.5100  -43.6990 C.3       3 GLC5        0.0000 
     19 CA        -15.4190   28.3850  -45.3720 C.3       9 GLL5        0.0000 
     20 CA        -16.7630   30.6350  -42.0260 C.3       6 GLP5        0.0000 
     21 CA        -16.6560   25.9110  -46.8605 C.3       3 GLC5        0.0000 
     22 CA        -16.3260   27.3930  -45.4090 C.3       9 GLL5        0.0000 
     23 CA        -16.9860   24.4290  -48.3120 C.3       6 GLP5        0.0000 
     24 O         -16.4865   25.0335  -44.5935 O.2       1 ALC1        0.0000 
     25 O         -15.7950   26.2860  -44.8010 O.2       7 ALL1        0.0000 
     26 O         -17.1780   23.7810  -44.3860 O.2       4 ALP1        0.0000 
     27 CA        -16.0155   26.5740  -43.1540 C.3       3 GLC5        0.0000 
     28 CA        -14.5150   26.5470  -44.3890 C.3       9 GLL5        0.0000 
     29 CA        -17.5160   26.6010  -41.9190 C.3       6 GLP5        0.0000 
     30 CA        -15.0215   24.6405  -43.3425 C.3       3 GLC5        0.0000 
     31 CA        -15.5280   22.7340  -42.2960 C.3       6 GLP5        0.0000 
     32 N         -13.5275   24.2105  -43.6490 N.am      2 SEC2        0.0000 
     33 N         -13.6220   25.7870  -43.7670 N.am      8 SEL2        0.0000 
     34 N         -13.4330   22.6340  -43.5310 N.am      5 SEP2        0.0000 
     35 CA        -12.3385   24.0920  -43.7345 C.3       3 GLC5        0.0000 
     36 CA        -12.4260   26.2170  -43.4270 C.3       9 GLL5        0.0000 
     37 CA        -12.2510   21.9670  -44.0420 C.3       6 GLP5        0.0000 
     38 CA        -12.0542   28.8685  -46.5085 C.3       3 GLC5        0.0000 
     39 CA        -13.0250   30.3730  -46.7090 C.3       9 GLL5        0.0000 
     40 CA        -11.2530   27.1620  -47.0340 C.3       6 GLP5        0.0000 
     41 CA        -13.1465   27.4440  -41.9385 C.3       3 GLC5        0.0000 
     42 CA        -12.0060   27.5090  -43.7370 C.3       9 GLL5        0.0000 
     43 CA        -14.0770   28.0250  -40.2950 C.3       6 GLP5        0.0000 
     44 CA        -10.1260   26.3005  -43.8775 C.3       3 GLC5        0.0000 
     45 CA         -8.0360   25.7380  -44.1730 C.3       6 GLP5        0.0000 
     46 CA        -14.2180   27.6197  -42.4248 C.3       3 GLC5        0.0000 
     47 CA        -14.2030   27.8820  -44.7200 C.3       9 GLL5        0.0000 
     48 CA        -16.6943   27.2450  -43.6547 C.3       3 GLC5        0.0000 
     49 CA        -17.7473   28.5030  -45.1658 C.3       3 GLC5        0.0000 
     50 CA        -19.6220   29.1170  -44.9410 C.3       6 GLP5        0.0000 
     51 CA        -14.2259   26.5476  -46.1956 C.3       3 GLC5        0.0000 
     52 CA        -13.4100   25.9400  -47.5830 C.3       6 GLP5        0.0000 
     53 CA        -11.8478   27.1219  -45.3899 C.3       3 GLC5        0.0000 
@<TRIPOS>BOND
@<TRIPOS>SUBSTRUCTURE
     1 ALC1       24 GROUP        1 X    ALC  0     ROOT ALC X 1
     2 SEC2       32 GROUP        1 X    SEC  0     **** SEC X 2
     3 GLC5        1 GROUP        1 X    GLC  0     **** GLC X 6
     4 ALP1       26 GROUP        1 Y    ALP  0     ROOT ALP Y 8
     5 SEP2       34 GROUP        1 Y    SEP  0     **** SEP Y 9
     6 GLP5        3 GROUP        1 Y    GLP  0     **** GLP Y 13
     7 ALL1       25 GROUP        1 Z    ALL  0     ROOT ALL Z 15
     8 SEL2       33 GROUP        1 Z    SEL  0     **** SEL Z 16
     9 GLL5        2 GROUP        1 Z    GLL  0     **** GLL Z 20
@<TRIPOS>SET

