#    Name: 4e4l_0NH_2_ligand
#    Modification time : Tue Mar 25 10:35:33 2014

@<TRIPOS>MOLECULE
4e4l_0NH_2_ligand
   42    45     1     0     0
SMALL
NO_CHARGES


@<TRIPOS>ATOM
      1 C1        -13.0250   30.3730  -46.7090 C.3       1 0NH1202     0.0000 
      2 C2        -12.6860   30.7770  -45.2570 C.3       1 0NH1202     0.0000 
      3 C3        -11.5520   31.8340  -45.3000 C.3       1 0NH1202     0.0000 
      4 C4        -12.0670   33.1310  -45.9440 C.3       1 0NH1202     0.0000 
      5 N5        -13.3730   33.6020  -45.4740 N.pl3     1 0NH1202     0.0000 
      6 C6        -14.4510   32.6370  -45.1310 C.3       1 0NH1202     0.0000 
      7 C7        -13.9110   31.3400  -44.5250 C.3       1 0NH1202     0.0000 
      8 S8        -13.6880   35.2280  -45.5150 S.o2      1 0NH1202     0.0000 
      9 O9        -14.6900   35.5340  -44.5570 O.2       1 0NH1202     0.0000 
     10 O10       -12.4450   35.9150  -45.4210 O.2       1 0NH1202     0.0000 
     11 C11       -14.3760   35.5020  -47.1710 C.3       1 0NH1202     0.0000 
     12 N12       -12.2150   29.5630  -44.5620 N.pl3     1 0NH1202     0.0000 
     13 C13       -10.9680   29.3780  -44.0050 C.2       1 0NH1202     0.0000 
     14 N14       -10.8410   28.1680  -43.5110 N.2       1 0NH1202     0.0000 
     15 C15       -12.0060   27.5090  -43.7370 C.ar      1 0NH1202     0.0000 
     16 C16       -12.9120   28.3840  -44.3920 C.ar      1 0NH1202     0.0000 
     17 C17       -14.2030   27.8820  -44.7200 C.ar      1 0NH1202     0.0000 
     18 C18       -15.4190   28.3850  -45.3720 C.2       1 0NH1202     0.0000 
     19 C19       -16.3260   27.3930  -45.4090 C.2       1 0NH1202     0.0000 
     20 N20       -15.7950   26.2860  -44.8010 N.pl3     1 0NH1202     0.0000 
     21 C22       -14.5150   26.5470  -44.3890 C.ar      1 0NH1202     0.0000 
     22 N23       -13.6220   25.7870  -43.7670 N.ar      1 0NH1202     0.0000 
     23 C24       -12.4260   26.2170  -43.4270 C.ar      1 0NH1202     0.0000 
     24 H         -10.7297   31.4430  -45.8838 H         1 0NH1202     0.0000 
     25 H         -11.2240   32.0382  -44.2897 H         1 0NH1202     0.0000 
     26 H         -12.0886   32.9709  -47.0490 H         1 0NH1202     0.0000 
     27 H         -11.2910   33.9173  -45.7809 H         1 0NH1202     0.0000 
     28 H         -15.0316   32.3834  -46.0316 H         1 0NH1202     0.0000 
     29 H         -15.1497   33.0913  -44.4114 H         1 0NH1202     0.0000 
     30 H         -13.6439   31.5206  -43.4724 H         1 0NH1202     0.0000 
     31 H         -14.7090   30.5817  -44.5327 H         1 0NH1202     0.0000 
     32 H         -10.2827   30.0870  -43.9965 H         1 0NH1202     0.0000 
     33 H         -15.4839   29.2737  -45.6900 H         1 0NH1202     0.0000 
     34 H         -17.2089   27.4386  -45.7963 H         1 0NH1202     0.0000 
     35 H         -16.2564   25.4438  -44.6804 H         1 0NH1202     0.0000 
     36 H         -11.7500   25.6010  -42.9116 H         1 0NH1202     0.0000 
     37 H         -12.2333   29.9853  -47.1811 H         1 0NH1202     0.0000 
     38 H         -13.7518   29.6870  -46.7436 H         1 0NH1202     0.0000 
     39 H         -13.3345   31.1553  -47.2496 H         1 0NH1202     0.0000 
     40 H         -13.7321   35.2378  -47.8891 H         1 0NH1202     0.0000 
     41 H         -15.2121   34.9734  -47.3180 H         1 0NH1202     0.0000 
     42 H         -14.6064   36.4631  -47.3231 H         1 0NH1202     0.0000 
@<TRIPOS>BOND
     1    2    1 1    
     2   37    1 1    
     3   38    1 1    
     4   39    1 1    
     5    3    2 1    
     6    7    2 1    
     7   12    2 1    
     8    4    3 1    
     9   24    3 1    
    10   25    3 1    
    11    5    4 1    
    12   26    4 1    
    13   27    4 1    
    14    6    5 1    
    15    8    5 1    
    16    7    6 1    
    17   28    6 1    
    18   29    6 1    
    19   30    7 1    
    20   31    7 1    
    21    9    8 2    
    22   10    8 2    
    23   11    8 1    
    24   40   11 1    
    25   41   11 1    
    26   42   11 1    
    27   13   12 1    
    28   16   12 1    
    29   14   13 2    
    30   32   13 1    
    31   15   14 1    
    32   16   15 ar   
    33   23   15 ar   
    34   17   16 ar   
    35   18   17 1    
    36   21   17 ar   
    37   19   18 2    
    38   33   18 1    
    39   20   19 1    
    40   34   19 1    
    41   21   20 1    
    42   35   20 1    
    43   22   21 ar   
    44   23   22 ar   
    45   36   23 1    
@<TRIPOS>SUBSTRUCTURE
     1 0NH1202     1 GROUP   
@<TRIPOS>SET

