#    Name: 3q71_AR6_1_INTS_M
#    Modification time : Tue Mar 25 09:02:31 2014

@<TRIPOS>MOLECULE
3q71_AR6_1_INTS_M
   73     0     9     0     0
SMALL
NO_CHARGES


@<TRIPOS>ATOM
      1 N         -27.0660    6.6365  -26.8530 N.am      2 SEC2        0.0000 
      2 N         -26.1410    7.4810  -26.1010 N.am      8 SEL2        0.0000 
      3 N         -27.9910    5.7920  -27.6050 N.am      5 SEP2        0.0000 
      4 CA        -26.5035    5.8955  -26.0625 C.3       3 GLC5        0.0000 
      5 CA        -26.6720    7.7100  -24.9000 C.3       9 GLL5        0.0000 
      6 CA        -26.3350    4.0810  -27.2250 C.3       6 GLP5        0.0000 
      7 CA        -27.9545    7.8125  -26.4010 C.3       3 GLC5        0.0000 
      8 CA        -29.2370    7.9150  -27.9020 C.3       6 GLP5        0.0000 
      9 CA        -27.2365    9.4540  -25.5030 C.3       3 GLC5        0.0000 
     10 CA        -27.8010   11.1980  -26.1060 C.3       6 GLP5        0.0000 
     11 CA        -28.4990    8.8680  -24.3120 C.3       3 GLC5        0.0000 
     12 CA        -30.3260   10.0260  -23.7240 C.3       6 GLP5        0.0000 
     13 CA        -25.1415    6.9970  -23.9090 C.3       3 GLC5        0.0000 
     14 CA        -23.6110    6.2840  -22.9180 C.3       6 GLP5        0.0000 
     15 CA        -24.3835    7.8435  -23.6875 C.3       3 GLC5        0.0000 
     16 CA        -25.1560    9.4030  -24.4570 C.3       9 GLL5        0.0000 
     17 CA        -25.7130    6.1440  -26.8750 C.3       3 GLC5        0.0000 
     18 CA        -25.0910    8.2070  -26.5250 C.3       9 GLL5        0.0000 
     19 CA        -26.6230    8.3810  -27.6650 C.3       3 GLC5        0.0000 
     20 CA        -28.1550    8.5550  -28.8050 C.3       6 GLP5        0.0000 
     21 CA        -24.7780    8.8820  -28.5275 C.3       3 GLC5        0.0000 
     22 CA        -24.4650    9.5570  -30.5300 C.3       6 GLP5        0.0000 
     23 O         -25.0850    7.0200  -28.7440 O.2       1 ALC1        0.0000 
     24 O         -24.5250    8.0090  -27.7070 O.2       7 ALL1        0.0000 
     25 O         -25.6450    6.0310  -29.7810 O.2       4 ALP1        0.0000 
     26 O         -23.8950    8.8020  -28.7390 O.2       1 ALC1        0.0000 
     27 O         -23.2650    9.5950  -29.7710 O.2       4 ALP1        0.0000 
     28 N         -24.3785   14.6485  -26.3830 N.am      2 SEC2        0.0000 
     29 N         -24.5300   15.6700  -25.3940 N.am      8 SEL2        0.0000 
     30 N         -24.2270   13.6270  -27.3720 N.am      5 SEP2        0.0000 
     31 N         -28.6790   17.7260  -23.8400 N.am      2 SEC2        0.0000 
     32 N         -27.9870   17.9130  -22.7760 N.am      8 SEL2        0.0000 
     33 N         -29.3710   17.5390  -24.9040 N.am      5 SEP2        0.0000 
     34 N         -28.5805   17.4325  -21.6075 N.am      2 SEC2        0.0000 
     35 N         -29.1740   16.9520  -20.4390 N.am      5 SEP2        0.0000 
     36 CA        -26.5785   22.7035  -23.5375 C.3       3 GLC5        0.0000 
     37 CA        -26.0790   22.2470  -25.4920 C.3       9 GLL5        0.0000 
     38 CA        -27.0780   23.1600  -21.5830 C.3       6 GLP5        0.0000 
     39 O         -23.2225   10.1590  -20.0225 O.2       1 ALC1        0.0000 
     40 O         -22.9660   10.8410  -21.0600 O.2       7 ALL1        0.0000 
     41 O         -23.4790    9.4770  -18.9850 O.2       4 ALP1        0.0000 
     42 N         -23.1915   17.7690  -22.4095 N.am      2 SEC2        0.0000 
     43 N         -23.5300   17.0070  -23.4920 N.am      8 SEL2        0.0000 
     44 N         -22.8530   18.5310  -21.3270 N.am      5 SEP2        0.0000 
     45 N         -25.1585   17.0855  -20.4785 N.am      2 SEC2        0.0000 
     46 N         -25.7600   17.8200  -21.4870 N.am      8 SEL2        0.0000 
     47 N         -24.5570   16.3510  -19.4700 N.am      5 SEP2        0.0000 
     48 N         -25.1650   19.1890  -20.9405 N.am      2 SEC2        0.0000 
     49 N         -24.5700   20.5580  -20.3940 N.am      5 SEP2        0.0000 
     50 CA        -23.8285   14.6165  -20.6220 C.3       3 GLC5        0.0000 
     51 CA        -24.4180   12.7600  -21.1380 C.3       9 GLL5        0.0000 
     52 CA        -23.2390   16.4730  -20.1060 C.3       6 GLP5        0.0000 
     53 O         -25.5635   12.8370  -19.0575 O.2       1 ALC1        0.0000 
     54 O         -24.7260   12.2140  -19.8580 O.2       7 ALL1        0.0000 
     55 O         -26.4010   13.4600  -18.2570 O.2       4 ALP1        0.0000 
     56 CA        -26.1960   13.8610  -24.4340 C.3       3 GLC5        0.0000 
     57 CA        -25.8820   14.3940  -22.4160 C.3       9 GLL5        0.0000 
     58 CA        -26.5100   13.3280  -26.4520 C.3       6 GLP5        0.0000 
     59 CA        -24.5605   15.4335  -21.2610 C.3       3 GLC5        0.0000 
     60 CA        -26.2515   20.5875  -22.9295 C.3       3 GLC5        0.0000 
     61 CA        -25.2330   19.5190  -24.4800 C.3       9 GLL5        0.0000 
     62 CA        -27.2700   21.6560  -21.3790 C.3       6 GLP5        0.0000 
     63 CA        -23.6878    7.4750  -25.6990 C.3       3 GLC5        0.0000 
     64 CA        -24.5760    9.1870  -25.6930 C.3       9 GLL5        0.0000 
     65 CA        -22.5420    6.2530  -25.2890 C.3       6 GLP5        0.0000 
     66 CA        -26.3897    9.9745  -25.9530 C.3       3 GLC5        0.0000 
     67 CA        -23.6193   20.8738  -24.6740 C.3       3 GLC5        0.0000 
     68 CA        -24.7360   20.6480  -26.6490 C.3       9 GLL5        0.0000 
     69 CA        -22.5140   20.3890  -22.9450 C.3       6 GLP5        0.0000 
     70 CA        -24.0192   19.0748  -27.2180 C.3       3 GLC5        0.0000 
     71 CA        -22.7770   17.8240  -28.2260 C.3       6 GLP5        0.0000 
     72 CA        -24.0120   20.0750  -24.0352 C.3       3 GLC5        0.0000 
     73 CA        -25.7870   20.0030  -25.7710 C.3       9 GLL5        0.0000 
@<TRIPOS>BOND
@<TRIPOS>SUBSTRUCTURE
     1 ALC1       23 GROUP        1 X    ALC  0     ROOT ALC X 1
     2 SEC2        1 GROUP        1 X    SEC  0     **** SEC X 2
     3 GLC5        4 GROUP        1 X    GLC  0     **** GLC X 6
     4 ALP1       25 GROUP        1 Y    ALP  0     ROOT ALP Y 8
     5 SEP2        3 GROUP        1 Y    SEP  0     **** SEP Y 9
     6 GLP5        6 GROUP        1 Y    GLP  0     **** GLP Y 13
     7 ALL1       24 GROUP        1 Z    ALL  0     ROOT ALL Z 15
     8 SEL2        2 GROUP        1 Z    SEL  0     **** SEL Z 16
     9 GLL5        5 GROUP        1 Z    GLL  0     **** GLL Z 20
@<TRIPOS>SET

