#    Name: 3q71_AR6_1_ligand
#    Modification time : Tue Mar 25 09:02:31 2014

@<TRIPOS>MOLECULE
3q71_AR6_1_ligand
   57    60     1     0     0
SMALL
NO_CHARGES


@<TRIPOS>ATOM
      1 N1        -26.1410    7.4810  -26.1010 N.ar      1 AR6800      0.0000 
      2 C2        -26.6720    7.7100  -24.9000 C.ar      1 AR6800      0.0000 
      3 N3        -26.2090    8.6540  -24.0750 N.ar      1 AR6800      0.0000 
      4 C4        -25.1560    9.4030  -24.4570 C.ar      1 AR6800      0.0000 
      5 C5        -24.5760    9.1870  -25.6930 C.ar      1 AR6800      0.0000 
      6 C6        -25.0910    8.2070  -26.5250 C.ar      1 AR6800      0.0000 
      7 N6        -24.5250    8.0090  -27.7070 N.pl3     1 AR6800      0.0000 
      8 N7        -23.5710   10.0480  -25.8240 N.2       1 AR6800      0.0000 
      9 C8        -23.5050   10.7840  -24.7170 C.2       1 AR6800      0.0000 
     10 N9        -24.4680   10.3820  -23.8790 N.pl3     1 AR6800      0.0000 
     11 PA        -24.6150   16.1480  -24.0100 P.3       1 AR6800      0.0000 
     12 PB        -26.4940   17.9730  -22.7600 P.3       1 AR6800      0.0000 
     13 C1'       -24.7700   10.9580  -22.5880 C.3       1 AR6800      0.0000 
     14 O1A       -24.5300   15.6700  -25.3940 O.co2     1 AR6800      0.0000 
     15 O1B       -27.9870   17.9130  -22.7760 O.co2     1 AR6800      0.0000 
     16 C1D       -26.0790   22.2470  -25.4920 C.3       1 AR6800      0.0000 
     17 O1D       -26.9450   22.9730  -26.2740 O.3       1 AR6800      0.0000 
     18 C2'       -23.6440   11.7200  -21.9370 C.3       1 AR6800      0.0000 
     19 O2'       -22.9660   10.8410  -21.0600 O.3       1 AR6800      0.0000 
     20 O2A       -23.5300   17.0070  -23.4920 O.co2     1 AR6800      0.0000 
     21 O2B       -25.7600   17.8200  -21.4870 O.co2     1 AR6800      0.0000 
     22 C2D       -24.7130   22.0690  -26.1570 C.3       1 AR6800      0.0000 
     23 O2D       -24.6060   22.9350  -27.2750 O.3       1 AR6800      0.0000 
     24 C3'       -24.4180   12.7600  -21.1380 C.3       1 AR6800      0.0000 
     25 O3'       -24.7260   12.2140  -19.8580 O.3       1 AR6800      0.0000 
     26 O3A       -26.0410   16.8450  -23.8400 O.3       1 AR6800      0.0000 
     27 C3D       -24.7360   20.6480  -26.6490 C.3       1 AR6800      0.0000 
     28 O3D       -25.2790   20.6440  -27.9680 O.3       1 AR6800      0.0000 
     29 C4'       -25.7330   12.9420  -21.9190 C.3       1 AR6800      0.0000 
     30 O4'       -25.6300   12.0370  -23.0310 O.3       1 AR6800      0.0000 
     31 C4D       -25.7870   20.0030  -25.7710 C.3       1 AR6800      0.0000 
     32 O4D       -26.7550   21.0030  -25.5480 O.3       1 AR6800      0.0000 
     33 C5'       -25.8820   14.3940  -22.4160 C.3       1 AR6800      0.0000 
     34 O5'       -24.6810   14.8430  -23.0660 O.3       1 AR6800      0.0000 
     35 C5D       -25.2330   19.5190  -24.4800 C.3       1 AR6800      0.0000 
     36 O5D       -26.2440   19.3660  -23.4990 O.3       1 AR6800      0.0000 
     37 H         -27.4985    7.1177  -24.5838 H         1 AR6800      0.0000 
     38 H         -24.9516    7.3164  -28.2887 H         1 AR6800      0.0000 
     39 H         -23.7226    8.5701  -27.9102 H         1 AR6800      0.0000 
     40 H         -22.8657   11.4958  -24.5421 H         1 AR6800      0.0000 
     41 H         -25.2634   10.3449  -21.9507 H         1 AR6800      0.0000 
     42 H         -25.9863   22.5889  -24.5234 H         1 AR6800      0.0000 
     43 H         -23.0701   12.1811  -22.6528 H         1 AR6800      0.0000 
     44 H         -23.9640   22.1842  -25.4423 H         1 AR6800      0.0000 
     45 H         -23.8999   13.6539  -21.1188 H         1 AR6800      0.0000 
     46 H         -23.8398   20.1923  -26.5374 H         1 AR6800      0.0000 
     47 H         -26.5400   12.6920  -21.2824 H         1 AR6800      0.0000 
     48 H         -26.2152   19.1780  -26.3214 H         1 AR6800      0.0000 
     49 H         -26.1279   15.0168  -21.5446 H         1 AR6800      0.0000 
     50 H         -26.7452   14.4226  -23.0956 H         1 AR6800      0.0000 
     51 H         -24.4542   20.2349  -24.1434 H         1 AR6800      0.0000 
     52 H         -24.7055   18.5597  -24.6636 H         1 AR6800      0.0000 
     53 H         -27.4911   23.5068  -25.6284 H         1 AR6800      0.0000 
     54 H         -23.6873   10.3014  -20.6258 H         1 AR6800      0.0000 
     55 H         -25.5190   23.3272  -27.3867 H         1 AR6800      0.0000 
     56 H         -25.3590   12.8678  -19.4434 H         1 AR6800      0.0000 
     57 H         -25.1541   21.5782  -28.3020 H         1 AR6800      0.0000 
@<TRIPOS>BOND
     1    2    1 ar   
     2    6    1 ar   
     3    3    2 ar   
     4   37    2 1    
     5    4    3 ar   
     6    5    4 ar   
     7   10    4 1    
     8    6    5 ar   
     9    8    5 1    
    10    7    6 1    
    11   38    7 1    
    12   39    7 1    
    13    9    8 2    
    14   10    9 1    
    15   40    9 1    
    16   13   10 1    
    17   14   11 ar   
    18   20   11 ar   
    19   26   11 1    
    20   34   11 1    
    21   15   12 ar   
    22   21   12 ar   
    23   26   12 1    
    24   36   12 1    
    25   18   13 1    
    26   30   13 1    
    27   41   13 1    
    28   17   16 1    
    29   22   16 1    
    30   32   16 1    
    31   42   16 1    
    32   53   17 1    
    33   19   18 1    
    34   24   18 1    
    35   43   18 1    
    36   54   19 1    
    37   23   22 1    
    38   27   22 1    
    39   44   22 1    
    40   55   23 1    
    41   25   24 1    
    42   29   24 1    
    43   45   24 1    
    44   56   25 1    
    45   28   27 1    
    46   31   27 1    
    47   46   27 1    
    48   57   28 1    
    49   30   29 1    
    50   33   29 1    
    51   47   29 1    
    52   32   31 1    
    53   35   31 1    
    54   48   31 1    
    55   34   33 1    
    56   49   33 1    
    57   50   33 1    
    58   36   35 1    
    59   51   35 1    
    60   52   35 1    
@<TRIPOS>SUBSTRUCTURE
     1 AR6800      1 GROUP   
@<TRIPOS>SET

