#    Name: 3qen_5BT_1_INTS_M
#    Modification time : Mon Apr  7 19:25:35 2014

@<TRIPOS>MOLECULE
3qen_5BT_1_INTS_M
   36     0     9     0     0
SMALL
NO_CHARGES


@<TRIPOS>ATOM
      1 N          -9.1505   28.5455  -22.2350 N.am      2 SEC2        0.0000 
      2 N         -10.6560   29.2710  -22.5530 N.am      8 SEL2        0.0000 
      3 N          -7.6450   27.8200  -21.9170 N.am      5 SEP2        0.0000 
      4 N          -8.9650   27.4515  -22.1735 N.am      2 SEC2        0.0000 
      5 N         -10.2850   27.0830  -22.4300 N.am      8 SEL2        0.0000 
      6 O          -8.3385   25.2705  -22.1705 O.2       1 ALC1        0.0000 
      7 O          -9.7850   24.8290  -22.3200 O.2       7 ALL1        0.0000 
      8 O          -6.8920   25.7120  -22.0210 O.2       4 ALP1        0.0000 
      9 O          -9.7820   23.3200  -22.2520 O.2       1 ALC1        0.0000 
     10 O          -9.7790   21.8110  -22.1840 O.2       4 ALP1        0.0000 
     11 CA        -14.4060   22.6010  -21.5855 C.3       3 GLC5        0.0000 
     12 CA        -13.0400   23.8900  -22.3920 C.3       9 GLL5        0.0000 
     13 CA        -15.7720   21.3120  -20.7790 C.3       6 GLP5        0.0000 
     14 CA        -13.6990   22.8230  -24.2590 C.3       3 GLC5        0.0000 
     15 CA        -14.3580   21.7560  -26.1260 C.3       6 GLP5        0.0000 
     16 CA        -12.5925   24.4765  -24.3820 C.3       3 GLC5        0.0000 
     17 CA        -12.1450   25.0630  -26.3720 C.3       6 GLP5        0.0000 
     18 CA        -13.9490   26.0055  -21.0690 C.3       3 GLC5        0.0000 
     19 CA        -13.0300   26.7070  -22.5030 C.3       9 GLL5        0.0000 
     20 CA        -14.8680   25.3040  -19.6350 C.3       6 GLP5        0.0000 
     21 O         -16.2965   32.0950  -21.9725 O.2       1 ALC1        0.0000 
     22 O         -15.5750   31.2620  -22.9870 O.2       7 ALL1        0.0000 
     23 O         -17.0180   32.9280  -20.9580 O.2       4 ALP1        0.0000 
     24 CA        -15.6025   26.5090  -20.9525 C.3       3 GLC5        0.0000 
     25 CA        -16.3370   27.7140  -22.2700 C.3       9 GLL5        0.0000 
     26 O         -18.6690   28.8900  -21.9565 O.2       1 ALC1        0.0000 
     27 O         -17.5510   27.6620  -21.5150 O.2       7 ALL1        0.0000 
     28 O         -19.7870   30.1180  -22.3980 O.2       4 ALP1        0.0000 
     29 CA        -13.7417   25.0243  -21.0218 C.3       3 GLC5        0.0000 
     30 CA        -12.1910   25.5990  -22.4250 C.3       9 GLL5        0.0000 
     31 CA        -13.1768   28.3672  -24.7308 C.3       3 GLC5        0.0000 
     32 CA        -13.4080   29.1270  -22.5800 C.3       9 GLL5        0.0000 
     33 CA        -12.5570   27.4410  -26.2450 C.3       6 GLP5        0.0000 
     34 CA        -15.4900   30.0410  -25.4313 C.3       3 GLC5        0.0000 
     35 CA        -14.1850   29.4600  -23.8530 C.3       9 GLL5        0.0000 
     36 CA        -16.1100   30.4210  -27.2730 C.3       6 GLP5        0.0000 
@<TRIPOS>BOND
@<TRIPOS>SUBSTRUCTURE
     1 ALC1        6 GROUP        1 X    ALC  0     ROOT ALC X 1
     2 SEC2        1 GROUP        1 X    SEC  0     **** SEC X 2
     3 GLC5       11 GROUP        1 X    GLC  0     **** GLC X 6
     4 ALP1        8 GROUP        1 Y    ALP  0     ROOT ALP Y 8
     5 SEP2        3 GROUP        1 Y    SEP  0     **** SEP Y 9
     6 GLP5       13 GROUP        1 Y    GLP  0     **** GLP Y 13
     7 ALL1        7 GROUP        1 Z    ALL  0     ROOT ALL Z 15
     8 SEL2        2 GROUP        1 Z    SEL  0     **** SEL Z 16
     9 GLL5       12 GROUP        1 Z    GLL  0     **** GLL Z 20
@<TRIPOS>SET

