#    Name: 3qen_5BT_1_ligand
#    Modification time : Mon Apr  7 19:25:35 2014

@<TRIPOS>MOLECULE
3qen_5BT_1_ligand
   29    30     1     0     0
SMALL
NO_CHARGES


@<TRIPOS>ATOM
      1 N1        -12.5290   27.9380  -22.5590 N.am      1 5BT402      0.0000 
      2 C2        -11.1290   28.1150  -22.5030 C.2       1 5BT402      0.0000 
      3 O2        -10.6560   29.2710  -22.5530 O.2       1 5BT402      0.0000 
      4 N3        -10.2850   27.0830  -22.4300 N.2       1 5BT402      0.0000 
      5 C4        -10.7170   25.8210  -22.3890 C.2       1 5BT402      0.0000 
      6 N4         -9.7850   24.8290  -22.3200 N.pl3     1 5BT402      0.0000 
      7 C5        -12.1910   25.5990  -22.4250 C.2       1 5BT402      0.0000 
      8 BR5       -13.0400   23.8900  -22.3920 Br        1 5BT402      0.0000 
      9 C6        -13.0300   26.7070  -22.5030 C.2       1 5BT402      0.0000 
     10 C1'       -13.4080   29.1270  -22.5800 C.3       1 5BT402      0.0000 
     11 C2'       -14.1850   29.4600  -23.8530 C.3       1 5BT402      0.0000 
     12 C3'       -15.5550   29.8620  -23.3260 C.3       1 5BT402      0.0000 
     13 O3'       -15.5750   31.2620  -22.9870 O.3       1 5BT402      0.0000 
     14 C4'       -15.7120   29.0940  -22.0320 C.3       1 5BT402      0.0000 
     15 O4'       -14.3790   28.9870  -21.5190 O.3       1 5BT402      0.0000 
     16 C5'       -16.3370   27.7140  -22.2700 C.3       1 5BT402      0.0000 
     17 O5'       -17.5510   27.6620  -21.5150 O.3       1 5BT402      0.0000 
     18 H         -10.1388   23.8942  -22.2888 H         1 5BT402      0.0000 
     19 H          -8.8294   25.1232  -22.3066 H         1 5BT402      0.0000 
     20 H         -14.0606   26.5412  -22.5161 H         1 5BT402      0.0000 
     21 H         -12.7970   30.0260  -22.3310 H         1 5BT402      0.0000 
     22 H         -14.2690   28.5953  -24.4573 H         1 5BT402      0.0000 
     23 H         -13.7313   30.2800  -24.3447 H         1 5BT402      0.0000 
     24 H         -16.2977   29.5787  -23.9941 H         1 5BT402      0.0000 
     25 H         -16.3322   29.6625  -21.3743 H         1 5BT402      0.0000 
     26 H         -15.6227   26.9642  -21.9458 H         1 5BT402      0.0000 
     27 H         -16.5144   27.6077  -23.3353 H         1 5BT402      0.0000 
     28 H         -16.4812   31.4203  -22.5948 H         1 5BT402      0.0000 
     29 H         -18.1220   28.3909  -21.8927 H         1 5BT402      0.0000 
@<TRIPOS>BOND
     1    2    1 am   
     2    9    1 1    
     3   10    1 1    
     4    3    2 2    
     5    4    2 1    
     6    5    4 2    
     7    6    5 1    
     8    7    5 1    
     9   18    6 1    
    10   19    6 1    
    11    8    7 1    
    12    9    7 2    
    13   20    9 1    
    14   11   10 1    
    15   15   10 1    
    16   21   10 1    
    17   12   11 1    
    18   22   11 1    
    19   23   11 1    
    20   13   12 1    
    21   14   12 1    
    22   24   12 1    
    23   28   13 1    
    24   15   14 1    
    25   16   14 1    
    26   25   14 1    
    27   17   16 1    
    28   26   16 1    
    29   27   16 1    
    30   29   17 1    
@<TRIPOS>SUBSTRUCTURE
     1 5BT402      1 GROUP   
@<TRIPOS>SET

