#    Name: 3OHO_1_CAVITY_N1_6.mol2
#    Modification time : Tue Mar 11 20:22:00 2014

@<TRIPOS>MOLECULE
3OHO_1_CAVITY_N1_6.mol2
   71     0     6     0     0
SMALL
NO_CHARGES


@<TRIPOS>ATOM
      1 N          21.3038  -10.7489  -11.4576 N.2       1 ALA2        0.0000 
      2 N          20.2581   -9.7889  -11.9421 N.2       1 ALA2        0.0000 
      3 O          21.8333  -12.7500  -11.9217 O.2       1 ALA2        0.0000 
      4 N          20.7876  -11.7899  -12.4062 N.2       1 ALA2        0.0000 
      5 N          19.7418  -10.8299  -12.8906 N.2       1 ALA2        0.0000 
      6 CA         21.3171  -13.7910  -12.8702 C.3       5 GLY6        0.0000 
      7 N          20.2713  -12.8310  -13.3547 N.2       1 ALA2        0.0000 
      8 N          19.8310   -9.2424   -9.9373 N.2       1 ALA2        0.0000 
      9 N          20.3605  -11.2435  -10.4014 N.2       1 ALA2        0.0000 
     10 N          19.3148  -10.2834  -10.8859 N.2       1 ALA2        0.0000 
     11 CA         18.2690   -9.3234  -11.3703 C.3       5 GLY6        0.0000 
     12 O          20.8900  -13.2445  -10.8655 O.2       1 ALA2        0.0000 
     13 CA         19.8442  -12.2845  -11.3499 C.3       5 GLY6        0.0000 
     14 N          18.7985  -11.3244  -11.8344 N.2       1 ALA2        0.0000 
     15 CA         19.3280  -13.3255  -12.2985 C.3       5 GLY6        0.0000 
     16 N          19.4040   -8.6959   -7.9326 N.2       1 ALA2        0.0000 
     17 DU         18.3582   -7.7359   -8.4170 H         6 CUB7        0.0000 
     18 N          19.9335  -10.6970   -8.3967 N.2       1 ALA2        0.0000 
     19 N          18.8877   -9.7370   -8.8811 N.2       1 ALA2        0.0000 
     20 DU         17.8420   -8.7769   -9.3656 H         6 CUB7        0.0000 
     21 O          21.5087  -13.6581   -8.3763 O.2       1 ALA2        0.0000 
     22 N          20.4630  -12.6981   -8.8607 N.2       1 ALA2        0.0000 
     23 N          19.4172  -11.7380   -9.3452 N.2       1 ALA2        0.0000 
     24 DU         18.3714  -10.7780   -9.8297 H         6 CUB7        0.0000 
     25 N          17.3257   -9.8179  -10.3141 N.2       1 ALA2        0.0000 
     26 CA         19.9467  -13.7391   -9.8093 C.3       5 GLY6        0.0000 
     27 CA         18.9009  -12.7791  -10.2937 C.3       5 GLY6        0.0000 
     28 O          17.8552  -11.8190  -10.7782 O.2       1 ALA2        0.0000 
     29 OD1        18.9902  -11.1916   -7.3405 O.3       2 ASP3        0.0000 
     30 OD1        17.9444  -10.2315   -7.8249 O.3       2 ASP3        0.0000 
     31 N          16.8986   -9.2715   -8.3094 N.2       1 ALA2        0.0000 
     32 N          24.7484  -17.9929   -5.3823 N.2       1 ALA2        0.0000 
     33 N          23.7027  -17.0328   -5.8667 N.2       1 ALA2        0.0000 
     34 N          22.6569  -16.0728   -6.3512 N.2       1 ALA2        0.0000 
     35 N          21.6112  -15.1127   -6.8356 N.2       1 ALA2        0.0000 
     36 CA         20.5654  -14.1527   -7.3201 C.3       5 GLY6        0.0000 
     37 CA         19.5196  -13.1926   -7.8045 C.3       5 GLY6        0.0000 
     38 CA         18.4739  -12.2326   -8.2890 C.3       5 GLY6        0.0000 
     39 N          17.4281  -11.2725   -8.7735 N.2       1 ALA2        0.0000 
     40 O          24.2322  -19.0339   -6.3308 O.2       1 ALA2        0.0000 
     41 O          23.1864  -18.0738   -6.8153 O.2       1 ALA2        0.0000 
     42 CA         22.1406  -17.1138   -7.2997 C.3       5 GLY6        0.0000 
     43 CA         21.0949  -16.1537   -7.7842 C.3       5 GLY6        0.0000 
     44 CA         20.0491  -15.1937   -8.2686 C.3       5 GLY6        0.0000 
     45 DU         19.0034  -14.2337   -8.7531 H         6 CUB7        0.0000 
     46 CA         17.9576  -13.2736   -9.2375 C.3       5 GLY6        0.0000 
     47 O          16.9118  -12.3136   -9.7220 O.2       1 ALA2        0.0000 
     48 N          23.7159  -20.0749   -7.2793 N.2       1 ALA2        0.0000 
     49 O          22.6701  -19.1149   -7.7638 O.2       1 ALA2        0.0000 
     50 CZ         19.5329  -16.2347   -9.2172 C.ar      4 PHE5        0.0000 
     51 CA         18.4871  -15.2747   -9.7016 C.3       5 GLY6        0.0000 
     52 CA         17.4413  -14.3146  -10.1861 C.3       5 GLY6        0.0000 
     53 CA         23.8051  -18.4874   -4.3260 C.3       5 GLY6        0.0000 
     54 CA         22.7594  -17.5274   -4.8105 C.3       5 GLY6        0.0000 
     55 N          21.7136  -16.5673   -5.2950 N.2       1 ALA2        0.0000 
     56 CA         20.6678  -15.6073   -5.7794 C.3       5 GLY6        0.0000 
     57 CA         19.6221  -14.6472   -6.2639 C.3       5 GLY6        0.0000 
     58 NZ         17.5306  -12.7271   -7.2328 N.2       3 LYS4        0.0000 
     59 CA         23.2888  -19.5284   -5.2746 C.3       5 GLY6        0.0000 
     60 CA         22.2431  -18.5684   -5.7591 C.3       5 GLY6        0.0000 
     61 N          21.1973  -17.6083   -6.2435 N.2       1 ALA2        0.0000 
     62 N          20.1516  -16.6483   -6.7280 N.2       1 ALA2        0.0000 
     63 CA         19.1058  -15.6883   -7.2124 C.3       5 GLY6        0.0000 
     64 CA         18.0601  -14.7282   -7.6969 C.3       5 GLY6        0.0000 
     65 NZ         17.0143  -13.7682   -8.1813 N.2       3 LYS4        0.0000 
     66 CA         22.7726  -20.5695   -6.2231 C.3       5 GLY6        0.0000 
     67 CA         21.7268  -19.6094   -6.7076 C.3       5 GLY6        0.0000 
     68 CZ         20.6811  -18.6494   -7.1921 C.ar      4 PHE5        0.0000 
     69 CZ         19.6353  -17.6893   -7.6765 C.ar      4 PHE5        0.0000 
     70 CA         22.3455  -20.0230   -4.2184 C.3       5 GLY6        0.0000 
     71 CA         21.2998  -19.0630   -4.7028 C.3       5 GLY6        0.0000 
@<TRIPOS>BOND
@<TRIPOS>SUBSTRUCTURE
     1 ALA2        1 GROUP   
     2 ASP3       29 GROUP   
     3 LYS4       58 GROUP   
     4 PHE5       50 GROUP   
     5 GLY6        6 GROUP   
     6 CUB7       17 GROUP   
@<TRIPOS>SET

