#    Name: 3oho_Z79_1_INTS_M
#    Modification time : Tue Mar 25 04:38:35 2014

@<TRIPOS>MOLECULE
3oho_Z79_1_INTS_M
   51     0    12     0     0
SMALL
NO_CHARGES


@<TRIPOS>ATOM
      1 Zn         18.3585   -9.6255   -5.8835 Zn        3 ZIC7        0.0000 
      2 Zn         18.4420   -9.2640   -6.8290 Zn       11 ZIL7        0.0000 
      3 Zn         18.2750   -9.9870   -4.9380 Zn        7 ZIP7        0.0000 
      4 O          15.3730  -10.4945   -7.8455 O.2       1 ALC1        0.0000 
      5 O          16.4680  -10.3070   -7.0170 O.2       9 ALL1        0.0000 
      6 O          14.2780  -10.6820   -8.6740 O.2       5 ALP1        0.0000 
      7 Zn         17.3720  -10.2560   -5.3070 Zn        3 ZIC7        0.0000 
      8 Zn         16.4690  -10.5250   -5.6760 Zn       11 ZIL7        0.0000 
      9 O          15.1020  -11.1480   -5.2460 O.2       1 ALC1        0.0000 
     10 O          16.4690  -10.5250   -5.6760 O.2       9 ALL1        0.0000 
     11 O          13.7350  -11.7710   -4.8160 O.2       5 ALP1        0.0000 
     12 O          15.8315  -11.6650   -5.8850 O.2       1 ALC1        0.0000 
     13 O          15.1940  -12.8050   -6.0940 O.2       5 ALP1        0.0000 
     14 CA         15.7795   -9.1685  -10.4965 C.3       4 GLC5        0.0000 
     15 CA         17.4700   -9.4110   -9.0410 C.3      12 GLL5        0.0000 
     16 CA         14.0890   -8.9260  -11.9520 C.3       8 GLP5        0.0000 
     17 Zn         18.4805   -9.9615   -7.3175 Zn        3 ZIC7        0.0000 
     18 Zn         18.6860   -9.9360   -9.6970 Zn       11 ZIL7        0.0000 
     19 N          16.1715  -11.8035  -11.7830 N.am      2 SEC2        0.0000 
     20 N          16.9730  -11.5590  -10.7250 N.am     10 SEL2        0.0000 
     21 N          15.3700  -12.0480  -12.8410 N.am      6 SEP2        0.0000 
     22 N          15.3815  -12.0475  -10.6735 N.am      2 SEC2        0.0000 
     23 N          13.7900  -12.5360  -10.6220 N.am      6 SEP2        0.0000 
     24 CA         18.4005  -14.0690  -10.8280 C.3       4 GLC5        0.0000 
     25 CA         18.8010  -12.6530   -9.1450 C.3      12 GLL5        0.0000 
     26 CA         18.0000  -15.4850  -12.5110 C.3       8 GLP5        0.0000 
     27 CA         16.7615  -13.8540  -10.3605 C.3       4 GLC5        0.0000 
     28 CA         17.7810  -13.3010   -8.4450 C.3      12 GLL5        0.0000 
     29 CA         15.7420  -14.4070  -12.2760 C.3       8 GLP5        0.0000 
     30 CA         18.1475  -17.3875   -6.7475 C.3       4 GLC5        0.0000 
     31 CA         19.9290  -16.8500   -6.9560 C.3      12 GLL5        0.0000 
     32 CA         16.3660  -17.9250   -6.5390 C.3       8 GLP5        0.0000 
     33 CA         19.1850  -16.1000   -5.2845 C.3       4 GLC5        0.0000 
     34 CA         18.4410  -15.3500   -3.6130 C.3       8 GLP5        0.0000 
     35 CA         20.1350  -17.6260   -8.5990 C.3       4 GLC5        0.0000 
     36 CA         20.3410  -18.4020  -10.2420 C.3       8 GLP5        0.0000 
     37 CA         21.6340  -15.0485   -9.0845 C.3       4 GLC5        0.0000 
     38 CA         20.4450  -13.9680   -7.9670 C.3      12 GLL5        0.0000 
     39 CA         22.8230  -16.1290  -10.2020 C.3       8 GLP5        0.0000 
     40 CA         20.8505  -14.6680   -9.9845 C.3       4 GLC5        0.0000 
     41 CA         20.1320  -12.9890   -8.9080 C.3      12 GLL5        0.0000 
     42 CA         21.5690  -16.3470  -11.0610 C.3       8 GLP5        0.0000 
     43 CA         16.4845  -15.0587   -7.9802 C.3       4 GLC5        0.0000 
     44 CA         15.0300  -16.3260   -7.9860 C.3       8 GLP5        0.0000 
     45 CA         18.1165  -13.3547   -6.2453 C.3       4 GLC5        0.0000 
     46 CA         18.0970  -14.2820   -7.5040 C.3      12 GLL5        0.0000 
     47 CA         18.2940  -12.9180   -4.5160 C.3       8 GLP5        0.0000 
     48 CA         19.1158  -13.6055   -6.0660 C.3       4 GLC5        0.0000 
     49 CA         19.4300  -14.6180   -7.2650 C.3      12 GLL5        0.0000 
     50 CA         22.2218  -13.0663   -8.8977 C.3       4 GLC5        0.0000 
     51 CA         24.1550  -12.6540   -9.3580 C.3       8 GLP5        0.0000 
@<TRIPOS>BOND
@<TRIPOS>SUBSTRUCTURE
     1 ALC1        4 GROUP        1 X    ALC  0     ROOT ALC X 1
     2 SEC2       19 GROUP        1 X    SEC  0     **** SEC X 2
     3 ZIC7        1 GROUP        1 X    ZIC  0     **** ZIC X 5
     4 GLC5       14 GROUP        1 X    GLC  0     **** GLC X 6
     5 ALP1        6 GROUP        1 Y    ALP  0     ROOT ALP Y 8
     6 SEP2       21 GROUP        1 Y    SEP  0     **** SEP Y 9
     7 ZIP7        3 GROUP        1 Y    ZIP  0     **** ZIP Y 12
     8 GLP5       16 GROUP        1 Y    GLP  0     **** GLP Y 13
     9 ALL1        5 GROUP        1 Z    ALL  0     ROOT ALL Z 15
    10 SEL2       20 GROUP        1 Z    SEL  0     **** SEL Z 16
    11 ZIL7        2 GROUP        1 Z    ZIL  0     **** ZIL Z 19
    12 GLL5       15 GROUP        1 Z    GLL  0     **** GLL Z 20
@<TRIPOS>SET

