#    Name: 3oho_Z79_1_ligand
#    Modification time : Tue Mar 25 04:38:35 2014

@<TRIPOS>MOLECULE
3oho_Z79_1_ligand
   29    29     1     0     0
SMALL
NO_CHARGES


@<TRIPOS>ATOM
      1 O4         18.4420   -9.2640   -6.8290 O.2       1 Z79252      0.0000 
      2 C8         17.5070   -9.6560   -7.5240 C.2       1 Z79252      0.0000 
      3 N2         16.4680  -10.3070   -7.0170 N.am      1 Z79252      0.0000 
      4 O5         16.4690  -10.5250   -5.6760 O.3       1 Z79252      0.0000 
      5 C7         17.4700   -9.4110   -9.0410 C.3       1 Z79252      0.0000 
      6 N1         18.6860   -9.9360   -9.6970 N.pl3     1 Z79252      0.0000 
      7 S1         18.4160  -11.4280  -10.3290 S.o2      1 Z79252      0.0000 
      8 O1         19.2690  -11.6340  -11.5410 O.2       1 Z79252      0.0000 
      9 O2         16.9730  -11.5590  -10.7250 O.2       1 Z79252      0.0000 
     10 C3         18.8010  -12.6530   -9.1450 C.ar      1 Z79252      0.0000 
     11 C6         17.7810  -13.3010   -8.4450 C.ar      1 Z79252      0.0000 
     12 C5         18.0970  -14.2820   -7.5040 C.ar      1 Z79252      0.0000 
     13 C4         19.4300  -14.6180   -7.2650 C.ar      1 Z79252      0.0000 
     14 O3         19.7410  -15.5730   -6.3440 O.3       1 Z79252      0.0000 
     15 C9         19.9290  -16.8500   -6.9560 C.3       1 Z79252      0.0000 
     16 C2         20.4450  -13.9680   -7.9670 C.ar      1 Z79252      0.0000 
     17 C1         20.1320  -12.9890   -8.9080 C.ar      1 Z79252      0.0000 
     18 H          15.6913  -10.6372   -7.5983 H         1 Z79252      0.0000 
     19 H          17.3760   -8.3333   -9.2112 H         1 Z79252      0.0000 
     20 H          16.5753   -9.8968   -9.4442 H         1 Z79252      0.0000 
     21 H          19.5037   -9.5567   -9.7841 H         1 Z79252      0.0000 
     22 H          16.8008  -13.0559   -8.6226 H         1 Z79252      0.0000 
     23 H          17.3474  -14.7571   -6.9869 H         1 Z79252      0.0000 
     24 H          21.4283  -14.2127   -7.7890 H         1 Z79252      0.0000 
     25 H          20.8818  -12.5159   -9.4260 H         1 Z79252      0.0000 
     26 H          20.6694  -16.8344   -7.6280 H         1 Z79252      0.0000 
     27 H          20.1582  -17.5539   -6.2837 H         1 Z79252      0.0000 
     28 H          19.1061  -17.1577   -7.4336 H         1 Z79252      0.0000 
     29 H          16.0204  -11.4109   -5.5576 H         1 Z79252      0.0000 
@<TRIPOS>BOND
     1    2    1 2    
     2    3    2 am   
     3    5    2 1    
     4    4    3 1    
     5   18    3 1    
     6   29    4 1    
     7    6    5 1    
     8   19    5 1    
     9   20    5 1    
    10    7    6 1    
    11   21    6 1    
    12    8    7 2    
    13    9    7 2    
    14   10    7 1    
    15   11   10 ar   
    16   17   10 ar   
    17   12   11 ar   
    18   22   11 1    
    19   13   12 ar   
    20   23   12 1    
    21   14   13 1    
    22   16   13 ar   
    23   15   14 1    
    24   26   15 1    
    25   27   15 1    
    26   28   15 1    
    27   17   16 ar   
    28   24   16 1    
    29   25   17 1    
@<TRIPOS>SUBSTRUCTURE
     1 Z79252      1 GROUP   
@<TRIPOS>SET

