#    Name: 2v10_C61_1_INTS_M
#    Modification time : Tue Mar 25 00:40:19 2014

@<TRIPOS>MOLECULE
2v10_C61_1_INTS_M
   79     0     9     0     0
SMALL
NO_CHARGES


@<TRIPOS>ATOM
      1 CA         17.0765   44.7815   71.2360 C.3       3 GLC5        0.0000 
      2 CA         15.8790   43.9080   69.8030 C.3       9 GLL5        0.0000 
      3 CA         18.2740   45.6550   72.6690 C.3       6 GLP5        0.0000 
      4 CA         17.5695   43.3675   69.3945 C.3       3 GLC5        0.0000 
      5 CA         19.2600   42.8270   68.9860 C.3       6 GLP5        0.0000 
      6 CA         15.1945   44.9345   68.5290 C.3       3 GLC5        0.0000 
      7 CA         14.5100   45.9610   67.2550 C.3       6 GLP5        0.0000 
      8 CA         13.8730   43.7285   68.9460 C.3       3 GLC5        0.0000 
      9 CA         11.8670   43.5490   68.0890 C.3       6 GLP5        0.0000 
     10 N          17.4245   44.9260   70.5410 N.am      2 SEC2        0.0000 
     11 N          15.9160   45.0720   70.5930 N.am      8 SEL2        0.0000 
     12 N          18.9330   44.7800   70.4890 N.am      5 SEP2        0.0000 
     13 CA         16.4265   45.5900   71.7060 C.3       3 GLC5        0.0000 
     14 CA         14.5790   45.5250   70.7430 C.3       9 GLL5        0.0000 
     15 CA         14.5445   45.7430   68.9990 C.3       3 GLC5        0.0000 
     16 CA         13.2230   44.5370   69.4160 C.3       3 GLC5        0.0000 
     17 CA         11.6735   52.0625   76.0390 C.3       3 GLC5        0.0000 
     18 CA         12.9850   50.8150   76.0330 C.3       9 GLL5        0.0000 
     19 CA         10.3620   53.3100   76.0450 C.3       6 GLP5        0.0000 
     20 CA         14.1470   52.3235   76.8275 C.3       3 GLC5        0.0000 
     21 CA         15.3090   53.8320   77.6220 C.3       6 GLP5        0.0000 
     22 CA         11.2645   51.7880   74.8625 C.3       3 GLC5        0.0000 
     23 CA         12.1670   50.2660   73.6800 C.3       9 GLL5        0.0000 
     24 CA          6.9005   49.6860   70.3160 C.3       3 GLC5        0.0000 
     25 CA          9.0290   49.3830   70.8280 C.3       9 GLL5        0.0000 
     26 CA          4.7720   49.9890   69.8040 C.3       6 GLP5        0.0000 
     27 CA         10.4030   52.0765   69.5845 C.3       3 GLC5        0.0000 
     28 CA         10.1090   50.1360   68.7190 C.3       9 GLL5        0.0000 
     29 CA         10.6970   54.0170   70.4500 C.3       6 GLP5        0.0000 
     30 CA         12.0465   50.4795   69.3355 C.3       3 GLC5        0.0000 
     31 CA         13.9840   50.8230   69.9520 C.3       6 GLP5        0.0000 
     32 CA         12.4920   50.5830   68.2170 C.3       3 GLC5        0.0000 
     33 CA         10.7610   49.6390   67.6240 C.3       9 GLL5        0.0000 
     34 CA         14.2230   51.5270   68.8100 C.3       6 GLP5        0.0000 
     35 CA          9.6300   52.5310   67.4235 C.3       3 GLC5        0.0000 
     36 CA          8.8630   50.8840   68.3510 C.3       9 GLL5        0.0000 
     37 CA         10.3970   54.1780   66.4960 C.3       6 GLP5        0.0000 
     38 CA          9.0855   52.5335   69.4310 C.3       3 GLC5        0.0000 
     39 CA          9.3080   54.1830   70.5110 C.3       6 GLP5        0.0000 
     40 O           7.8655   45.7130   66.6570 O.2       1 ALC1        0.0000 
     41 O           7.3560   45.4270   68.1170 O.2       7 ALL1        0.0000 
     42 O           8.3750   45.9990   65.1970 O.2       4 ALP1        0.0000 
     43 CA          4.2860   41.7185   69.3585 C.3       3 GLC5        0.0000 
     44 CA          4.2640   43.6990   70.1740 C.3       9 GLL5        0.0000 
     45 CA          4.3080   39.7380   68.5430 C.3       6 GLP5        0.0000 
     46 CA          2.6640   43.1480   71.3930 C.3       3 GLC5        0.0000 
     47 CA          1.0640   42.5970   72.6120 C.3       6 GLP5        0.0000 
     48 N           3.2000   47.1940   70.3670 N.am      2 SEC2        0.0000 
     49 N           3.0710   46.2540   69.1210 N.am      8 SEL2        0.0000 
     50 N           3.3290   48.1340   71.6130 N.am      5 SEP2        0.0000 
     51 O           4.1395   44.6825   65.8845 O.2       1 ALC1        0.0000 
     52 O           3.8460   45.4150   67.1940 O.2       7 ALL1        0.0000 
     53 O           4.4330   43.9500   64.5750 O.2       4 ALP1        0.0000 
     54 CA          3.9485   49.4225   65.4275 C.3       3 GLC5        0.0000 
     55 CA          1.8600   49.1950   64.6810 C.3       9 GLL5        0.0000 
     56 CA          6.0370   49.6500   66.1740 C.3       6 GLP5        0.0000 
     57 CA         15.5715   47.4118   72.6180 C.3       3 GLC5        0.0000 
     58 CA         13.2840   47.2610   71.9710 C.3       9 GLL5        0.0000 
     59 CA         17.2570   48.0210   73.2260 C.3       6 GLP5        0.0000 
     60 CA         14.4920   48.4967   71.2880 C.3       3 GLC5        0.0000 
     61 CA         14.4880   46.3440   72.0490 C.3       9 GLL5        0.0000 
     62 CA         15.0980   50.1910   70.5660 C.3       6 GLP5        0.0000 
     63 CA          9.9555   52.2075   74.0080 C.3       3 GLC5        0.0000 
     64 CA         11.1220   51.1730   73.5130 C.3       9 GLL5        0.0000 
     65 CA          9.3030   53.3770   74.9660 C.3       6 GLP5        0.0000 
     66 CA          7.9905   51.1965   67.7725 C.3       3 GLC5        0.0000 
     67 CA          6.4950   51.8830   67.0100 C.3       6 GLP5        0.0000 
     68 CA         10.6100   50.0694   66.7486 C.3       3 GLC5        0.0000 
     69 CA         11.5710   49.7530   65.2360 C.3       6 GLP5        0.0000 
     70 CA          6.5337   48.1755   68.3005 C.3       3 GLC5        0.0000 
     71 CA          8.7830   47.9670   68.8090 C.3       9 GLL5        0.0000 
     72 CA          5.4520   49.3930   67.3990 C.3       6 GLP5        0.0000 
     73 CA          4.5876   45.4695   71.3851 C.3       3 GLC5        0.0000 
     74 CA          5.9280   45.6420   70.0680 C.3       9 GLL5        0.0000 
     75 CA          4.3100   46.4850   72.8570 C.3       6 GLP5        0.0000 
     76 CA          4.1195   46.7698   64.9137 C.3       3 GLC5        0.0000 
     77 CA          2.8010   45.9830   66.3790 C.3       9 GLL5        0.0000 
     78 CA          5.5180   46.8230   63.4550 C.3       6 GLP5        0.0000 
     79 CA          4.0865   48.0547   66.8858 C.3       3 GLC5        0.0000 
@<TRIPOS>BOND
@<TRIPOS>SUBSTRUCTURE
     1 ALC1       40 GROUP        1 X    ALC  0     ROOT ALC X 1
     2 SEC2       10 GROUP        1 X    SEC  0     **** SEC X 2
     3 GLC5        1 GROUP        1 X    GLC  0     **** GLC X 6
     4 ALP1       42 GROUP        1 Y    ALP  0     ROOT ALP Y 8
     5 SEP2       12 GROUP        1 Y    SEP  0     **** SEP Y 9
     6 GLP5        3 GROUP        1 Y    GLP  0     **** GLP Y 13
     7 ALL1       41 GROUP        1 Z    ALL  0     ROOT ALL Z 15
     8 SEL2       11 GROUP        1 Z    SEL  0     **** SEL Z 16
     9 GLL5        2 GROUP        1 Z    GLL  0     **** GLL Z 20
@<TRIPOS>SET

