#    Name: 2v10_C61_1_ligand
#    Modification time : Tue Mar 25 00:40:19 2014

@<TRIPOS>MOLECULE
2v10_C61_1_ligand
   83    83     1     0     0
SMALL
NO_CHARGES


@<TRIPOS>ATOM
      1 C2         15.8790   43.9080   69.8030 C.3       1 C611341     0.0000 
      2 O3         15.9160   45.0720   70.5930 O.3       1 C611341     0.0000 
      3 C4         14.5790   45.5250   70.7430 C.3       1 C611341     0.0000 
      4 C5         14.4880   46.3440   72.0490 C.3       1 C611341     0.0000 
      5 C6         13.2840   47.2610   71.9710 C.3       1 C611341     0.0000 
      6 O7         13.2370   48.1260   73.0990 O.3       1 C611341     0.0000 
      7 O8         13.2170   50.5430   74.6170 O.3       1 C611341     0.0000 
      8 C9         12.9850   50.8150   76.0330 C.3       1 C611341     0.0000 
      9 C10        11.1500   48.8150   72.0110 C.ar      1 C611341     0.0000 
     10 C11        12.1830   49.0900   72.9270 C.ar      1 C611341     0.0000 
     11 C12        12.1670   50.2660   73.6800 C.ar      1 C611341     0.0000 
     12 C13        11.1220   51.1730   73.5130 C.ar      1 C611341     0.0000 
     13 C14        10.0940   50.9030   72.5870 C.ar      1 C611341     0.0000 
     14 C15        10.1070   49.7130   71.8460 C.ar      1 C611341     0.0000 
     15 C16         9.0290   49.3830   70.8280 C.3       1 C611341     0.0000 
     16 C17         9.7250   48.8990   69.5560 C.3       1 C611341     0.0000 
     17 C18        10.1090   50.1360   68.7190 C.3       1 C611341     0.0000 
     18 C19        10.7610   49.6390   67.6240 C.3       1 C611341     0.0000 
     19 C20         8.8630   50.8840   68.3510 C.3       1 C611341     0.0000 
     20 C21         8.7830   47.9670   68.8090 C.3       1 C611341     0.0000 
     21 C22         7.9910   47.1110   69.8190 C.3       1 C611341     0.0000 
     22 N23         8.8850   46.1350   70.4350 N.4       1 C611341     0.0000 
     23 C24         6.8440   46.3770   69.0900 C.3       1 C611341     0.0000 
     24 O25         7.3560   45.4270   68.1170 O.3       1 C611341     0.0000 
     25 C26         5.9280   45.6420   70.0680 C.3       1 C611341     0.0000 
     26 C27         5.0050   44.7760   69.2370 C.3       1 C611341     0.0000 
     27 C28         4.2640   43.6990   70.1740 C.3       1 C611341     0.0000 
     28 C29         3.8940   45.5660   68.5060 C.2       1 C611341     0.0000 
     29 O30         3.0710   46.2540   69.1210 O.2       1 C611341     0.0000 
     30 N31         3.8460   45.4150   67.1940 N.am      1 C611341     0.0000 
     31 C32         2.8010   45.9830   66.3790 C.3       1 C611341     0.0000 
     32 C33         2.6410   47.4500   66.3660 C.3       1 C611341     0.0000 
     33 C34         1.5180   47.8620   65.3930 C.3       1 C611341     0.0000 
     34 C35         1.8600   49.1950   64.6810 C.3       1 C611341     0.0000 
     35 H          13.8685   44.7026   70.8249 H         1 C611341     0.0000 
     36 H          14.2677   46.1777   69.9277 H         1 C611341     0.0000 
     37 H          15.3905   46.9276   72.1586 H         1 C611341     0.0000 
     38 H          14.3808   45.6633   72.8810 H         1 C611341     0.0000 
     39 H          12.3826   46.6304   71.9054 H         1 C611341     0.0000 
     40 H          13.3510   47.8273   71.0279 H         1 C611341     0.0000 
     41 H          11.1779   47.9433   71.4676 H         1 C611341     0.0000 
     42 H          11.0945   52.0390   74.0606 H         1 C611341     0.0000 
     43 H           9.3365   51.5807   72.4576 H         1 C611341     0.0000 
     44 H           8.4542   50.2659   70.6070 H         1 C611341     0.0000 
     45 H           8.3957   48.6002   71.2088 H         1 C611341     0.0000 
     46 H          10.6135   48.3744   69.8333 H         1 C611341     0.0000 
     47 H          10.7307   50.7474   69.3408 H         1 C611341     0.0000 
     48 H           9.3529   47.3104   68.1634 H         1 C611341     0.0000 
     49 H           8.0855   48.5476   68.2181 H         1 C611341     0.0000 
     50 H           7.5644   47.7614   70.5534 H         1 C611341     0.0000 
     51 H           6.2395   47.1333   68.5811 H         1 C611341     0.0000 
     52 H           5.3549   46.3580   70.6263 H         1 C611341     0.0000 
     53 H           6.5210   45.0269   70.7181 H         1 C611341     0.0000 
     54 H           5.5590   44.2072   68.5141 H         1 C611341     0.0000 
     55 H           4.5782   44.8655   66.6746 H         1 C611341     0.0000 
     56 H           1.8029   45.5219   66.6696 H         1 C611341     0.0000 
     57 H           2.9276   45.6324   65.3046 H         1 C611341     0.0000 
     58 H           3.5639   47.9374   66.0452 H         1 C611341     0.0000 
     59 H           2.3817   47.8201   67.3600 H         1 C611341     0.0000 
     60 H           0.5921   47.9854   65.9466 H         1 C611341     0.0000 
     61 H           1.3897   47.0855   64.6450 H         1 C611341     0.0000 
     62 H          16.7928   43.5291   69.6570 H         1 C611341     0.0000 
     63 H          15.3278   43.1891   70.2265 H         1 C611341     0.0000 
     64 H          15.4870   44.0843   68.9001 H         1 C611341     0.0000 
     65 H          13.8398   50.9840   76.5236 H         1 C611341     0.0000 
     66 H          12.4063   51.6195   76.1667 H         1 C611341     0.0000 
     67 H          12.5319   50.0490   76.4890 H         1 C611341     0.0000 
     68 H          11.2102   50.3621   67.0993 H         1 C611341     0.0000 
     69 H          11.4683   48.9802   67.8802 H         1 C611341     0.0000 
     70 H          10.1355   49.1699   67.0005 H         1 C611341     0.0000 
     71 H           9.0656   51.6982   67.8069 H         1 C611341     0.0000 
     72 H           8.2366   50.3201   67.8127 H         1 C611341     0.0000 
     73 H           8.3607   51.1896   69.1599 H         1 C611341     0.0000 
     74 H           9.2940   45.5255   69.7559 H         1 C611341     0.0000 
     75 H           9.6376   46.5769   70.9232 H         1 C611341     0.0000 
     76 H           8.4057   45.5577   71.0960 H         1 C611341     0.0000 
     77 H           4.9159   43.0971   70.6352 H         1 C611341     0.0000 
     78 H           3.7176   44.1398   70.8861 H         1 C611341     0.0000 
     79 H           3.6452   43.1140   69.6497 H         1 C611341     0.0000 
     80 H           1.9782   49.9444   65.3325 H         1 C611341     0.0000 
     81 H           2.7075   49.1280   64.1544 H         1 C611341     0.0000 
     82 H           1.1402   49.4712   64.0441 H         1 C611341     0.0000 
     83 H           7.5374   45.9693   67.2966 H         1 C611341     0.0000 
@<TRIPOS>BOND
     1    2    1 1    
     2   62    1 1    
     3   63    1 1    
     4   64    1 1    
     5    3    2 1    
     6    4    3 1    
     7   35    3 1    
     8   36    3 1    
     9    5    4 1    
    10   37    4 1    
    11   38    4 1    
    12    6    5 1    
    13   39    5 1    
    14   40    5 1    
    15   10    6 1    
    16    8    7 1    
    17   11    7 1    
    18   65    8 1    
    19   66    8 1    
    20   67    8 1    
    21   10    9 ar   
    22   14    9 ar   
    23   41    9 1    
    24   11   10 ar   
    25   12   11 ar   
    26   13   12 ar   
    27   42   12 1    
    28   14   13 ar   
    29   43   13 1    
    30   15   14 1    
    31   16   15 1    
    32   44   15 1    
    33   45   15 1    
    34   17   16 1    
    35   20   16 1    
    36   46   16 1    
    37   18   17 1    
    38   19   17 1    
    39   47   17 1    
    40   68   18 1    
    41   69   18 1    
    42   70   18 1    
    43   71   19 1    
    44   72   19 1    
    45   73   19 1    
    46   21   20 1    
    47   48   20 1    
    48   49   20 1    
    49   22   21 1    
    50   23   21 1    
    51   50   21 1    
    52   74   22 1    
    53   75   22 1    
    54   76   22 1    
    55   24   23 1    
    56   25   23 1    
    57   51   23 1    
    58   83   24 1    
    59   26   25 1    
    60   52   25 1    
    61   53   25 1    
    62   27   26 1    
    63   28   26 1    
    64   54   26 1    
    65   77   27 1    
    66   78   27 1    
    67   79   27 1    
    68   29   28 2    
    69   30   28 am   
    70   31   30 1    
    71   55   30 1    
    72   32   31 1    
    73   56   31 1    
    74   57   31 1    
    75   33   32 1    
    76   58   32 1    
    77   59   32 1    
    78   34   33 1    
    79   60   33 1    
    80   61   33 1    
    81   80   34 1    
    82   81   34 1    
    83   82   34 1    
@<TRIPOS>SUBSTRUCTURE
     1 C611341     1 GROUP   
@<TRIPOS>SET

