#    Name: 2wu1_FGS_2_INTS_M
#    Modification time : Tue Mar 25 04:41:38 2014

@<TRIPOS>MOLECULE
2wu1_FGS_2_INTS_M
   44     0     9     0     0
SMALL
NO_CHARGES


@<TRIPOS>ATOM
      1 NZ        -14.8560  -18.2660   52.4360 N.4       2 LYC4        0.0000 
      2 NZ        -16.1090  -18.5200   52.8200 N.4       8 LYL4        0.0000 
      3 NZ        -13.6030  -18.0120   52.0520 N.4       5 LYP4        0.0000 
      4 N         -14.8560  -18.2660   52.4360 N.am      1 SEC2        0.0000 
      5 N         -16.1090  -18.5200   52.8200 N.am      7 SEL2        0.0000 
      6 N         -13.6030  -18.0120   52.0520 N.am      4 SEP2        0.0000 
      7 N         -18.1960  -21.1210   55.1525 N.am      1 SEC2        0.0000 
      8 N         -17.8280  -19.7040   54.5920 N.am      7 SEL2        0.0000 
      9 N         -18.5640  -22.5380   55.7130 N.am      4 SEP2        0.0000 
     10 NZ        -14.4590  -18.8920   53.4735 N.4       2 LYC4        0.0000 
     11 NZ        -15.3150  -19.7720   54.8950 N.4       8 LYL4        0.0000 
     12 N         -15.5770  -21.3635   55.2240 N.am      1 SEC2        0.0000 
     13 N         -15.3150  -19.7720   54.8950 N.am      7 SEL2        0.0000 
     14 N         -15.8390  -22.9550   55.5530 N.am      4 SEP2        0.0000 
     15 CA        -17.3100  -12.1920   54.1290 C.3       3 GLC5        0.0000 
     16 CA        -18.1860  -14.1550   53.7860 C.3       9 GLL5        0.0000 
     17 CA        -16.4340  -10.2290   54.4720 C.3       6 GLP5        0.0000 
     18 CA        -19.5980  -12.6130   53.9950 C.3       3 GLC5        0.0000 
     19 CA        -21.0100  -11.0710   54.2040 C.3       6 GLP5        0.0000 
     20 N         -18.2900  -12.5460   54.1795 N.am      1 SEC2        0.0000 
     21 N         -19.5070  -13.6510   53.7770 N.am      7 SEL2        0.0000 
     22 N         -17.0730  -11.4410   54.5820 N.am      4 SEP2        0.0000 
     23 N         -20.5170  -14.6360   53.6610 N.am      1 SEC2        0.0000 
     24 N         -21.5270  -15.6210   53.5450 N.am      4 SEP2        0.0000 
     25 CA        -15.5685  -13.7175   52.2495 C.3       3 GLC5        0.0000 
     26 CA        -17.1240  -14.0270   51.3890 C.3       9 GLL5        0.0000 
     27 CA        -14.0130  -13.4080   53.1100 C.3       6 GLP5        0.0000 
     28 CA        -15.9435  -13.5865   49.8710 C.3       3 GLC5        0.0000 
     29 CA        -14.7630  -13.1460   48.3530 C.3       6 GLP5        0.0000 
     30 N         -15.7560  -12.9670   51.0430 N.am      1 SEC2        0.0000 
     31 N         -17.3910  -12.6450   51.3740 N.am      7 SEL2        0.0000 
     32 N         -14.1210  -13.2890   50.7120 N.am      4 SEP2        0.0000 
     33 N         -17.2320  -12.0430   52.9780 N.am      1 SEC2        0.0000 
     34 CA        -20.2395  -16.1725   50.6825 C.3       3 GLC5        0.0000 
     35 CA        -19.9750  -18.0400   51.4590 C.3       9 GLL5        0.0000 
     36 CA        -20.5040  -14.3050   49.9060 C.3       6 GLP5        0.0000 
     37 CA        -21.9320  -17.0670   51.8395 C.3       3 GLC5        0.0000 
     38 CA        -23.8890  -16.0940   52.2200 C.3       6 GLP5        0.0000 
     39 CA        -21.3560  -19.2130   52.5015 C.3       3 GLC5        0.0000 
     40 CA        -22.7370  -20.3860   53.5440 C.3       6 GLP5        0.0000 
     41 CA        -15.0425  -14.5757   54.0645 C.3       3 GLC5        0.0000 
     42 CA        -15.8160  -16.3920   54.6810 C.3       9 GLL5        0.0000 
     43 CA        -16.0027  -13.9688   53.1210 C.3       3 GLC5        0.0000 
     44 CA        -18.9827  -14.3852   50.9198 C.3       3 GLC5        0.0000 
@<TRIPOS>BOND
@<TRIPOS>SUBSTRUCTURE
     1 SEC2        4 GROUP        1 X    SEC  0     ROOT SEC X 2
     2 LYC4        1 GROUP        1 X    LYC  0     **** LYC X 4
     3 GLC5       15 GROUP        1 X    GLC  0     **** GLC X 6
     4 SEP2        6 GROUP        1 Y    SEP  0     ROOT SEP Y 9
     5 LYP4        3 GROUP        1 Y    LYP  0     **** LYP Y 11
     6 GLP5       17 GROUP        1 Y    GLP  0     **** GLP Y 13
     7 SEL2        5 GROUP        1 Z    SEL  0     ROOT SEL Z 16
     8 LYL4        2 GROUP        1 Z    LYL  0     **** LYL Z 18
     9 GLL5       16 GROUP        1 Z    GLL  0     **** GLL Z 20
@<TRIPOS>SET

