#    Name: 2wu1_FGS_2_ligand
#    Modification time : Tue Mar 25 04:41:38 2014

@<TRIPOS>MOLECULE
2wu1_FGS_2_ligand
   35    34     1     0     0
SMALL
NO_CHARGES


@<TRIPOS>ATOM
      1 O18       -16.1090  -18.5200   52.8200 O.co2     1 FGS1568     0.0000 
      2 P15       -16.3710  -18.9120   54.3950 P.3       1 FGS1568     0.0000 
      3 O16       -17.8280  -19.7040   54.5920 O.co2     1 FGS1568     0.0000 
      4 O17       -15.3150  -19.7720   54.8950 O.co2     1 FGS1568     0.0000 
      5 O12       -16.2840  -17.5450   55.3060 O.3       1 FGS1568     0.0000 
      6 C10       -15.8160  -16.3920   54.6810 C.3       1 FGS1568     0.0000 
      7 C7        -16.3280  -15.0950   55.3570 C.3       1 FGS1568     0.0000 
      8 O4        -15.9930  -15.1010   56.7310 O.3       1 FGS1568     0.0000 
      9 C1        -17.8330  -14.9030   55.1030 C.3       1 FGS1568     0.0000 
     10 O6        -18.5110  -14.4010   56.2280 O.3       1 FGS1568     0.0000 
     11 C2        -18.1860  -14.1550   53.7860 C.3       1 FGS1568     0.0000 
     12 O8        -19.5070  -13.6510   53.7770 O.3       1 FGS1568     0.0000 
     13 C3        -17.7990  -14.9040   52.4780 C.3       1 FGS1568     0.0000 
     14 C19       -17.1240  -14.0270   51.3890 C.3       1 FGS1568     0.0000 
     15 O20       -17.3910  -12.6450   51.3740 O.3       1 FGS1568     0.0000 
     16 N19       -18.9120  -15.7290   51.9860 N.am      1 FGS1568     0.0000 
     17 C21       -18.7220  -17.1350   51.6060 C.2       1 FGS1568     0.0000 
     18 O22       -17.6790  -17.4900   51.1600 O.2       1 FGS1568     0.0000 
     19 C23       -19.9750  -18.0400   51.4590 C.3       1 FGS1568     0.0000 
     20 H         -16.1221  -16.3304   53.6144 H         1 FGS1568     0.0000 
     21 H         -14.7066  -16.3271   54.6804 H         1 FGS1568     0.0000 
     22 H         -15.8090  -14.2640   54.8391 H         1 FGS1568     0.0000 
     23 H         -18.2248  -15.9775   54.9213 H         1 FGS1568     0.0000 
     24 H         -17.4756  -13.2371   53.7963 H         1 FGS1568     0.0000 
     25 H         -16.9800  -15.6415   52.8115 H         1 FGS1568     0.0000 
     26 H         -17.3889  -14.5100   50.3962 H         1 FGS1568     0.0000 
     27 H         -16.0105  -14.2320   51.4745 H         1 FGS1568     0.0000 
     28 H         -19.8354  -15.3157   51.9071 H         1 FGS1568     0.0000 
     29 H         -19.7304  -18.9728   51.1941 H         1 FGS1568     0.0000 
     30 H         -20.4896  -18.1035   52.3140 H         1 FGS1568     0.0000 
     31 H         -20.6041  -17.6932   50.7633 H         1 FGS1568     0.0000 
     32 H         -16.8248  -14.8062   57.2014 H         1 FGS1568     0.0000 
     33 H         -19.0930  -15.1535   56.5363 H         1 FGS1568     0.0000 
     34 H         -19.7873  -13.6429   54.7369 H         1 FGS1568     0.0000 
     35 H         -18.1092  -12.5129   52.0572 H         1 FGS1568     0.0000 
@<TRIPOS>BOND
     1    2    1 ar   
     2    3    2 ar   
     3    4    2 ar   
     4    5    2 1    
     5    6    5 1    
     6    7    6 1    
     7   20    6 1    
     8   21    6 1    
     9    8    7 1    
    10    9    7 1    
    11   22    7 1    
    12   32    8 1    
    13   10    9 1    
    14   11    9 1    
    15   23    9 1    
    16   33   10 1    
    17   12   11 1    
    18   13   11 1    
    19   24   11 1    
    20   34   12 1    
    21   14   13 1    
    22   16   13 1    
    23   25   13 1    
    24   15   14 1    
    25   26   14 1    
    26   27   14 1    
    27   35   15 1    
    28   17   16 am   
    29   28   16 1    
    30   18   17 2    
    31   19   17 1    
    32   29   19 1    
    33   30   19 1    
    34   31   19 1    
@<TRIPOS>SUBSTRUCTURE
     1 FGS1568     1 GROUP   
@<TRIPOS>SET

