#    Name: 3ua1_08Y_1_INTS_M
#    Modification time : Mon Mar 24 22:04:04 2014

@<TRIPOS>MOLECULE
3ua1_08Y_1_INTS_M
   84     0     6     0     0
SMALL
NO_CHARGES


@<TRIPOS>ATOM
      1 CA         25.5275   14.5150  -13.7005 C.3       2 GLC5        0.0000 
      2 CA         23.6580   14.1470  -14.6410 C.3       6 GLL5        0.0000 
      3 CA         27.3970   14.8830  -12.7600 C.3       4 GLP5        0.0000 
      4 CA         26.2290   13.4780  -17.3820 C.3       2 GLC5        0.0000 
      5 CA         24.4360   13.1960  -16.7820 C.3       6 GLL5        0.0000 
      6 CA         28.0220   13.7600  -17.9820 C.3       4 GLP5        0.0000 
      7 CA         24.6415   15.2420  -17.5160 C.3       2 GLC5        0.0000 
      8 CA         24.8470   17.2880  -18.2500 C.3       4 GLP5        0.0000 
      9 CA         23.4165   12.6995  -18.1835 C.3       2 GLC5        0.0000 
     10 CA         22.3970   12.2030  -19.5850 C.3       4 GLP5        0.0000 
     11 CA         25.0690   13.8925  -12.1665 C.3       2 GLC5        0.0000 
     12 CA         23.5340   12.5730  -12.6700 C.3       6 GLL5        0.0000 
     13 CA         26.6040   15.2120  -11.6630 C.3       4 GLP5        0.0000 
     14 CA         24.0585    9.4990  -10.8390 C.3       2 GLC5        0.0000 
     15 CA         25.3080   10.8480  -10.8220 C.3       6 GLL5        0.0000 
     16 CA         22.8090    8.1500  -10.8560 C.3       4 GLP5        0.0000 
     17 CA         25.6415    9.6515   -8.1200 C.3       2 GLC5        0.0000 
     18 CA         26.1410    9.8830  -10.2050 C.3       6 GLL5        0.0000 
     19 CA         25.1420    9.4200   -6.0350 C.3       4 GLP5        0.0000 
     20 O          29.4580    8.1545  -12.9945 O.2       1 ALC1        0.0000 
     21 O          28.0370    8.6860  -13.2580 O.2       5 ALL1        0.0000 
     22 O          30.8790    7.6230  -12.7310 O.2       3 ALP1        0.0000 
     23 CA         29.0060    8.4140  -17.9540 C.3       2 GLC5        0.0000 
     24 CA         28.5630    8.8250  -16.2020 C.3       6 GLL5        0.0000 
     25 CA         29.4490    8.0030  -19.7060 C.3       4 GLP5        0.0000 
     26 CA         28.1380   10.1390  -17.4080 C.3       2 GLC5        0.0000 
     27 CA         27.7130   11.4530  -18.6140 C.3       4 GLP5        0.0000 
     28 CA         28.0405    6.7690  -16.1065 C.3       2 GLC5        0.0000 
     29 CA         27.5180    4.7130  -16.0110 C.3       4 GLP5        0.0000 
     30 CA         29.5935    7.1935  -15.0560 C.3       2 GLC5        0.0000 
     31 CA         30.6240    5.5620  -13.9100 C.3       4 GLP5        0.0000 
     32 CA         17.6940   13.6635  -14.9360 C.3       2 GLC5        0.0000 
     33 CA         18.8360   14.3270  -13.1660 C.3       6 GLL5        0.0000 
     34 CA         16.5520   13.0000  -16.7060 C.3       4 GLP5        0.0000 
     35 CA         18.7805   17.6665  -15.5340 C.3       2 GLC5        0.0000 
     36 CA         18.7650   16.4840  -14.3740 C.3       6 GLL5        0.0000 
     37 CA         18.7960   18.8490  -16.6940 C.3       4 GLP5        0.0000 
     38 CA         16.9660   16.1490  -15.5280 C.3       2 GLC5        0.0000 
     39 CA         15.1670   15.8140  -16.6820 C.3       4 GLP5        0.0000 
     40 CA         19.1545   17.4820   -7.2600 C.3       2 GLC5        0.0000 
     41 CA         20.3390   17.6500   -8.9570 C.3       6 GLL5        0.0000 
     42 CA         17.9700   17.3140   -5.5630 C.3       4 GLP5        0.0000 
     43 CA         23.9225   15.3765   -5.7620 C.3       2 GLC5        0.0000 
     44 CA         22.1350   16.6550   -6.1380 C.3       6 GLL5        0.0000 
     45 CA         25.7100   14.0980   -5.3860 C.3       4 GLP5        0.0000 
     46 CA         20.0525   16.9845   -5.8505 C.3       2 GLC5        0.0000 
     47 CA         21.8435   15.5945   -4.8215 C.3       2 GLC5        0.0000 
     48 CA         21.5520   14.5340   -3.5050 C.3       4 GLP5        0.0000 
     49 CA         22.0065   18.2025   -4.8590 C.3       2 GLC5        0.0000 
     50 CA         21.8780   19.7500   -3.5800 C.3       4 GLP5        0.0000 
     51 CA         24.5955   14.9790   -6.7325 C.3       2 GLC5        0.0000 
     52 CA         23.4810   15.8600   -8.0790 C.3       6 GLL5        0.0000 
     53 CA         25.5410   16.6215   -7.8660 C.3       2 GLC5        0.0000 
     54 CA         27.6010   17.3830   -7.6530 C.3       4 GLP5        0.0000 
     55 CA         25.1315   15.1910   -9.2655 C.3       2 GLC5        0.0000 
     56 CA         26.7820   14.5220  -10.4520 C.3       4 GLP5        0.0000 
     57 CA         24.2055   17.8885   -7.9700 C.3       2 GLC5        0.0000 
     58 CA         24.9300   19.9170   -7.8610 C.3       4 GLP5        0.0000 
     59 CA         19.2110   22.3955   -8.5625 C.3       2 GLC5        0.0000 
     60 CA         19.3510   21.3100   -9.7900 C.3       6 GLL5        0.0000 
     61 CA         19.0710   23.4810   -7.3350 C.3       4 GLP5        0.0000 
     62 CA         19.8105   22.8310   -9.5785 C.3       2 GLC5        0.0000 
     63 CA         19.2300   21.7660  -11.2450 C.3       6 GLL5        0.0000 
     64 CA         20.3910   23.8960   -7.9120 C.3       4 GLP5        0.0000 
     65 CA         21.9205   21.3775  -12.2255 C.3       2 GLC5        0.0000 
     66 CA         19.8260   20.6360  -12.0780 C.3       6 GLL5        0.0000 
     67 CA         24.0150   22.1190  -12.3730 C.3       4 GLP5        0.0000 
     68 CA         26.1792   13.5320  -13.2743 C.3       2 GLC5        0.0000 
     69 CA         24.6680   11.9970  -13.0990 C.3       6 GLL5        0.0000 
     70 CA         26.9028   12.0987  -16.3115 C.3       2 GLC5        0.0000 
     71 CA         25.9120   11.2160  -15.2920 C.3       6 GLL5        0.0000 
     72 CA         28.2220   12.4070  -17.7380 C.3       4 GLP5        0.0000 
     73 CA         27.6944   12.1166  -14.1611 C.3       2 GLC5        0.0000 
     74 CA         29.1730   13.4900  -13.8560 C.3       4 GLP5        0.0000 
     75 CA         18.2127   14.1915  -11.3835 C.3       2 GLC5        0.0000 
     76 CA         17.5010   13.2970   -9.6720 C.3       4 GLP5        0.0000 
     77 CA         22.3193   18.9458   -8.1205 C.3       2 GLC5        0.0000 
     78 CA         23.6020   20.2430   -7.5910 C.3       4 GLP5        0.0000 
     79 CA         22.8638   18.3760   -7.2367 C.3       2 GLC5        0.0000 
     80 CA         22.1160   16.3630   -7.6270 C.3       6 GLL5        0.0000 
     81 CA         20.4015   22.9405  -12.2602 C.3       2 GLC5        0.0000 
     82 CA         21.2750   24.6800  -12.8590 C.3       4 GLP5        0.0000 
     83 CA         25.2144    8.6054  -11.6454 C.3       2 GLC5        0.0000 
     84 CA         23.8310    7.4960  -11.8040 C.3       4 GLP5        0.0000 
@<TRIPOS>BOND
@<TRIPOS>SUBSTRUCTURE
     1 ALC1       20 GROUP        1 X    ALC  0     ROOT ALC X 1
     2 GLC5        1 GROUP        1 X    GLC  0     **** GLC X 6
     3 ALP1       22 GROUP        1 Y    ALP  0     ROOT ALP Y 8
     4 GLP5        3 GROUP        1 Y    GLP  0     **** GLP Y 13
     5 ALL1       21 GROUP        1 Z    ALL  0     ROOT ALL Z 15
     6 GLL5        2 GROUP        1 Z    GLL  0     **** GLL Z 20
@<TRIPOS>SET

