#    Name: 3ua1_08Y_1_ligand
#    Modification time : Mon Mar 24 22:04:04 2014

@<TRIPOS>MOLECULE
3ua1_08Y_1_ligand
   84    90     1     0     0
SMALL
NO_CHARGES


@<TRIPOS>ATOM
      1 O5         23.0520   15.0830  -11.6510 O.2       1 08Y600      0.0000 
      2 C15        22.4240   14.7890  -12.6700 C.2       1 08Y600      0.0000 
      3 C16        22.7830   13.5900  -13.5080 C.3       1 08Y600      0.0000 
      4 C18        23.6580   14.1470  -14.6410 C.3       1 08Y600      0.0000 
      5 N4         24.2580   13.0230  -15.3440 N.4       1 08Y600      0.0000 
      6 C27        24.4360   13.1960  -16.7820 C.3       1 08Y600      0.0000 
      7 C22        23.5340   12.5730  -12.6700 C.2       1 08Y600      0.0000 
      8 C21        24.6680   11.9970  -13.0990 C.2       1 08Y600      0.0000 
      9 C24        25.4020   11.0350  -12.2030 C.ar      1 08Y600      0.0000 
     10 C30        25.3080   10.8480  -10.8220 C.ar      1 08Y600      0.0000 
     11 C32        26.1410    9.8830  -10.2050 C.ar      1 08Y600      0.0000 
     12 C31        27.0950    9.0960  -10.8940 C.ar      1 08Y600      0.0000 
     13 C28        27.2610    9.2400  -12.2830 C.ar      1 08Y600      0.0000 
     14 C26        26.3860   10.2450  -12.9280 C.ar      1 08Y600      0.0000 
     15 C25        26.6530   10.2960  -14.3530 C.2       1 08Y600      0.0000 
     16 C23        25.9120   11.2160  -15.2920 C.3       1 08Y600      0.0000 
     17 C17        25.2550   12.3650  -14.4780 C.3       1 08Y600      0.0000 
     18 C29        27.7130    9.2700  -14.4470 C.2       1 08Y600      0.0000 
     19 N5         28.0370    8.6860  -13.2580 N.pl3     1 08Y600      0.0000 
     20 BR         28.5630    8.8250  -16.2020 Br        1 08Y600      0.0000 
     21 N3         21.4180   15.5190  -13.1710 N.am      1 08Y600      0.0000 
     22 C5         20.3830   16.2530  -12.4480 C.3       1 08Y600      0.0000 
     23 O1         20.6370   17.6620  -12.6000 O.3       1 08Y600      0.0000 
     24 C11        19.0130   15.8450  -13.0240 C.3       1 08Y600      0.0000 
     25 C14        18.8360   14.3270  -13.1660 C.3       1 08Y600      0.0000 
     26 C13        18.7650   16.4840  -14.3740 C.3       1 08Y600      0.0000 
     27 C8         20.3700   16.1150  -10.9350 C.2       1 08Y600      0.0000 
     28 O3         20.1720   15.0440  -10.3690 O.2       1 08Y600      0.0000 
     29 N1         20.5950   17.2990  -10.3620 N.am      1 08Y600      0.0000 
     30 C3         20.3390   17.6500   -8.9570 C.3       1 08Y600      0.0000 
     31 C10        21.7340   17.6470   -8.3430 C.3       1 08Y600      0.0000 
     32 C12        22.1160   16.3630   -7.6270 C.3       1 08Y600      0.0000 
     33 C20        22.1350   16.6550   -6.1380 C.3       1 08Y600      0.0000 
     34 C19        23.4810   15.8600   -8.0790 C.3       1 08Y600      0.0000 
     35 C9         19.7960   19.0660   -8.7590 C.2       1 08Y600      0.0000 
     36 O4         19.5360   19.4740   -7.6290 O.2       1 08Y600      0.0000 
     37 N2         19.6370   19.8760   -9.8230 N.am      1 08Y600      0.0000 
     38 C6         19.3510   21.3100   -9.7900 C.3       1 08Y600      0.0000 
     39 C7         19.2300   21.7660  -11.2450 C.3       1 08Y600      0.0000 
     40 C4         19.8260   20.6360  -12.0780 C.3       1 08Y600      0.0000 
     41 C1         19.6690   19.3880  -11.2050 C.3       1 08Y600      0.0000 
     42 C2         20.7850   18.3540  -11.3450 C.3       1 08Y600      0.0000 
     43 O2         22.0760   18.9570  -11.1260 O.3       1 08Y600      0.0000 
     44 H          21.9059   13.1716  -13.9228 H         1 08Y600      0.0000 
     45 H          24.4144   14.7881  -14.1999 H         1 08Y600      0.0000 
     46 H          23.0256   14.7341  -15.2991 H         1 08Y600      0.0000 
     47 H          23.3266   12.2156  -15.2830 H         1 08Y600      0.0000 
     48 H          23.1012   12.3676  -11.7555 H         1 08Y600      0.0000 
     49 H          24.6571   11.3896  -10.2627 H         1 08Y600      0.0000 
     50 H          26.0445    9.7422   -9.1684 H         1 08Y600      0.0000 
     51 H          27.6635    8.4214  -10.3760 H         1 08Y600      0.0000 
     52 H          25.1320   10.6737  -15.8103 H         1 08Y600      0.0000 
     53 H          26.5966   11.6513  -16.0082 H         1 08Y600      0.0000 
     54 H          26.0700   13.1156  -14.2994 H         1 08Y600      0.0000 
     55 H          28.6978    8.0024  -13.1295 H         1 08Y600      0.0000 
     56 H          21.3226   15.6024  -14.2501 H         1 08Y600      0.0000 
     57 H          18.2343   16.2047  -12.3398 H         1 08Y600      0.0000 
     58 H          19.7567   16.9443   -8.4646 H         1 08Y600      0.0000 
     59 H          21.8114   18.4925   -7.6310 H         1 08Y600      0.0000 
     60 H          22.4751   17.8474   -9.1421 H         1 08Y600      0.0000 
     61 H          21.3731   15.6170   -7.8235 H         1 08Y600      0.0000 
     62 H          20.1545   21.8589   -9.3239 H         1 08Y600      0.0000 
     63 H          18.4173   21.5116   -9.2883 H         1 08Y600      0.0000 
     64 H          19.7965   22.6588  -11.3890 H         1 08Y600      0.0000 
     65 H          18.2008   21.8957  -11.4955 H         1 08Y600      0.0000 
     66 H          20.8582   20.8218  -12.2536 H         1 08Y600      0.0000 
     67 H          19.2693   20.5163  -12.9761 H         1 08Y600      0.0000 
     68 H          18.7202   18.9282  -11.4340 H         1 08Y600      0.0000 
     69 H          25.0242   13.9769  -16.9921 H         1 08Y600      0.0000 
     70 H          24.8547   12.3918  -17.2038 H         1 08Y600      0.0000 
     71 H          23.5650   13.3514  -17.2480 H         1 08Y600      0.0000 
     72 H          19.5213   13.9286  -13.7756 H         1 08Y600      0.0000 
     73 H          18.9193   13.8594  -12.2860 H         1 08Y600      0.0000 
     74 H          17.9389   14.0910  -13.5395 H         1 08Y600      0.0000 
     75 H          18.7774   17.4825  -14.3202 H         1 08Y600      0.0000 
     76 H          19.4583   16.2180  -15.0438 H         1 08Y600      0.0000 
     77 H          17.8769   16.2218  -14.7515 H         1 08Y600      0.0000 
     78 H          22.3783   15.8454   -5.6038 H         1 08Y600      0.0000 
     79 H          22.7973   17.3680   -5.9078 H         1 08Y600      0.0000 
     80 H          21.2433   16.9660   -5.8091 H         1 08Y600      0.0000 
     81 H          24.2023   16.5280   -7.8959 H         1 08Y600      0.0000 
     82 H          23.7389   15.0146   -7.6112 H         1 08Y600      0.0000 
     83 H          23.5002   15.6694   -9.0605 H         1 08Y600      0.0000 
     84 H          22.7219   18.1935  -11.1284 H         1 08Y600      0.0000 
@<TRIPOS>BOND
     1    2    1 2    
     2    3    2 1    
     3   21    2 am   
     4    4    3 1    
     5    7    3 1    
     6   44    3 1    
     7    5    4 1    
     8   45    4 1    
     9   46    4 1    
    10    6    5 1    
    11   17    5 1    
    12   47    5 1    
    13   69    6 1    
    14   70    6 1    
    15   71    6 1    
    16    8    7 2    
    17   48    7 1    
    18    9    8 1    
    19   17    8 1    
    20   10    9 ar   
    21   14    9 ar   
    22   11   10 ar   
    23   49   10 1    
    24   12   11 ar   
    25   50   11 1    
    26   13   12 ar   
    27   51   12 1    
    28   14   13 ar   
    29   19   13 1    
    30   15   14 1    
    31   16   15 1    
    32   18   15 2    
    33   17   16 1    
    34   52   16 1    
    35   53   16 1    
    36   54   17 1    
    37   19   18 1    
    38   20   18 1    
    39   55   19 1    
    40   22   21 1    
    41   56   21 1    
    42   23   22 1    
    43   24   22 1    
    44   27   22 1    
    45   42   23 1    
    46   25   24 1    
    47   26   24 1    
    48   57   24 1    
    49   72   25 1    
    50   73   25 1    
    51   74   25 1    
    52   75   26 1    
    53   76   26 1    
    54   77   26 1    
    55   28   27 2    
    56   29   27 am   
    57   30   29 1    
    58   42   29 1    
    59   31   30 1    
    60   35   30 1    
    61   58   30 1    
    62   32   31 1    
    63   59   31 1    
    64   60   31 1    
    65   33   32 1    
    66   34   32 1    
    67   61   32 1    
    68   78   33 1    
    69   79   33 1    
    70   80   33 1    
    71   81   34 1    
    72   82   34 1    
    73   83   34 1    
    74   36   35 2    
    75   37   35 am   
    76   38   37 1    
    77   41   37 1    
    78   39   38 1    
    79   62   38 1    
    80   63   38 1    
    81   40   39 1    
    82   64   39 1    
    83   65   39 1    
    84   41   40 1    
    85   66   40 1    
    86   67   40 1    
    87   42   41 1    
    88   68   41 1    
    89   43   42 1    
    90   84   43 1    
@<TRIPOS>SUBSTRUCTURE
     1 08Y600      1 GROUP   
@<TRIPOS>SET

