#    Name: 4gv4_MEJ_1_INTS_M
#    Modification time : Mon Mar 24 23:50:26 2014

@<TRIPOS>MOLECULE
4gv4_MEJ_1_INTS_M
   53     0     9     0     0
SMALL
NO_CHARGES


@<TRIPOS>ATOM
      1 CA         23.9090   -0.3000   16.2120 C.3       3 GLC5        0.0000 
      2 CA         23.7890   -0.1620   14.1280 C.3       9 GLL5        0.0000 
      3 CA         24.0290   -0.4380   18.2960 C.3       6 GLP5        0.0000 
      4 CA         26.1860   -2.3950   12.7485 C.3       3 GLC5        0.0000 
      5 CA         24.2670   -1.7630   12.3840 C.3       9 GLL5        0.0000 
      6 CA         28.1050   -3.0270   13.1130 C.3       6 GLP5        0.0000 
      7 CA         25.1800   -4.4940   16.2350 C.3       3 GLC5        0.0000 
      8 CA         24.0030   -3.3720   15.2110 C.3       9 GLL5        0.0000 
      9 CA         26.3570   -5.6160   17.2590 C.3       6 GLP5        0.0000 
     10 CA         25.8565   -2.2060   14.9390 C.3       3 GLC5        0.0000 
     11 CA         27.7100   -1.0400   14.6670 C.3       6 GLP5        0.0000 
     12 CA         17.5655   -5.1565   14.6170 C.3       3 GLC5        0.0000 
     13 CA         18.9610   -4.6330   13.3820 C.3       9 GLL5        0.0000 
     14 CA         16.1700   -5.6800   15.8520 C.3       6 GLP5        0.0000 
     15 CA         15.3795   -7.4840    8.5925 C.3       3 GLC5        0.0000 
     16 CA         15.6120   -8.1610   10.5900 C.3       9 GLL5        0.0000 
     17 CA         15.1470   -6.8070    6.5950 C.3       6 GLP5        0.0000 
     18 CA         14.1665   -9.7505   11.1995 C.3       3 GLC5        0.0000 
     19 CA         12.7210  -11.3400   11.8090 C.3       6 GLP5        0.0000 
     20 CA         13.8415   -7.5410   11.8145 C.3       3 GLC5        0.0000 
     21 CA         12.0710   -6.9210   13.0390 C.3       6 GLP5        0.0000 
     22 N          14.3840   -4.2980   11.6390 N.am      2 SEC2        0.0000 
     23 N          14.8720   -5.6010   11.3130 N.am      8 SEL2        0.0000 
     24 N          13.8960   -2.9950   11.9650 N.am      5 SEP2        0.0000 
     25 N          13.5525   -5.9565   11.0295 N.am      2 SEC2        0.0000 
     26 N          12.2330   -6.3120   10.7460 N.am      5 SEP2        0.0000 
     27 O          16.5135   -4.0390   12.9490 O.2       1 ALC1        0.0000 
     28 O          16.8830   -5.1920   12.2670 O.2       7 ALL1        0.0000 
     29 O          16.1440   -2.8860   13.6310 O.2       4 ALP1        0.0000 
     30 CA         23.1617    1.5820   15.0065 C.3       3 GLC5        0.0000 
     31 CA         24.4360    0.7840   13.3740 C.3       9 GLL5        0.0000 
     32 CA         22.2110    2.8530   16.2620 C.3       6 GLP5        0.0000 
     33 CA         26.3377   -0.5808   13.2858 C.3       3 GLC5        0.0000 
     34 CA         25.0030    0.5300   12.1580 C.3       9 GLL5        0.0000 
     35 CA         26.5622    0.0653   10.5932 C.3       3 GLC5        0.0000 
     36 CA         28.1590    0.2520    9.2820 C.3       6 GLP5        0.0000 
     37 CA         25.8079   -0.8088   14.1813 C.3       3 GLC5        0.0000 
     38 CA         23.6990   -1.4660   13.6400 C.3       9 GLL5        0.0000 
     39 CA         23.7613   -1.6820   16.5700 C.3       3 GLC5        0.0000 
     40 CA         22.9840   -2.4800   14.4770 C.3       9 GLL5        0.0000 
     41 CA         18.5820   -8.0197    9.9805 C.3       3 GLC5        0.0000 
     42 CA         17.7350   -7.6810   11.6640 C.3       9 GLL5        0.0000 
     43 CA         19.1950   -7.7080    8.4310 C.3       6 GLP5        0.0000 
     44 CA         17.9733   -8.6832    9.4703 C.3       3 GLC5        0.0000 
     45 CA         17.3870   -9.8660   10.7110 C.3       9 GLL5        0.0000 
     46 CA         15.7527  -11.1623   11.5247 C.3       3 GLC5        0.0000 
     47 CA         14.7540  -12.6660   12.5400 C.3       6 GLP5        0.0000 
     48 CA         16.6747  -11.4972    9.7018 C.3       3 GLC5        0.0000 
     49 CA         16.1160   -9.4510   10.3080 C.3       9 GLL5        0.0000 
     50 CA         16.5980  -13.3360    8.8940 C.3       6 GLP5        0.0000 
     51 CA         13.8535   -8.9830    9.7215 C.3       3 GLC5        0.0000 
     52 CA         11.8430   -9.1600    8.9940 C.3       6 GLP5        0.0000 
     53 CA         17.6142   -7.7165    9.6745 C.3       3 GLC5        0.0000 
@<TRIPOS>BOND
@<TRIPOS>SUBSTRUCTURE
     1 ALC1       27 GROUP        1 X    ALC  0     ROOT ALC X 1
     2 SEC2       22 GROUP        1 X    SEC  0     **** SEC X 2
     3 GLC5        1 GROUP        1 X    GLC  0     **** GLC X 6
     4 ALP1       29 GROUP        1 Y    ALP  0     ROOT ALP Y 8
     5 SEP2       24 GROUP        1 Y    SEP  0     **** SEP Y 9
     6 GLP5        3 GROUP        1 Y    GLP  0     **** GLP Y 13
     7 ALL1       28 GROUP        1 Z    ALL  0     ROOT ALL Z 15
     8 SEL2       23 GROUP        1 Z    SEL  0     **** SEL Z 16
     9 GLL5        2 GROUP        1 Z    GLL  0     **** GLL Z 20
@<TRIPOS>SET

