#    Name: 4gv4_MEJ_1_ligand
#    Modification time : Mon Mar 24 23:50:26 2014

@<TRIPOS>MOLECULE
4gv4_MEJ_1_ligand
   43    45     1     0     0
SMALL
NO_CHARGES


@<TRIPOS>ATOM
      1 CAI        23.7890   -0.1620   14.1280 C.ar      1 MEJ601      0.0000 
      2 CAE        24.4360    0.7840   13.3740 C.ar      1 MEJ601      0.0000 
      3 CAD        25.0030    0.5300   12.1580 C.ar      1 MEJ601      0.0000 
      4 CAF        24.9280   -0.7730   11.6510 C.ar      1 MEJ601      0.0000 
      5 CAJ        24.2670   -1.7630   12.3840 C.ar      1 MEJ601      0.0000 
      6 CAS        23.6990   -1.4660   13.6400 C.ar      1 MEJ601      0.0000 
      7 CAX        22.9840   -2.4800   14.4770 C.3       1 MEJ601      0.0000 
      8 CAA        24.0030   -3.3720   15.2110 C.3       1 MEJ601      0.0000 
      9 NAP        22.1400   -3.3440   13.6070 N.am      1 MEJ601      0.0000 
     10 CAR        20.8590   -3.0540   13.3940 C.2       1 MEJ601      0.0000 
     11 OAB        20.2980   -2.0280   13.7700 O.2       1 MEJ601      0.0000 
     12 CAM        20.0940   -4.0550   12.5330 C.3       1 MEJ601      0.0000 
     13 CAN        18.9610   -4.6330   13.3820 C.3       1 MEJ601      0.0000 
     14 CAT        18.1210   -5.6020   12.6310 C.2       1 MEJ601      0.0000 
     15 NAO        18.5580   -6.8450   12.3660 N.2       1 MEJ601      0.0000 
     16 CAV        17.7350   -7.6810   11.6640 C.ar      1 MEJ601      0.0000 
     17 CAK        18.2030   -8.9820   11.3960 C.ar      1 MEJ601      0.0000 
     18 CAG        17.3870   -9.8660   10.7110 C.ar      1 MEJ601      0.0000 
     19 CAH        16.1160   -9.4510   10.3080 C.ar      1 MEJ601      0.0000 
     20 CAL        15.6120   -8.1610   10.5900 C.ar      1 MEJ601      0.0000 
     21 CAW        16.4550   -7.2890   11.2460 C.ar      1 MEJ601      0.0000 
     22 CAU        16.0010   -6.0170   11.5880 C.2       1 MEJ601      0.0000 
     23 OAC        14.8720   -5.6010   11.3130 O.2       1 MEJ601      0.0000 
     24 NAQ        16.8830   -5.1920   12.2670 N.am      1 MEJ601      0.0000 
     25 H          23.3762    0.0738   15.0335 H         1 MEJ601      0.0000 
     26 H          24.4982    1.7714   13.7611 H         1 MEJ601      0.0000 
     27 H          25.4718    1.2582   11.6213 H         1 MEJ601      0.0000 
     28 H          25.3548   -0.9983   10.7491 H         1 MEJ601      0.0000 
     29 H          24.1915   -2.7169   12.0090 H         1 MEJ601      0.0000 
     30 H          22.3754   -1.9917   15.2071 H         1 MEJ601      0.0000 
     31 H          22.6172   -4.1600   13.1967 H         1 MEJ601      0.0000 
     32 H          20.7546   -4.8482   12.2283 H         1 MEJ601      0.0000 
     33 H          19.6797   -3.5521   11.6764 H         1 MEJ601      0.0000 
     34 H          18.3414   -3.7995   13.7474 H         1 MEJ601      0.0000 
     35 H          19.4030   -5.1206   14.2647 H         1 MEJ601      0.0000 
     36 H          19.1347   -9.2595   11.7078 H         1 MEJ601      0.0000 
     37 H          17.7069  -10.8150   10.4995 H         1 MEJ601      0.0000 
     38 H          15.5103  -10.1128    9.7785 H         1 MEJ601      0.0000 
     39 H          14.6780   -7.9064   10.3176 H         1 MEJ601      0.0000 
     40 H          16.5677   -4.2173   12.5013 H         1 MEJ601      0.0000 
     41 H          24.5947   -3.8634   14.5719 H         1 MEJ601      0.0000 
     42 H          24.5990   -2.8386   15.8112 H         1 MEJ601      0.0000 
     43 H          23.5524   -4.0592   15.7808 H         1 MEJ601      0.0000 
@<TRIPOS>BOND
     1    2    1 ar   
     2    6    1 ar   
     3   25    1 1    
     4    3    2 ar   
     5   26    2 1    
     6    4    3 ar   
     7   27    3 1    
     8    5    4 ar   
     9   28    4 1    
    10    6    5 ar   
    11   29    5 1    
    12    7    6 1    
    13    8    7 1    
    14    9    7 1    
    15   30    7 1    
    16   41    8 1    
    17   42    8 1    
    18   43    8 1    
    19   10    9 am   
    20   31    9 1    
    21   11   10 2    
    22   12   10 1    
    23   13   12 1    
    24   32   12 1    
    25   33   12 1    
    26   14   13 1    
    27   34   13 1    
    28   35   13 1    
    29   15   14 2    
    30   24   14 1    
    31   16   15 1    
    32   17   16 ar   
    33   21   16 ar   
    34   18   17 ar   
    35   36   17 1    
    36   19   18 ar   
    37   37   18 1    
    38   20   19 ar   
    39   38   19 1    
    40   21   20 ar   
    41   39   20 1    
    42   22   21 1    
    43   23   22 2    
    44   24   22 am   
    45   40   24 1    
@<TRIPOS>SUBSTRUCTURE
     1 MEJ601      1 GROUP   
@<TRIPOS>SET

