#    Name: 4i1r_LZU_1_INTS_M
#    Modification time : Tue Mar 25 02:11:58 2014

@<TRIPOS>MOLECULE
4i1r_LZU_1_INTS_M
   77     0     9     0     0
SMALL
NO_CHARGES


@<TRIPOS>ATOM
      1 CA        -27.2910  -12.0965   23.1680 C.3       3 GLC5        0.0000 
      2 CA        -28.9170  -13.1650   23.9130 C.3       9 GLL5        0.0000 
      3 CA        -25.6650  -11.0280   22.4230 C.3       6 GLP5        0.0000 
      4 CA        -27.8820  -12.3770   25.3580 C.3       3 GLC5        0.0000 
      5 CA        -26.8470  -11.5890   26.8030 C.3       6 GLP5        0.0000 
      6 CA        -28.4025  -14.9350   24.2190 C.3       3 GLC5        0.0000 
      7 CA        -27.8880  -16.7050   24.5250 C.3       6 GLP5        0.0000 
      8 CA        -30.3545  -19.4890   23.0460 C.3       3 GLC5        0.0000 
      9 CA        -29.9090  -19.8230   21.3180 C.3       9 GLL5        0.0000 
     10 CA        -30.8000  -19.1550   24.7740 C.3       6 GLP5        0.0000 
     11 CA        -32.0990  -19.5070   21.6110 C.3       3 GLC5        0.0000 
     12 CA        -34.2890  -19.1910   21.9040 C.3       6 GLP5        0.0000 
     13 CA        -30.4650  -21.1350   20.1535 C.3       3 GLC5        0.0000 
     14 CA        -31.0210  -22.4470   18.9890 C.3       6 GLP5        0.0000 
     15 CA        -27.3555  -10.8705   16.1120 C.3       3 GLC5        0.0000 
     16 CA        -27.5770  -12.1240   17.7870 C.3       9 GLL5        0.0000 
     17 CA        -27.1340   -9.6170   14.4370 C.3       6 GLP5        0.0000 
     18 CA        -25.8235  -10.8025   16.3275 C.3       3 GLC5        0.0000 
     19 CA        -26.1820  -11.9450   17.6790 C.3       9 GLL5        0.0000 
     20 CA        -25.4650   -9.6600   14.9760 C.3       6 GLP5        0.0000 
     21 CA        -26.8640  -16.1520   17.7305 C.3       3 GLC5        0.0000 
     22 CA        -27.1440  -14.3480   18.7690 C.3       9 GLL5        0.0000 
     23 CA        -26.5840  -17.9560   16.6920 C.3       6 GLP5        0.0000 
     24 CA        -25.4730  -15.4005   16.9155 C.3       3 GLC5        0.0000 
     25 CA        -25.7920  -14.1850   18.6650 C.3       9 GLL5        0.0000 
     26 CA        -25.1540  -16.6160   15.1660 C.3       6 GLP5        0.0000 
     27 OD1       -29.7615  -12.2490   22.1110 O.co2     2 ASC3        0.0000 
     28 OD1       -29.9790  -13.4090   22.9020 O.co2     8 ASL3        0.0000 
     29 OD1       -29.5440  -11.0890   21.3200 O.co2     5 ASP3        0.0000 
     30 OD1       -29.3975  -11.5005   22.8355 O.co2     2 ASC3        0.0000 
     31 OD1       -28.8160   -9.5920   22.7690 O.co2     5 ASP3        0.0000 
     32 O         -29.7615  -12.2490   22.1110 O.2       1 ALC1        0.0000 
     33 O         -29.9790  -13.4090   22.9020 O.2       7 ALL1        0.0000 
     34 O         -29.5440  -11.0890   21.3200 O.2       4 ALP1        0.0000 
     35 CA        -27.8985  -22.0605   20.8635 C.3       3 GLC5        0.0000 
     36 CA        -28.2720  -20.4300   20.9920 C.3       9 GLL5        0.0000 
     37 CA        -27.5250  -23.6910   20.7350 C.3       6 GLP5        0.0000 
     38 CA        -29.3120  -20.5150   22.9745 C.3       3 GLC5        0.0000 
     39 CA        -30.3520  -20.6000   24.9570 C.3       6 GLP5        0.0000 
     40 CA        -28.5260  -21.2375   19.4025 C.3       3 GLC5        0.0000 
     41 CA        -28.7800  -22.0450   17.8130 C.3       6 GLP5        0.0000 
     42 CA        -23.3530  -15.3935   18.1640 C.3       3 GLC5        0.0000 
     43 CA        -24.7670  -15.3730   19.4760 C.3       9 GLL5        0.0000 
     44 CA        -21.9390  -15.4140   16.8520 C.3       6 GLP5        0.0000 
     45 CA        -24.9760  -16.5855   17.8035 C.3       3 GLC5        0.0000 
     46 CA        -25.1850  -17.7980   16.1310 C.3       6 GLP5        0.0000 
     47 CA        -24.0110  -14.6880   21.1570 C.3       3 GLC5        0.0000 
     48 CA        -23.2550  -14.0030   22.8380 C.3       6 GLP5        0.0000 
     49 CA        -25.2775  -16.2050   21.4330 C.3       3 GLC5        0.0000 
     50 CA        -25.7880  -17.0370   23.3900 C.3       6 GLP5        0.0000 
     51 CA        -26.6358  -11.5742   19.4025 C.3       3 GLC5        0.0000 
     52 CA        -26.3920  -11.1140   21.0720 C.3       6 GLP5        0.0000 
     53 CA        -29.4365  -12.7183   17.1205 C.3       3 GLC5        0.0000 
     54 CA        -31.0580  -12.7100   16.1830 C.3       6 GLP5        0.0000 
     55 CA        -24.4420  -11.3510   17.9180 C.3       3 GLC5        0.0000 
     56 CA        -23.1440  -10.2590   17.9640 C.3       6 GLP5        0.0000 
     57 CA        -26.9952  -12.4763   19.8105 C.3       3 GLC5        0.0000 
     58 CA        -23.7420  -14.4885   17.6085 C.3       3 GLC5        0.0000 
     59 CA        -25.9685  -12.3385   19.7185 C.3       3 GLC5        0.0000 
     60 CA        -25.2980  -12.9410   18.0650 C.3       9 GLL5        0.0000 
     61 CA        -24.9780  -19.7065   21.9902 C.3       3 GLC5        0.0000 
     62 CA        -25.0050  -18.0850   20.1230 C.3       9 GLL5        0.0000 
     63 CA        -24.5560  -20.7870   23.6590 C.3       6 GLP5        0.0000 
     64 CA        -25.9920  -18.2910   18.5068 C.3       3 GLC5        0.0000 
     65 CA        -25.7950  -19.1670   20.5200 C.3       9 GLL5        0.0000 
     66 CA        -25.5940  -17.8315   21.8558 C.3       3 GLC5        0.0000 
     67 CA        -28.8567  -15.6118   22.9765 C.3       3 GLC5        0.0000 
     68 CA        -29.2510  -14.6600   20.9990 C.3       9 GLL5        0.0000 
     69 CA        -27.0525  -18.2110   18.5050 C.3       3 GLC5        0.0000 
     70 CA        -27.8300  -17.8570   20.1300 C.3       9 GLL5        0.0000 
     71 CA        -26.6545  -17.7515   21.8540 C.3       3 GLC5        0.0000 
     72 CA        -26.8645  -20.4992   22.3260 C.3       3 GLC5        0.0000 
     73 CA        -27.2120  -19.0750   20.5060 C.3       9 GLL5        0.0000 
     74 CA        -25.9870  -21.2460   23.9030 C.3       6 GLP5        0.0000 
     75 CA        -26.4705  -17.3627   18.2170 C.3       3 GLC5        0.0000 
     76 CA        -27.0370  -16.7180   19.7330 C.3       9 GLL5        0.0000 
     77 CA        -26.0725  -16.9032   21.5660 C.3       3 GLC5        0.0000 
@<TRIPOS>BOND
@<TRIPOS>SUBSTRUCTURE
     1 ALC1       32 GROUP        1 X    ALC  0     ROOT ALC X 1
     2 ASC3       27 GROUP        1 X    ASC  0     **** ASC X 3
     3 GLC5        1 GROUP        1 X    GLC  0     **** GLC X 6
     4 ALP1       34 GROUP        1 Y    ALP  0     ROOT ALP Y 8
     5 ASP3       29 GROUP        1 Y    ASP  0     **** ASP Y 10
     6 GLP5        3 GROUP        1 Y    GLP  0     **** GLP Y 13
     7 ALL1       33 GROUP        1 Z    ALL  0     ROOT ALL Z 15
     8 ASL3       28 GROUP        1 Z    ASL  0     **** ASL Z 17
     9 GLL5        2 GROUP        1 Z    GLL  0     **** GLL Z 20
@<TRIPOS>SET

