#    Name: 4i1r_LZU_1_ligand
#    Modification time : Tue Mar 25 02:11:58 2014

@<TRIPOS>MOLECULE
4i1r_LZU_1_ligand
   52    55     1     0     0
SMALL
NO_CHARGES


@<TRIPOS>ATOM
      1 CAA       -28.9170  -13.1650   23.9130 C.3       1 LZU801      0.0000 
      2 CAB       -29.9090  -19.8230   21.3180 C.3       1 LZU801      0.0000 
      3 CAC       -27.5770  -12.1240   17.7870 C.ar      1 LZU801      0.0000 
      4 CAD       -26.1820  -11.9450   17.6790 C.ar      1 LZU801      0.0000 
      5 CAE       -32.6390  -13.2430   21.8850 C.3       1 LZU801      0.0000 
      6 CAF       -32.2090  -12.3470   22.9850 C.3       1 LZU801      0.0000 
      7 CAG       -31.5610  -13.8190   21.0570 C.3       1 LZU801      0.0000 
      8 CAH       -28.0530  -13.3290   18.3290 C.ar      1 LZU801      0.0000 
      9 CAI       -25.2980  -12.9410   18.0650 C.ar      1 LZU801      0.0000 
     10 CAJ       -25.7950  -19.1670   20.5200 C.ar      1 LZU801      0.0000 
     11 CAK       -25.0050  -18.0850   20.1230 C.ar      1 LZU801      0.0000 
     12 CAL       -29.2510  -14.6600   20.9990 C.3       1 LZU801      0.0000 
     13 CAM       -31.0580  -12.9110   23.7670 C.3       1 LZU801      0.0000 
     14 CAN       -29.2080  -15.4370   19.6170 C.3       1 LZU801      0.0000 
     15 CAO       -27.8300  -17.8570   20.1300 C.ar      1 LZU801      0.0000 
     16 CAP       -30.4000  -14.3770   21.8570 C.3       1 LZU801      0.0000 
     17 CAQ       -27.2120  -19.0750   20.5060 C.ar      1 LZU801      0.0000 
     18 CAR       -27.1440  -14.3480   18.7690 C.ar      1 LZU801      0.0000 
     19 CAS       -27.0370  -16.7180   19.7330 C.ar      1 LZU801      0.0000 
     20 CAT       -25.7920  -14.1850   18.6650 C.ar      1 LZU801      0.0000 
     21 CAU       -25.6770  -16.8210   19.7510 C.ar      1 LZU801      0.0000 
     22 NAV       -29.9790  -13.4090   22.9020 N.4       1 LZU801      0.0000 
     23 NAW       -27.7510  -15.5700   19.2230 N.pl3     1 LZU801      0.0000 
     24 SAX       -28.2720  -20.4300   20.9920 S.3       1 LZU801      0.0000 
     25 SAY       -24.7670  -15.3730   19.4760 S.3       1 LZU801      0.0000 
     26 H         -28.2149  -11.4023   17.4816 H         1 LZU801      0.0000 
     27 H         -25.8224  -11.0509   17.3038 H         1 LZU801      0.0000 
     28 H         -33.3530  -12.6858   21.2219 H         1 LZU801      0.0000 
     29 H         -33.2553  -14.0761   22.3162 H         1 LZU801      0.0000 
     30 H         -33.0546  -12.1665   23.6708 H         1 LZU801      0.0000 
     31 H         -31.9167  -11.3656   22.5736 H         1 LZU801      0.0000 
     32 H         -31.1675  -13.0503   20.3604 H         1 LZU801      0.0000 
     33 H         -31.9671  -14.6305   20.4187 H         1 LZU801      0.0000 
     34 H         -29.0605  -13.4952   18.4169 H         1 LZU801      0.0000 
     35 H         -24.2891  -12.8414   17.9455 H         1 LZU801      0.0000 
     36 H         -25.3552  -20.0434   20.8272 H         1 LZU801      0.0000 
     37 H         -24.0050  -18.1267   20.0790 H         1 LZU801      0.0000 
     38 H         -28.6848  -13.6518   20.7817 H         1 LZU801      0.0000 
     39 H         -28.4142  -15.1747   21.6464 H         1 LZU801      0.0000 
     40 H         -31.4324  -13.7266   24.4126 H         1 LZU801      0.0000 
     41 H         -30.6697  -12.1274   24.4433 H         1 LZU801      0.0000 
     42 H         -29.7448  -14.8576   18.8966 H         1 LZU801      0.0000 
     43 H         -29.6503  -16.3988   19.7660 H         1 LZU801      0.0000 
     44 H         -28.8472  -17.7720   20.1360 H         1 LZU801      0.0000 
     45 H         -30.7262  -15.2911   22.3426 H         1 LZU801      0.0000 
     46 H         -29.8703  -12.3159   22.2595 H         1 LZU801      0.0000 
     47 H         -28.0021  -13.2694   23.5231 H         1 LZU801      0.0000 
     48 H         -28.9704  -12.2412   24.2922 H         1 LZU801      0.0000 
     49 H         -28.9825  -13.8015   24.6815 H         1 LZU801      0.0000 
     50 H         -29.9143  -19.1458   22.0538 H         1 LZU801      0.0000 
     51 H         -30.3097  -19.3848   20.5134 H         1 LZU801      0.0000 
     52 H         -30.5299  -20.5577   21.5914 H         1 LZU801      0.0000 
@<TRIPOS>BOND
     1   22    1 1    
     2   47    1 1    
     3   48    1 1    
     4   49    1 1    
     5   24    2 1    
     6   50    2 1    
     7   51    2 1    
     8   52    2 1    
     9    4    3 ar   
    10    8    3 ar   
    11   26    3 1    
    12    9    4 ar   
    13   27    4 1    
    14    6    5 1    
    15    7    5 1    
    16   28    5 1    
    17   29    5 1    
    18   13    6 1    
    19   30    6 1    
    20   31    6 1    
    21   16    7 1    
    22   32    7 1    
    23   33    7 1    
    24   18    8 ar   
    25   34    8 1    
    26   20    9 ar   
    27   35    9 1    
    28   11   10 ar   
    29   17   10 ar   
    30   36   10 1    
    31   21   11 ar   
    32   37   11 1    
    33   14   12 1    
    34   16   12 1    
    35   38   12 1    
    36   39   12 1    
    37   22   13 1    
    38   40   13 1    
    39   41   13 1    
    40   23   14 1    
    41   42   14 1    
    42   43   14 1    
    43   17   15 ar   
    44   19   15 ar   
    45   44   15 1    
    46   22   16 1    
    47   45   16 1    
    48   24   17 1    
    49   20   18 ar   
    50   23   18 1    
    51   21   19 ar   
    52   23   19 1    
    53   25   20 1    
    54   25   21 1    
    55   46   22 1    
@<TRIPOS>SUBSTRUCTURE
     1 LZU801      1 GROUP   
@<TRIPOS>SET

