#    Name: 1tkb_N1T_1_INTS_M
#    Modification time : Tue Mar 25 05:24:08 2014

@<TRIPOS>MOLECULE
1tkb_N1T_1_INTS_M
   80     0     9     0     0
SMALL
NO_CHARGES


@<TRIPOS>ATOM
      1 CA         -2.5765   61.4385   18.0335 C.3       3 GLC5        0.0000 
      2 CA         -3.3420   60.8180   20.0020 C.3       9 GLL5        0.0000 
      3 CA         -1.8110   62.0590   16.0650 C.3       6 GLP5        0.0000 
      4 CA         -3.4180   61.6640   22.0200 C.3       3 GLC5        0.0000 
      5 CA         -3.4940   62.5100   24.0380 C.3       6 GLP5        0.0000 
      6 CA         -1.6360   60.2860   22.5115 C.3       3 GLC5        0.0000 
      7 CA         -0.9790   60.2700   20.6550 C.3       9 GLL5        0.0000 
      8 CA         -2.2930   60.3020   24.3680 C.3       6 GLP5        0.0000 
      9 CA          0.4645   60.4360   21.6480 C.3       3 GLC5        0.0000 
     10 CA          1.9080   60.6020   22.6410 C.3       6 GLP5        0.0000 
     11 N          -1.2270   57.9365   19.9370 N.am      2 SEC2        0.0000 
     12 N          -2.6320   58.5300   20.1390 N.am      8 SEL2        0.0000 
     13 N           0.1780   57.3430   19.7350 N.am      5 SEP2        0.0000 
     14 CA         -2.1210   57.2985   20.8605 C.3       3 GLC5        0.0000 
     15 CA         -3.9140   58.1540   19.8090 C.3       9 GLL5        0.0000 
     16 CA         -0.3280   56.4430   21.9120 C.3       6 GLP5        0.0000 
     17 CA         -2.5410   57.8310   18.3785 C.3       3 GLC5        0.0000 
     18 CA         -1.1680   57.5080   16.9480 C.3       6 GLP5        0.0000 
     19 O          -3.0860   55.8205   19.9935 O.2       1 ALC1        0.0000 
     20 O          -4.1040   56.8390   19.7270 O.2       7 ALL1        0.0000 
     21 O          -2.0680   54.8020   20.2600 O.2       4 ALP1        0.0000 
     22 CA         -3.4745   58.7570   17.7305 C.3       3 GLC5        0.0000 
     23 CA         -4.8910   59.0870   19.3250 C.3       9 GLL5        0.0000 
     24 CA         -2.0580   58.4270   16.1360 C.3       6 GLP5        0.0000 
     25 CA         -6.6105   61.3945   19.6365 C.3       3 GLC5        0.0000 
     26 CA         -4.6620   60.3770   19.5560 C.3       9 GLL5        0.0000 
     27 CA         -8.5590   62.4120   19.7170 C.3       6 GLP5        0.0000 
     28 CA         -7.5930   58.6085   16.9610 C.3       3 GLC5        0.0000 
     29 CA         -6.1760   58.6820   18.6790 C.3       9 GLL5        0.0000 
     30 CA         -9.0100   58.5350   15.2430 C.3       6 GLP5        0.0000 
     31 CA         -8.0615   59.7635   18.4635 C.3       3 GLC5        0.0000 
     32 CA         -9.9470   60.8450   18.2480 C.3       6 GLP5        0.0000 
     33 CA         -7.5735   58.8500   20.2155 C.3       3 GLC5        0.0000 
     34 CA         -8.9710   59.0180   21.7520 C.3       6 GLP5        0.0000 
     35 CA         -5.3570   54.4225   15.5030 C.3       3 GLC5        0.0000 
     36 CA         -5.3960   56.4740   15.4640 C.3       9 GLL5        0.0000 
     37 CA         -5.3180   52.3710   15.5420 C.3       6 GLP5        0.0000 
     38 CA         -6.2140   61.9800   15.1150 C.3       3 GLC5        0.0000 
     39 CA         -5.8330   60.3870   16.2890 C.3       9 GLL5        0.0000 
     40 CA         -6.5950   63.5730   13.9410 C.3       6 GLP5        0.0000 
     41 CA         -7.5500   61.2960   17.3505 C.3       3 GLC5        0.0000 
     42 CA         -9.2670   62.2050   18.4120 C.3       6 GLP5        0.0000 
     43 CA         -3.5820   58.5105   14.9240 C.3       3 GLC5        0.0000 
     44 CA         -5.1060   58.5940   13.7120 C.3       9 GLL5        0.0000 
     45 CA         -4.2020   60.2195   13.3090 C.3       3 GLC5        0.0000 
     46 CA         -3.2980   61.8450   12.9060 C.3       6 GLP5        0.0000 
     47 N          -1.6410   57.3735   11.7435 N.am      2 SEC2        0.0000 
     48 N          -2.5320   56.0480   12.1020 N.am      8 SEL2        0.0000 
     49 N          -0.7500   58.6990   11.3850 N.am      5 SEP2        0.0000 
     50 N          -1.8605   56.8310    9.6660 N.am      2 SEC2        0.0000 
     51 N          -3.5020   56.6650    9.9050 N.am      8 SEL2        0.0000 
     52 N          -0.2190   56.9970    9.4270 N.am      5 SEP2        0.0000 
     53 N          -4.4020   54.9225    7.6365 N.am      2 SEC2        0.0000 
     54 N          -4.6920   54.6320    8.9840 N.am      8 SEL2        0.0000 
     55 N          -4.1120   55.2130    6.2890 N.am      5 SEP2        0.0000 
     56 N          -7.6245   54.6510   11.0965 N.am      2 SEC2        0.0000 
     57 N          -6.8630   54.9420   10.0820 N.am      8 SEL2        0.0000 
     58 N          -8.3860   54.3600   12.1110 N.am      5 SEP2        0.0000 
     59 N          -5.4070   52.8145   12.0455 N.am      2 SEC2        0.0000 
     60 N          -5.5250   52.9780   10.6630 N.am      8 SEL2        0.0000 
     61 N          -5.2890   52.6510   13.4280 N.am      5 SEP2        0.0000 
     62 N          -6.9555   53.6690   11.3870 N.am      2 SEC2        0.0000 
     63 CA         -0.9845   58.2460   21.1677 C.3       3 GLC5        0.0000 
     64 CA         -2.3030   59.8280   20.1920 C.3       9 GLL5        0.0000 
     65 CA         -0.7435   59.1000   18.9068 C.3       3 GLC5        0.0000 
     66 CA          0.1540   58.1510   17.3900 C.3       6 GLP5        0.0000 
     67 CA         -3.8272   57.5387   16.1962 C.3       3 GLC5        0.0000 
     68 CA         -5.7970   56.8270   17.0490 C.3       9 GLL5        0.0000 
     69 CA         -7.3032   57.5927   15.7498 C.3       3 GLC5        0.0000 
     70 CA         -4.5773   60.9105   15.3220 C.3       3 GLC5        0.0000 
     71 CA         -5.7140   58.8870   16.2210 C.3       9 GLL5        0.0000 
     72 CA         -3.3810   62.1840   14.3890 C.3       6 GLP5        0.0000 
     73 CA         -3.8752   58.9380   16.0569 C.3       3 GLC5        0.0000 
     74 CA         -7.3513   58.9920   15.6104 C.3       3 GLC5        0.0000 
     75 CA         -5.3900   58.1350   15.1120 C.3       9 GLL5        0.0000 
     76 CA         -5.6318   59.0297   11.4890 C.3       3 GLC5        0.0000 
     77 CA         -5.9090   59.9770    9.7510 C.3       6 GLP5        0.0000 
     78 CA         -7.2248   58.3687   13.4720 C.3       3 GLC5        0.0000 
     79 CA         -5.6030   57.5710   12.7420 C.3       9 GLL5        0.0000 
     80 CA         -9.0950   58.6550   13.7170 C.3       6 GLP5        0.0000 
@<TRIPOS>BOND
@<TRIPOS>SUBSTRUCTURE
     1 ALC1       19 GROUP        1 X    ALC  0     ROOT ALC X 1
     2 SEC2       11 GROUP        1 X    SEC  0     **** SEC X 2
     3 GLC5        1 GROUP        1 X    GLC  0     **** GLC X 6
     4 ALP1       21 GROUP        1 Y    ALP  0     ROOT ALP Y 8
     5 SEP2       13 GROUP        1 Y    SEP  0     **** SEP Y 9
     6 GLP5        3 GROUP        1 Y    GLP  0     **** GLP Y 13
     7 ALL1       20 GROUP        1 Z    ALL  0     ROOT ALL Z 15
     8 SEL2       12 GROUP        1 Z    SEL  0     **** SEL Z 16
     9 GLL5        2 GROUP        1 Z    GLL  0     **** GLL Z 20
@<TRIPOS>SET

