#    Name: 1tkb_N1T_1_ligand
#    Modification time : Tue Mar 25 05:24:08 2014

@<TRIPOS>MOLECULE
1tkb_N1T_1_ligand
   43    44     1     0     0
SMALL
NO_CHARGES


@<TRIPOS>ATOM
      1 C1'        -3.3420   60.8180   20.0020 C.ar      1 N1T681      0.0000 
      2 C2'        -2.3030   59.8280   20.1920 C.ar      1 N1T681      0.0000 
      3 CM2        -0.9790   60.2700   20.6550 C.3       1 N1T681      0.0000 
      4 N3'        -2.6320   58.5300   20.1390 N.ar      1 N1T681      0.0000 
      5 C4'        -3.9140   58.1540   19.8090 C.ar      1 N1T681      0.0000 
      6 N4'        -4.1040   56.8390   19.7270 N.pl3     1 N1T681      0.0000 
      7 C5'        -4.8910   59.0870   19.3250 C.ar      1 N1T681      0.0000 
      8 C6'        -4.6620   60.3770   19.5560 C.ar      1 N1T681      0.0000 
      9 C7'        -6.1760   58.6820   18.6790 C.3       1 N1T681      0.0000 
     10 N3         -5.8980   58.1280   17.2980 N.pl3     1 N1T681      0.0000 
     11 C2         -5.7970   56.8270   17.0490 C.2       1 N1T681      0.0000 
     12 S1         -5.3960   56.4740   15.4640 S.3       1 N1T681      0.0000 
     13 C5         -5.3900   58.1350   15.1120 C.2       1 N1T681      0.0000 
     14 C4         -5.7140   58.8870   16.2210 C.2       1 N1T681      0.0000 
     15 CM4        -5.8330   60.3870   16.2890 C.3       1 N1T681      0.0000 
     16 C6         -5.1060   58.5940   13.7120 C.3       1 N1T681      0.0000 
     17 C7         -5.6030   57.5710   12.7420 C.3       1 N1T681      0.0000 
     18 O7         -4.6080   57.5850   11.7280 O.3       1 N1T681      0.0000 
     19 PA         -3.7830   56.3020   11.3420 P.3       1 N1T681      0.0000 
     20 O1A        -2.5320   56.0480   12.1020 O.co2     1 N1T681      0.0000 
     21 O2A        -3.5020   56.6650    9.9050 O.co2     1 N1T681      0.0000 
     22 O3A        -4.8120   55.1120   11.3510 O.3       1 N1T681      0.0000 
     23 PB         -5.5270   54.3440   10.1980 P.3       1 N1T681      0.0000 
     24 O1B        -4.6920   54.6320    8.9840 O.co2     1 N1T681      0.0000 
     25 O2B        -6.8630   54.9420   10.0820 O.co2     1 N1T681      0.0000 
     26 O3B        -5.5250   52.9780   10.6630 O.co2     1 N1T681      0.0000 
     27 H          -3.1662   61.7861   20.1709 H         1 N1T681      0.0000 
     28 H          -5.0310   56.5157   19.9172 H         1 N1T681      0.0000 
     29 H          -3.3026   56.2930   19.4826 H         1 N1T681      0.0000 
     30 H          -5.3750   61.1090   19.4379 H         1 N1T681      0.0000 
     31 H          -6.8365   59.5434   18.5926 H         1 N1T681      0.0000 
     32 H          -6.6690   57.9181   19.2784 H         1 N1T681      0.0000 
     33 H          -5.9070   56.0460   17.5926 H         1 N1T681      0.0000 
     34 H          -4.0326   58.7317   13.5845 H         1 N1T681      0.0000 
     35 H          -5.6057   59.5455   13.5322 H         1 N1T681      0.0000 
     36 H          -6.5626   57.8774   12.3707 H         1 N1T681      0.0000 
     37 H          -5.6629   56.6198   13.2361 H         1 N1T681      0.0000 
     38 H          -0.3437   59.5036   20.7496 H         1 N1T681      0.0000 
     39 H          -0.5615   60.9201   20.0201 H         1 N1T681      0.0000 
     40 H          -1.0287   60.7212   21.5460 H         1 N1T681      0.0000 
     41 H          -5.1793   60.7825   16.9342 H         1 N1T681      0.0000 
     42 H          -5.6629   60.8137   15.4008 H         1 N1T681      0.0000 
     43 H          -6.7448   60.6743   16.5824 H         1 N1T681      0.0000 
@<TRIPOS>BOND
     1    2    1 ar   
     2    8    1 ar   
     3   27    1 1    
     4    3    2 1    
     5    4    2 ar   
     6   38    3 1    
     7   39    3 1    
     8   40    3 1    
     9    5    4 ar   
    10    6    5 1    
    11    7    5 ar   
    12   28    6 1    
    13   29    6 1    
    14    8    7 ar   
    15    9    7 1    
    16   30    8 1    
    17   10    9 1    
    18   31    9 1    
    19   32    9 1    
    20   11   10 2    
    21   14   10 1    
    22   12   11 1    
    23   33   11 1    
    24   13   12 1    
    25   14   13 2    
    26   16   13 1    
    27   15   14 1    
    28   41   15 1    
    29   42   15 1    
    30   43   15 1    
    31   17   16 1    
    32   34   16 1    
    33   35   16 1    
    34   18   17 1    
    35   36   17 1    
    36   37   17 1    
    37   19   18 1    
    38   20   19 ar   
    39   21   19 ar   
    40   22   19 1    
    41   23   22 1    
    42   24   23 ar   
    43   25   23 ar   
    44   26   23 ar   
@<TRIPOS>SUBSTRUCTURE
     1 N1T681      1 GROUP   
@<TRIPOS>SET

