#    Name: 3hhk_77Z_1_INTS_M
#    Modification time : Tue Mar 25 14:18:13 2014

@<TRIPOS>MOLECULE
3hhk_77Z_1_INTS_M
   57     0     6     0     0
SMALL
NO_CHARGES


@<TRIPOS>ATOM
      1 N          94.9655   43.4230   42.5270 N.am      1 SEC2        0.0000 
      2 N          96.4530   44.1150   42.6400 N.am      5 SEL2        0.0000 
      3 N          93.4780   42.7310   42.4140 N.am      3 SEP2        0.0000 
      4 CA         94.5180   45.3520   43.6825 C.3       2 GLC5        0.0000 
      5 CA         96.4120   45.8030   44.3400 C.3       6 GLL5        0.0000 
      6 CA         92.6240   44.9010   43.0250 C.3       4 GLP5        0.0000 
      7 CA         94.0960   44.9535   44.6780 C.3       2 GLC5        0.0000 
      8 CA         95.5680   45.0060   46.3310 C.3       6 GLL5        0.0000 
      9 CA         93.5890   42.3070   46.7460 C.3       2 GLC5        0.0000 
     10 CA         94.7170   44.1640   47.0100 C.3       6 GLL5        0.0000 
     11 CA         92.4610   40.4500   46.4820 C.3       4 GLP5        0.0000 
     12 CA         97.3805   47.7245   46.5475 C.3       2 GLC5        0.0000 
     13 CA         96.1720   46.0650   46.9780 C.3       6 GLL5        0.0000 
     14 CA         98.5890   49.3840   46.1170 C.3       4 GLP5        0.0000 
     15 CA         93.0590   43.3155   49.2490 C.3       2 GLC5        0.0000 
     16 CA         94.4450   44.3630   48.3440 C.3       6 GLL5        0.0000 
     17 CA         91.6730   42.2680   50.1540 C.3       4 GLP5        0.0000 
     18 CA         94.0855   47.0690   49.8855 C.3       2 GLC5        0.0000 
     19 CA         95.6710   46.2690   51.1690 C.3       6 GLL5        0.0000 
     20 CA         92.5000   47.8690   48.6020 C.3       4 GLP5        0.0000 
     21 N          96.5090   49.2140   52.8390 N.am      1 SEC2        0.0000 
     22 N          97.2660   47.6760   52.9870 N.am      5 SEL2        0.0000 
     23 N          95.7520   50.7520   52.6910 N.am      3 SEP2        0.0000 
     24 CA         98.6685   47.9510   58.5040 C.3       2 GLC5        0.0000 
     25 CA         97.6390   46.7210   56.9280 C.3       6 GLL5        0.0000 
     26 CA         99.6980   49.1810   60.0800 C.3       4 GLP5        0.0000 
     27 CA         89.7990   45.5900   57.3595 C.3       2 GLC5        0.0000 
     28 CA         91.1420   45.1740   56.0060 C.3       6 GLL5        0.0000 
     29 CA         88.4560   46.0060   58.7130 C.3       4 GLP5        0.0000 
     30 CA         89.5385   43.9435   55.0940 C.3       2 GLC5        0.0000 
     31 CA         87.9350   42.7130   54.1820 C.3       4 GLP5        0.0000 
     32 CA         89.6785   43.2315   54.1130 C.3       2 GLC5        0.0000 
     33 CA         91.4220   43.7500   54.0440 C.3       6 GLL5        0.0000 
     34 CA         91.8615   42.5235   52.7870 C.3       2 GLC5        0.0000 
     35 CA         92.3010   41.2970   51.5300 C.3       4 GLP5        0.0000 
     36 CA         92.6960   44.3197   47.5645 C.3       2 GLC5        0.0000 
     37 CA         90.8110   44.3760   47.4520 C.3       4 GLP5        0.0000 
     38 CA         94.3875   47.4608   52.0545 C.3       2 GLC5        0.0000 
     39 CA         93.0760   48.8470   52.2290 C.3       4 GLP5        0.0000 
     40 CA         94.7975   46.8923   55.8200 C.3       2 GLC5        0.0000 
     41 CA         96.6640   46.2720   54.7970 C.3       6 GLL5        0.0000 
     42 CA         93.2770   48.0460   56.5810 C.3       4 GLP5        0.0000 
     43 CA         96.2417   47.3632   57.5297 C.3       2 GLC5        0.0000 
     44 CA         97.4960   47.0280   55.5950 C.3       6 GLL5        0.0000 
     45 CA         94.9160   47.8520   58.7980 C.3       4 GLP5        0.0000 
     46 CA         95.5795   45.9195   58.3085 C.3       2 GLC5        0.0000 
     47 CA         96.9470   45.6540   57.4540 C.3       6 GLL5        0.0000 
     48 CA         94.6280   46.5620   59.5610 C.3       4 GLP5        0.0000 
     49 CA         94.5898   42.5172   57.0110 C.3       2 GLC5        0.0000 
     50 CA         93.1600   43.7400   55.8280 C.3       6 GLL5        0.0000 
     51 CA         95.3990   41.4980   58.5860 C.3       4 GLP5        0.0000 
     52 CA         92.5890   46.3570   56.1530 C.3       2 GLC5        0.0000 
     53 CA         90.9592   43.0655   56.2112 C.3       2 GLC5        0.0000 
     54 CA         90.2570   41.9220   57.5380 C.3       4 GLP5        0.0000 
     55 CA         91.8413   46.1538   53.8068 C.3       2 GLC5        0.0000 
     56 CA         92.1600   44.5840   55.0600 C.3       6 GLL5        0.0000 
     57 CA         92.1460   47.9930   52.8250 C.3       4 GLP5        0.0000 
@<TRIPOS>BOND
@<TRIPOS>SUBSTRUCTURE
     1 SEC2        1 GROUP        1 X    SEC  0     ROOT SEC X 2
     2 GLC5        4 GROUP        1 X    GLC  0     **** GLC X 6
     3 SEP2        3 GROUP        1 Y    SEP  0     ROOT SEP Y 9
     4 GLP5        6 GROUP        1 Y    GLP  0     **** GLP Y 13
     5 SEL2        2 GROUP        1 Z    SEL  0     ROOT SEL Z 16
     6 GLL5        5 GROUP        1 Z    GLL  0     **** GLL Z 20
@<TRIPOS>SET

