#    Name: 3hhk_77Z_1_ligand
#    Modification time : Tue Mar 25 14:18:13 2014

@<TRIPOS>MOLECULE
3hhk_77Z_1_ligand
   60    63     1     0     0
SMALL
NO_CHARGES


@<TRIPOS>ATOM
      1 O55        96.4530   44.1150   42.6400 O.2       1 77Z564      0.0000 
      2 C51        96.6660   45.2750   42.9630 C.2       1 77Z564      0.0000 
      3 N54        97.1600   46.2440   42.1350 N.am      1 77Z564      0.0000 
      4 C50        96.4120   45.8030   44.3400 C.3       1 77Z564      0.0000 
      5 O49        95.7730   44.7140   44.9930 O.3       1 77Z564      0.0000 
      6 C19        95.5680   45.0060   46.3310 C.ar      1 77Z564      0.0000 
      7 C18        94.7170   44.1640   47.0100 C.ar      1 77Z564      0.0000 
      8 C20        96.1720   46.0650   46.9780 C.ar      1 77Z564      0.0000 
      9 C14        95.8820   46.2410   48.3140 C.ar      1 77Z564      0.0000 
     10 S15        96.6150   47.5830   49.2040 S.o2      1 77Z564      0.0000 
     11 O21        95.7510   48.7110   48.9280 O.2       1 77Z564      0.0000 
     12 O22        98.0110   47.6000   48.8140 O.2       1 77Z564      0.0000 
     13 N16        96.5460   47.1320   50.7650 N.pl3     1 77Z564      0.0000 
     14 C13        95.0320   45.4150   49.0120 C.ar      1 77Z564      0.0000 
     15 C17        94.4450   44.3630   48.3440 C.ar      1 77Z564      0.0000 
     16 N12        94.7560   45.6280   50.3680 N.pl3     1 77Z564      0.0000 
     17 C11        95.6710   46.2690   51.1690 C.3       1 77Z564      0.0000 
     18 C9         95.7270   45.8800   52.5910 C.3       1 77Z564      0.0000 
     19 C8         94.9750   44.7250   53.1330 C.2       1 77Z564      0.0000 
     20 O24        94.2560   44.0810   52.3800 O.2       1 77Z564      0.0000 
     21 C10        96.5260   46.5940   53.3960 C.2       1 77Z564      0.0000 
     22 O23        97.2660   47.6760   52.9870 O.2       1 77Z564      0.0000 
     23 C4         96.6640   46.2720   54.7970 C.ar      1 77Z564      0.0000 
     24 C5         97.4960   47.0280   55.5950 C.ar      1 77Z564      0.0000 
     25 C6         97.6390   46.7210   56.9280 C.ar      1 77Z564      0.0000 
     26 C3         95.9720   45.2050   55.3210 C.ar      1 77Z564      0.0000 
     27 C2         96.1150   44.9000   56.6580 C.ar      1 77Z564      0.0000 
     28 C1         96.9470   45.6540   57.4540 C.ar      1 77Z564      0.0000 
     29 N7         95.1310   44.4500   54.4810 N.am      1 77Z564      0.0000 
     30 C33        94.4010   43.3330   55.0440 C.3       1 77Z564      0.0000 
     31 C34        93.1600   43.7400   55.8280 C.3       1 77Z564      0.0000 
     32 C37        92.1600   44.5840   55.0600 C.3       1 77Z564      0.0000 
     33 C44        91.1420   45.1740   56.0060 C.3       1 77Z564      0.0000 
     34 C40        91.4220   43.7500   54.0440 C.3       1 77Z564      0.0000 
     35 H          97.2912   47.1471   42.5438 H         1 77Z564      0.0000 
     36 H          97.3468   45.9647   41.1931 H         1 77Z564      0.0000 
     37 H          95.7733   46.6643   44.2719 H         1 77Z564      0.0000 
     38 H          97.3515   46.0533   44.7973 H         1 77Z564      0.0000 
     39 H          94.2748   43.3687   46.5092 H         1 77Z564      0.0000 
     40 H          96.8044   46.6889   46.4888 H         1 77Z564      0.0000 
     41 H          97.2590   47.6148   51.3160 H         1 77Z564      0.0000 
     42 H          93.8041   43.7273   48.8426 H         1 77Z564      0.0000 
     43 H          93.8594   45.2984   50.7567 H         1 77Z564      0.0000 
     44 H          94.7289   47.2842   51.5056 H         1 77Z564      0.0000 
     45 H          94.6175   46.7475   52.8736 H         1 77Z564      0.0000 
     46 H          98.0123   47.8262   55.1897 H         1 77Z564      0.0000 
     47 H          98.2580   47.2840   57.5273 H         1 77Z564      0.0000 
     48 H          95.5957   44.1030   57.0625 H         1 77Z564      0.0000 
     49 H          97.0532   45.4163   58.4573 H         1 77Z564      0.0000 
     50 H          95.0515   42.7407   55.7234 H         1 77Z564      0.0000 
     51 H          94.0811   42.6297   54.2449 H         1 77Z564      0.0000 
     52 H          93.4780   44.2945   56.7346 H         1 77Z564      0.0000 
     53 H          92.6527   42.8232   56.1922 H         1 77Z564      0.0000 
     54 H          92.6730   45.3806   54.5582 H         1 77Z564      0.0000 
     55 H          91.5706   45.7566   56.6966 H         1 77Z564      0.0000 
     56 H          90.4697   45.7363   55.5245 H         1 77Z564      0.0000 
     57 H          90.6345   44.4646   56.4950 H         1 77Z564      0.0000 
     58 H          92.0448   43.3372   53.3794 H         1 77Z564      0.0000 
     59 H          90.9154   43.0029   54.4743 H         1 77Z564      0.0000 
     60 H          90.7603   44.2935   53.5274 H         1 77Z564      0.0000 
@<TRIPOS>BOND
     1    2    1 2    
     2    3    2 am   
     3    4    2 1    
     4   35    3 1    
     5   36    3 1    
     6    5    4 1    
     7   37    4 1    
     8   38    4 1    
     9    6    5 1    
    10    7    6 ar   
    11    8    6 ar   
    12   15    7 ar   
    13   39    7 1    
    14    9    8 ar   
    15   40    8 1    
    16   10    9 1    
    17   14    9 ar   
    18   11   10 2    
    19   12   10 2    
    20   13   10 1    
    21   17   13 1    
    22   41   13 1    
    23   15   14 ar   
    24   16   14 1    
    25   42   15 1    
    26   17   16 1    
    27   43   16 1    
    28   18   17 1    
    29   44   17 1    
    30   19   18 1    
    31   21   18 1    
    32   45   18 1    
    33   20   19 2    
    34   29   19 am   
    35   22   21 2    
    36   23   21 1    
    37   24   23 ar   
    38   26   23 ar   
    39   25   24 ar   
    40   46   24 1    
    41   28   25 ar   
    42   47   25 1    
    43   27   26 ar   
    44   29   26 1    
    45   28   27 ar   
    46   48   27 1    
    47   49   28 1    
    48   30   29 1    
    49   31   30 1    
    50   50   30 1    
    51   51   30 1    
    52   32   31 1    
    53   52   31 1    
    54   53   31 1    
    55   33   32 1    
    56   34   32 1    
    57   54   32 1    
    58   55   33 1    
    59   56   33 1    
    60   57   33 1    
    61   58   34 1    
    62   59   34 1    
    63   60   34 1    
@<TRIPOS>SUBSTRUCTURE
     1 77Z564      1 GROUP   
@<TRIPOS>SET

