#    Name: 1ebw_BEI_1_INTS_M
#    Modification time : Mon Mar 24 23:24:14 2014

@<TRIPOS>MOLECULE
1ebw_BEI_1_INTS_M
  102     0     9     0     0
SMALL
NO_CHARGES


@<TRIPOS>ATOM
      1 CA         13.8880   21.9250   10.4055 C.3       3 GLC5        0.0000 
      2 CA         15.6340   21.2070    9.4800 C.3       9 GLL5        0.0000 
      3 CA         12.1420   22.6430   11.3310 C.3       6 GLP5        0.0000 
      4 CA         18.8390   23.6435    8.4585 C.3       3 GLC5        0.0000 
      5 CA         17.8460   21.9740    8.6640 C.3       9 GLL5        0.0000 
      6 CA         19.8320   25.3130    8.2530 C.3       6 GLP5        0.0000 
      7 CA         17.8170   24.3635    8.2265 C.3       3 GLC5        0.0000 
      8 CA         15.8020   23.4140    8.2000 C.3       9 GLL5        0.0000 
      9 CA         12.6720   21.6435    3.9940 C.3       3 GLC5        0.0000 
     10 CA         14.0930   23.0280    4.9120 C.3       9 GLL5        0.0000 
     11 CA         11.2510   20.2590    3.0760 C.3       6 GLP5        0.0000 
     12 CA         13.0865   26.4745    3.3105 C.3       3 GLC5        0.0000 
     13 CA         12.2940   24.6570    4.2920 C.3       9 GLL5        0.0000 
     14 CA         13.8790   28.2920    2.3290 C.3       6 GLP5        0.0000 
     15 O          11.0905   26.7540    4.3340 O.2       1 ALC1        0.0000 
     16 O          10.4190   25.8270    5.4040 O.2       7 ALL1        0.0000 
     17 O          11.7620   27.6810    3.2640 O.2       4 ALP1        0.0000 
     18 CA         10.6645   27.5795    5.9290 C.3       3 GLC5        0.0000 
     19 CA          9.2350   25.9870    6.2840 C.3       9 GLL5        0.0000 
     20 CA         12.0940   29.1720    5.5740 C.3       6 GLP5        0.0000 
     21 CA          6.8290   26.4455    9.7855 C.3       3 GLC5        0.0000 
     22 CA          8.2980   26.8910    8.5270 C.3       9 GLL5        0.0000 
     23 CA          5.3600   26.0000   11.0440 C.3       6 GLP5        0.0000 
     24 CA         11.6455   26.8770   11.3290 C.3       3 GLC5        0.0000 
     25 CA         11.3160   26.7570    9.5730 C.3       9 GLL5        0.0000 
     26 CA         11.9750   26.9970   13.0850 C.3       6 GLP5        0.0000 
     27 CA         12.9255   26.0565   10.1465 C.3       3 GLC5        0.0000 
     28 CA         14.5350   25.3560   10.7200 C.3       6 GLP5        0.0000 
     29 N           9.3580   29.2035    5.3260 N.am      2 SEC2        0.0000 
     30 N           8.6910   27.9580    5.0600 N.am      8 SEL2        0.0000 
     31 N          10.0250   30.4490    5.5920 N.am      5 SEP2        0.0000 
     32 O           6.7525   25.1245    6.0370 O.2       1 ALC1        0.0000 
     33 O           6.9760   26.4220    5.3980 O.2       7 ALL1        0.0000 
     34 O           6.5290   23.8270    6.6760 O.2       4 ALP1        0.0000 
     35 N          15.4675   26.3505    4.5810 N.am      2 SEC2        0.0000 
     36 N          14.7800   25.2040    4.3700 N.am      8 SEL2        0.0000 
     37 N          16.1550   27.4970    4.7920 N.am      5 SEP2        0.0000 
     38 O          14.8045   24.9785    3.0480 O.2       1 ALC1        0.0000 
     39 O          14.7800   25.2040    4.3700 O.2       7 ALL1        0.0000 
     40 O          14.8290   24.7530    1.7260 O.2       4 ALP1        0.0000 
     41 O          14.7175   23.7675    2.6385 O.2       1 ALC1        0.0000 
     42 O          14.6060   22.7820    3.5510 O.2       7 ALL1        0.0000 
     43 O          17.4800   21.9885    5.3025 O.2       1 ALC1        0.0000 
     44 O          16.5460   20.7420    5.3250 O.2       7 ALL1        0.0000 
     45 O          18.4140   23.2350    5.2800 O.2       4 ALP1        0.0000 
     46 CA         17.7855   20.8015    3.9235 C.3       3 GLC5        0.0000 
     47 CA         16.8210   19.3220    5.1510 C.3       9 GLL5        0.0000 
     48 CA         18.7500   22.2810    2.6960 C.3       6 GLP5        0.0000 
     49 CA         16.6370   15.5470    3.4715 C.3       3 GLC5        0.0000 
     50 CA         17.2260   17.3950    3.4290 C.3       9 GLL5        0.0000 
     51 CA         16.0480   13.6990    3.5140 C.3       6 GLP5        0.0000 
     52 CA         15.2595   17.8825    0.1230 C.3       3 GLC5        0.0000 
     53 CA         15.3410   19.0800    1.5130 C.3       9 GLL5        0.0000 
     54 CA         15.1780   16.6850   -1.2670 C.3       6 GLP5        0.0000 
     55 CA         13.9215   20.2195    0.7890 C.3       3 GLC5        0.0000 
     56 CA         12.5020   21.3590    0.0650 C.3       6 GLP5        0.0000 
     57 N          19.8305   20.1870    4.0430 N.am      2 SEC2        0.0000 
     58 N          19.1520   19.7800    5.2690 N.am      8 SEL2        0.0000 
     59 N          20.5090   20.5940    2.8170 N.am      5 SEP2        0.0000 
     60 O          16.9710   17.5455    6.9905 O.2       1 ALC1        0.0000 
     61 O          18.2940   18.1270    6.6760 O.2       7 ALL1        0.0000 
     62 O          15.6480   16.9640    7.3050 O.2       4 ALP1        0.0000 
     63 CA         11.5845   22.7473    1.0837 C.3       3 GLC5        0.0000 
     64 CA          9.9100   24.1780    2.1720 C.3       9 GLL5        0.0000 
     65 CA          8.2658   24.2390    0.3922 C.3       3 GLC5        0.0000 
     66 CA          7.8190   25.4550    1.9400 C.3       9 GLL5        0.0000 
     67 CA          9.0780   23.5720   -1.4070 C.3       6 GLP5        0.0000 
     68 CA          8.3080   22.3670    4.5397 C.3       3 GLC5        0.0000 
     69 CA          7.7540   23.1590    2.8160 C.3       9 GLL5        0.0000 
     70 CA          8.1540   21.6180    6.3320 C.3       6 GLP5        0.0000 
     71 CA          8.7700   23.3440    0.6702 C.3       3 GLC5        0.0000 
     72 CA          7.0672   22.0752    1.7416 C.3       3 GLC5        0.0000 
     73 CA          9.1700   23.0730    2.6790 C.3       9 GLL5        0.0000 
     74 CA          5.8390   20.7350    0.8290 C.3       6 GLP5        0.0000 
     75 CA         14.5970   19.4002    8.8633 C.3       3 GLC5        0.0000 
     76 CA         16.2240   20.0240   10.0370 C.3       9 GLL5        0.0000 
     77 CA         13.2650   18.1850    7.9680 C.3       6 GLP5        0.0000 
     78 CA         17.3092   21.5040   11.0685 C.3       3 GLC5        0.0000 
     79 CA         17.6980   23.0840   12.1660 C.3       6 GLP5        0.0000 
     80 CA         16.0135   19.8114   11.6434 C.3       3 GLC5        0.0000 
     81 CA         17.6170   19.8240    9.9050 C.3       9 GLL5        0.0000 
     82 CA         15.2540   19.4030   13.4550 C.3       6 GLP5        0.0000 
     83 CA         17.9190   22.2340   10.5542 C.3       3 GLC5        0.0000 
     84 CA         18.4340   20.7940    9.2210 C.3       9 GLL5        0.0000 
     85 CA         16.8095   22.8189   10.4172 C.3       3 GLC5        0.0000 
     86 CA         15.2280   23.9549    9.6943 C.3       3 GLC5        0.0000 
     87 CA         16.4460   22.1800    8.7940 C.3       9 GLL5        0.0000 
     88 CA         11.1680   24.4742    9.5317 C.3       3 GLC5        0.0000 
     89 CA         10.6480   25.8520    8.4900 C.3       9 GLL5        0.0000 
     90 CA         11.3540   22.6440   10.0320 C.3       6 GLP5        0.0000 
     91 CA         11.7611   27.7341    7.8686 C.3       3 GLC5        0.0000 
     92 CA         12.8060   28.9590    6.9120 C.3       6 GLP5        0.0000 
     93 CA         10.8665   22.0591    2.6526 C.3       3 GLC5        0.0000 
     94 CA         11.4240   24.0930    2.0330 C.3       9 GLL5        0.0000 
     95 CA         11.0493   25.7544    0.7384 C.3       3 GLC5        0.0000 
     96 CA         11.6020   27.0780   -0.5350 C.3       6 GLP5        0.0000 
     97 CA          9.7873   24.0014    0.3024 C.3       3 GLC5        0.0000 
     98 CA         13.3293   18.9090    2.7130 C.3       3 GLC5        0.0000 
     99 CA         15.3220   19.0400    3.0550 C.3       9 GLL5        0.0000 
    100 CA         11.3270   18.7580    3.1420 C.3       6 GLP5        0.0000 
    101 CA         16.7050   20.5946    2.0000 C.3       3 GLC5        0.0000 
    102 CA         17.7200   22.1670    1.5730 C.3       6 GLP5        0.0000 
@<TRIPOS>BOND
@<TRIPOS>SUBSTRUCTURE
     1 ALC1       15 GROUP        1 X    ALC  0     ROOT ALC X 1
     2 SEC2       29 GROUP        1 X    SEC  0     **** SEC X 2
     3 GLC5        1 GROUP        1 X    GLC  0     **** GLC X 6
     4 ALP1       17 GROUP        1 Y    ALP  0     ROOT ALP Y 8
     5 SEP2       31 GROUP        1 Y    SEP  0     **** SEP Y 9
     6 GLP5        3 GROUP        1 Y    GLP  0     **** GLP Y 13
     7 ALL1       16 GROUP        1 Z    ALL  0     ROOT ALL Z 15
     8 SEL2       30 GROUP        1 Z    SEL  0     **** SEL Z 16
     9 GLL5        2 GROUP        1 Z    GLL  0     **** GLL Z 20
@<TRIPOS>SET

