#    Name: 1ebw_BEI_1_ligand
#    Modification time : Mon Mar 24 23:24:14 2014

@<TRIPOS>MOLECULE
1ebw_BEI_1_ligand
   96    97     1     0     0
SMALL
NO_CHARGES


@<TRIPOS>ATOM
      1 C34         9.9100   24.1780    2.1720 C.ar      1 BEI501      0.0000 
      2 C35         9.2280   25.3590    1.8090 C.ar      1 BEI501      0.0000 
      3 C36         7.8190   25.4550    1.9400 C.ar      1 BEI501      0.0000 
      4 C37         7.0880   24.3570    2.4430 C.ar      1 BEI501      0.0000 
      5 C38         7.7540   23.1590    2.8160 C.ar      1 BEI501      0.0000 
      6 C39         9.1700   23.0730    2.6790 C.ar      1 BEI501      0.0000 
      7 C40        16.4460   22.1800    8.7940 C.ar      1 BEI501      0.0000 
      8 C41        15.6340   21.2070    9.4800 C.ar      1 BEI501      0.0000 
      9 C42        16.2240   20.0240   10.0370 C.ar      1 BEI501      0.0000 
     10 C43        17.6170   19.8240    9.9050 C.ar      1 BEI501      0.0000 
     11 C44        18.4340   20.7940    9.2210 C.ar      1 BEI501      0.0000 
     12 C45        17.8460   21.9740    8.6640 C.ar      1 BEI501      0.0000 
     13 C30        15.8020   23.4140    8.2000 C.3       1 BEI501      0.0000 
     14 O29        14.7140   23.0580    7.2820 O.3       1 BEI501      0.0000 
     15 C5         15.1550   22.6460    5.9370 C.3       1 BEI501      0.0000 
     16 C4         14.0930   23.0280    4.9120 C.3       1 BEI501      0.0000 
     17 C3         13.6800   24.4670    4.9960 C.3       1 BEI501      0.0000 
     18 C2         12.2940   24.6570    4.2920 C.3       1 BEI501      0.0000 
     19 C1         11.1140   24.6630    5.2640 C.2       1 BEI501      0.0000 
     20 O17        10.8230   23.6230    5.8630 O.2       1 BEI501      0.0000 
     21 N18        10.4190   25.8270    5.4040 N.am      1 BEI501      0.0000 
     22 C19         9.2350   25.9870    6.2840 C.3       1 BEI501      0.0000 
     23 C20         9.5850   26.6710    7.6650 C.3       1 BEI501      0.0000 
     24 C21         8.2980   26.8910    8.5270 C.3       1 BEI501      0.0000 
     25 C22        10.6480   25.8520    8.4900 C.3       1 BEI501      0.0000 
     26 C46        11.3160   26.7570    9.5730 C.3       1 BEI501      0.0000 
     27 C23         8.2700   26.8820    5.5190 C.2       1 BEI501      0.0000 
     28 O24         8.6910   27.9580    5.0600 O.2       1 BEI501      0.0000 
     29 N25         6.9760   26.4220    5.3980 N.am      1 BEI501      0.0000 
     30 C26         6.0360   27.2650    4.6770 C.3       1 BEI501      0.0000 
     31 O32        12.0690   23.6150    3.2490 O.3       1 BEI501      0.0000 
     32 C33        11.4240   24.0930    2.0330 C.3       1 BEI501      0.0000 
     33 O27        14.7800   25.2040    4.3700 O.3       1 BEI501      0.0000 
     34 O28        14.6060   22.7820    3.5510 O.3       1 BEI501      0.0000 
     35 C6         15.3520   21.1950    5.7900 C.2       1 BEI501      0.0000 
     36 O7         14.3850   20.4830    6.1080 O.2       1 BEI501      0.0000 
     37 N8         16.5460   20.7420    5.3250 N.am      1 BEI501      0.0000 
     38 C9         16.8210   19.3220    5.1510 C.3       1 BEI501      0.0000 
     39 C10        16.7560   18.8890    3.6270 C.3       1 BEI501      0.0000 
     40 C11        17.2260   17.3950    3.4290 C.3       1 BEI501      0.0000 
     41 C12        15.3220   19.0400    3.0550 C.3       1 BEI501      0.0000 
     42 C47        15.3410   19.0800    1.5130 C.3       1 BEI501      0.0000 
     43 C13        18.2000   19.0980    5.7050 C.2       1 BEI501      0.0000 
     44 O14        19.1520   19.7800    5.2690 O.2       1 BEI501      0.0000 
     45 N15        18.2940   18.1270    6.6760 N.am      1 BEI501      0.0000 
     46 C16        19.6250   17.8910    7.2220 C.3       1 BEI501      0.0000 
     47 H           9.7557   26.1606    1.4451 H         1 BEI501      0.0000 
     48 H           7.3403   26.3121    1.6720 H         1 BEI501      0.0000 
     49 H           6.0717   24.4207    2.5410 H         1 BEI501      0.0000 
     50 H           7.2286   22.3710    3.1767 H         1 BEI501      0.0000 
     51 H           9.6537   22.2166    2.9453 H         1 BEI501      0.0000 
     52 H          14.6327   21.3632    9.5687 H         1 BEI501      0.0000 
     53 H          15.6438   19.3489   10.5152 H         1 BEI501      0.0000 
     54 H          18.0587   18.9905   10.2928 H         1 BEI501      0.0000 
     55 H          19.4343   20.6353    9.1357 H         1 BEI501      0.0000 
     56 H          18.4242   22.6507    8.1843 H         1 BEI501      0.0000 
     57 H          16.5739   23.9931    7.6736 H         1 BEI501      0.0000 
     58 H          15.4226   24.0402    9.0198 H         1 BEI501      0.0000 
     59 H          16.0614   23.1658    5.6577 H         1 BEI501      0.0000 
     60 H          13.2189   22.4023    5.0714 H         1 BEI501      0.0000 
     61 H          13.5836   24.7311    6.0288 H         1 BEI501      0.0000 
     62 H          12.3187   25.6390    3.7938 H         1 BEI501      0.0000 
     63 H          10.6994   26.6894    4.8788 H         1 BEI501      0.0000 
     64 H           8.7652   25.0556    6.4695 H         1 BEI501      0.0000 
     65 H          10.0115   27.6484    7.4550 H         1 BEI501      0.0000 
     66 H          11.4057   25.4891    7.8135 H         1 BEI501      0.0000 
     67 H          10.1490   25.0275    8.9744 H         1 BEI501      0.0000 
     68 H           6.6621   25.5511    5.7770 H         1 BEI501      0.0000 
     69 H          11.7996   25.0953    1.7605 H         1 BEI501      0.0000 
     70 H          11.6529   23.4266    1.1824 H         1 BEI501      0.0000 
     71 H          17.3131   21.3956    5.0743 H         1 BEI501      0.0000 
     72 H          16.1224   18.7260    5.6968 H         1 BEI501      0.0000 
     73 H          17.4198   19.5213    3.0649 H         1 BEI501      0.0000 
     74 H          14.8880   19.9611    3.4317 H         1 BEI501      0.0000 
     75 H          14.7214   18.1976    3.3839 H         1 BEI501      0.0000 
     76 H          17.5245   17.5969    7.0116 H         1 BEI501      0.0000 
     77 H           8.5078   27.3232    9.4040 H         1 BEI501      0.0000 
     78 H           7.6354   27.4781    8.0620 H         1 BEI501      0.0000 
     79 H           7.8343   26.0283    8.7289 H         1 BEI501      0.0000 
     80 H          11.9960   26.2556   10.1080 H         1 BEI501      0.0000 
     81 H          11.7840   27.5408    9.1648 H         1 BEI501      0.0000 
     82 H          10.6446   27.1203   10.2190 H         1 BEI501      0.0000 
     83 H           5.9366   28.1624    5.1069 H         1 BEI501      0.0000 
     84 H           6.3268   27.4226    3.7333 H         1 BEI501      0.0000 
     85 H           5.1243   26.8559    4.6384 H         1 BEI501      0.0000 
     86 H          18.1694   17.2593    3.7315 H         1 BEI501      0.0000 
     87 H          16.6575   16.7552    3.9461 H         1 BEI501      0.0000 
     88 H          17.1828   17.1161    2.4697 H         1 BEI501      0.0000 
     89 H          15.8850   19.8449    1.1680 H         1 BEI501      0.0000 
     90 H          15.7302   18.2448    1.1246 H         1 BEI501      0.0000 
     91 H          14.4215   19.1793    1.1327 H         1 BEI501      0.0000 
     92 H          20.2722   17.6087    6.5139 H         1 BEI501      0.0000 
     93 H          20.0008   18.7118    7.6522 H         1 BEI501      0.0000 
     94 H          19.6192   17.1722    7.9172 H         1 BEI501      0.0000 
     95 H          14.7506   24.9425    3.4052 H         1 BEI501      0.0000 
     96 H          14.6207   23.6812    3.1136 H         1 BEI501      0.0000 
@<TRIPOS>BOND
     1    2    1 ar   
     2    6    1 ar   
     3   32    1 1    
     4    3    2 ar   
     5   47    2 1    
     6    4    3 ar   
     7   48    3 1    
     8    5    4 ar   
     9   49    4 1    
    10    6    5 ar   
    11   50    5 1    
    12   51    6 1    
    13    8    7 ar   
    14   12    7 ar   
    15   13    7 1    
    16    9    8 ar   
    17   52    8 1    
    18   10    9 ar   
    19   53    9 1    
    20   11   10 ar   
    21   54   10 1    
    22   12   11 ar   
    23   55   11 1    
    24   56   12 1    
    25   14   13 1    
    26   57   13 1    
    27   58   13 1    
    28   15   14 1    
    29   16   15 1    
    30   35   15 1    
    31   59   15 1    
    32   17   16 1    
    33   34   16 1    
    34   60   16 1    
    35   18   17 1    
    36   33   17 1    
    37   61   17 1    
    38   19   18 1    
    39   31   18 1    
    40   62   18 1    
    41   20   19 2    
    42   21   19 am   
    43   22   21 1    
    44   63   21 1    
    45   23   22 1    
    46   27   22 1    
    47   64   22 1    
    48   24   23 1    
    49   25   23 1    
    50   65   23 1    
    51   77   24 1    
    52   78   24 1    
    53   79   24 1    
    54   26   25 1    
    55   66   25 1    
    56   67   25 1    
    57   80   26 1    
    58   81   26 1    
    59   82   26 1    
    60   28   27 2    
    61   29   27 am   
    62   30   29 1    
    63   68   29 1    
    64   83   30 1    
    65   84   30 1    
    66   85   30 1    
    67   32   31 1    
    68   69   32 1    
    69   70   32 1    
    70   95   33 1    
    71   96   34 1    
    72   36   35 2    
    73   37   35 am   
    74   38   37 1    
    75   71   37 1    
    76   39   38 1    
    77   43   38 1    
    78   72   38 1    
    79   40   39 1    
    80   41   39 1    
    81   73   39 1    
    82   86   40 1    
    83   87   40 1    
    84   88   40 1    
    85   42   41 1    
    86   74   41 1    
    87   75   41 1    
    88   89   42 1    
    89   90   42 1    
    90   91   42 1    
    91   44   43 2    
    92   45   43 am   
    93   46   45 1    
    94   76   45 1    
    95   92   46 1    
    96   93   46 1    
    97   94   46 1    
@<TRIPOS>SUBSTRUCTURE
     1 BEI501      1 GROUP   
@<TRIPOS>SET

