#    Name: 1r5k_GW5_2_INTS_M
#    Modification time : Tue Mar 25 00:23:48 2014

@<TRIPOS>MOLECULE
1r5k_GW5_2_INTS_M
   81     0     3     0     0
SMALL
NO_CHARGES


@<TRIPOS>ATOM
      1 CA        -16.8175   18.7035  335.5730 C.3       1 GLC5        0.0000 
      2 CA        -16.5050   20.8010  335.3410 C.3       3 GLL5        0.0000 
      3 CA        -17.1300   16.6060  335.8050 C.3       2 GLP5        0.0000 
      4 CA        -16.1415   21.0235  332.2920 C.3       1 GLC5        0.0000 
      5 CA        -15.8110   22.5060  333.8050 C.3       3 GLL5        0.0000 
      6 CA        -16.4720   19.5410  330.7790 C.3       2 GLP5        0.0000 
      7 CA        -14.5705   23.7685  335.0580 C.3       1 GLC5        0.0000 
      8 CA        -13.3300   25.0310  336.3110 C.3       2 GLP5        0.0000 
      9 CA        -14.0975   23.4555  332.7920 C.3       1 GLC5        0.0000 
     10 CA        -12.3840   24.4050  331.7790 C.3       2 GLP5        0.0000 
     11 CA        -16.7000   25.0690  334.4220 C.3       1 GLC5        0.0000 
     12 CA        -17.0030   23.2090  333.9680 C.3       3 GLL5        0.0000 
     13 CA        -16.3970   26.9290  334.8760 C.3       2 GLP5        0.0000 
     14 CA        -17.6865   18.5045  336.7570 C.3       1 GLC5        0.0000 
     15 CA        -18.2430   20.4030  337.7090 C.3       3 GLL5        0.0000 
     16 CA        -18.8310   19.0450  338.7980 C.3       1 GLC5        0.0000 
     17 CA        -19.4190   17.6870  339.8870 C.3       2 GLP5        0.0000 
     18 CA        -17.9915   23.5970  338.6400 C.3       1 GLC5        0.0000 
     19 CA        -17.5220   21.4800  338.5190 C.3       3 GLL5        0.0000 
     20 CA        -18.4610   25.7140  338.7610 C.3       2 GLP5        0.0000 
     21 CA        -17.8350   19.4945  339.4455 C.3       1 GLC5        0.0000 
     22 CA        -18.1480   17.5090  340.3720 C.3       2 GLP5        0.0000 
     23 CA        -16.0620   22.7465  338.8140 C.3       1 GLC5        0.0000 
     24 CA        -14.6020   24.0130  339.1090 C.3       2 GLP5        0.0000 
     25 CA        -15.9800   20.0590  339.0855 C.3       1 GLC5        0.0000 
     26 CA        -14.4380   18.6380  339.6520 C.3       2 GLP5        0.0000 
     27 CA        -17.1010   22.0425  340.2255 C.3       1 GLC5        0.0000 
     28 CA        -16.6800   22.6050  341.9320 C.3       2 GLP5        0.0000 
     29 CA        -20.4880   17.8000  335.7345 C.3       1 GLC5        0.0000 
     30 CA        -21.5700   19.2050  336.6890 C.3       3 GLL5        0.0000 
     31 CA        -19.4060   16.3950  334.7800 C.3       2 GLP5        0.0000 
     32 CA        -23.1205   16.6150  338.0835 C.3       1 GLC5        0.0000 
     33 CA        -22.4910   18.7170  337.6150 C.3       3 GLL5        0.0000 
     34 CA        -23.7500   14.5130  338.5520 C.3       2 GLP5        0.0000 
     35 CA        -24.2470   20.9110  338.4010 C.3       1 GLC5        0.0000 
     36 CA        -22.7580   19.4140  338.7890 C.3       3 GLL5        0.0000 
     37 CA        -25.7360   22.4080  338.0130 C.3       2 GLP5        0.0000 
     38 CA        -23.5170   21.9790  338.9595 C.3       1 GLC5        0.0000 
     39 CA        -22.0810   20.5980  339.0170 C.3       3 GLL5        0.0000 
     40 CA        -24.9530   23.3600  338.9020 C.3       2 GLP5        0.0000 
     41 CA        -20.8535   20.4400  340.8670 C.3       1 GLC5        0.0000 
     42 CA        -19.6260   20.2820  342.7170 C.3       2 GLP5        0.0000 
     43 CA        -21.4780   23.0680  337.2040 C.3       1 GLC5        0.0000 
     44 CA        -21.1560   21.0770  338.0910 C.3       3 GLL5        0.0000 
     45 CA        -21.8000   25.0590  336.3170 C.3       2 GLP5        0.0000 
     46 CA        -21.7505   23.2435  335.3335 C.3       1 GLC5        0.0000 
     47 CA        -21.7010   21.4280  334.3500 C.3       3 GLL5        0.0000 
     48 CA        -23.5045   22.0265  335.4760 C.3       1 GLC5        0.0000 
     49 CA        -25.3080   22.6250  336.6020 C.3       2 GLP5        0.0000 
     50 CA        -19.5550   18.3730  334.1945 C.3       1 GLC5        0.0000 
     51 CA        -19.7040   20.3510  333.6090 C.3       3 GLL5        0.0000 
     52 CA        -23.5980   23.2010  331.4770 C.3       1 GLC5        0.0000 
     53 CA        -23.1500   21.3480  330.3100 C.3       3 GLL5        0.0000 
     54 CA        -24.0460   25.0540  332.6440 C.3       2 GLP5        0.0000 
     55 CA        -23.9455   22.9755  329.6645 C.3       1 GLC5        0.0000 
     56 CA        -24.7410   24.6030  329.0190 C.3       2 GLP5        0.0000 
     57 CA        -15.9342   19.6320  333.3377 C.3       1 GLC5        0.0000 
     58 CA        -15.8410   18.2090  331.7680 C.3       2 GLP5        0.0000 
     59 CA        -14.9342   19.8395  335.4482 C.3       1 GLC5        0.0000 
     60 CA        -15.5500   21.3090  334.4740 C.3       3 GLL5        0.0000 
     61 CA        -13.8410   18.6240  335.9890 C.3       2 GLP5        0.0000 
     62 CA        -14.8283   21.9967  332.2653 C.3       1 GLC5        0.0000 
     63 CA        -13.9760   22.0860  330.3910 C.3       2 GLP5        0.0000 
     64 CA        -17.6067   22.8936  332.5094 C.3       1 GLC5        0.0000 
     65 CA        -18.0320   23.0160  330.6590 C.3       2 GLP5        0.0000 
     66 CA        -23.2688   19.2835  335.6365 C.3       1 GLC5        0.0000 
     67 CA        -24.5070   19.6060  334.1210 C.3       2 GLP5        0.0000 
     68 CA        -22.7903   20.3860  334.3098 C.3       1 GLC5        0.0000 
     69 CA        -23.1562   20.3830  333.3293 C.3       1 GLC5        0.0000 
     70 CA        -22.1830   21.4340  333.0560 C.3       3 GLL5        0.0000 
     71 CA        -18.2078   19.9473  331.8682 C.3       1 GLC5        0.0000 
     72 CA        -20.1830   20.3560  332.3060 C.3       3 GLL5        0.0000 
     73 CA        -18.9878   21.6848  331.8082 C.3       1 GLC5        0.0000 
     74 CA        -21.4988   18.7685  331.7632 C.3       1 GLC5        0.0000 
     75 CA        -22.1920   16.9160  331.3640 C.3       2 GLP5        0.0000 
     76 CA        -22.5143   19.3935  329.7490 C.3       1 GLC5        0.0000 
     77 CA        -21.8970   20.8580  330.7040 C.3       3 GLL5        0.0000 
     78 CA        -22.5050   17.6840  328.9910 C.3       2 GLP5        0.0000 
     79 CA        -23.5152   20.3545  332.3140 C.3       1 GLC5        0.0000 
     80 CA        -20.7971   22.8320  331.4824 C.3       1 GLC5        0.0000 
     81 CA        -19.7430   24.6550  331.3440 C.3       2 GLP5        0.0000 
@<TRIPOS>BOND
@<TRIPOS>SUBSTRUCTURE
     1 GLC5        1 GROUP        1 X    GLC  0     ROOT GLC X 6
     2 GLP5        3 GROUP        1 Y    GLP  0     ROOT GLP Y 13
     3 GLL5        2 GROUP        1 Z    GLL  0     ROOT GLL Z 20
@<TRIPOS>SET

