#    Name: 1r5k_GW5_2_ligand
#    Modification time : Tue Mar 25 00:23:48 2014

@<TRIPOS>MOLECULE
1r5k_GW5_2_ligand
   48    50     1     0     0
SMALL
NO_CHARGES


@<TRIPOS>ATOM
      1 C21       -16.5050   20.8010  335.3410 C.ar      1 GW5601      0.0000 
      2 C22       -15.5500   21.3090  334.4740 C.ar      1 GW5601      0.0000 
      3 C23       -15.8110   22.5060  333.8050 C.ar      1 GW5601      0.0000 
      4 C24       -17.0030   23.2090  333.9680 C.ar      1 GW5601      0.0000 
      5 C25       -17.9560   22.6850  334.8330 C.ar      1 GW5601      0.0000 
      6 C20       -17.7040   21.4860  335.5060 C.ar      1 GW5601      0.0000 
      7 C3        -18.6520   20.9560  336.3640 C.2       1 GW5601      0.0000 
      8 C2        -18.2430   20.4030  337.7090 C.3       1 GW5601      0.0000 
      9 C1        -17.5220   21.4800  338.5190 C.3       1 GW5601      0.0000 
     10 C4        -19.9910   20.9150  335.9860 C.2       1 GW5601      0.0000 
     11 C5        -20.8870   20.3880  336.9190 C.ar      1 GW5601      0.0000 
     12 C6        -21.5700   19.2050  336.6890 C.ar      1 GW5601      0.0000 
     13 C7        -22.4910   18.7170  337.6150 C.ar      1 GW5601      0.0000 
     14 C8        -22.7580   19.4140  338.7890 C.ar      1 GW5601      0.0000 
     15 C9        -22.0810   20.5980  339.0170 C.ar      1 GW5601      0.0000 
     16 C10       -21.1560   21.0770  338.0910 C.ar      1 GW5601      0.0000 
     17 C11       -20.4460   20.9040  334.6470 C.ar      1 GW5601      0.0000 
     18 C19       -21.7010   21.4280  334.3500 C.ar      1 GW5601      0.0000 
     19 C18       -22.1830   21.4340  333.0560 C.ar      1 GW5601      0.0000 
     20 C12       -19.7040   20.3510  333.6090 C.ar      1 GW5601      0.0000 
     21 C13       -20.1830   20.3560  332.3060 C.ar      1 GW5601      0.0000 
     22 C14       -21.4280   20.8860  332.0190 C.ar      1 GW5601      0.0000 
     23 C15       -21.8970   20.8580  330.7040 C.2       1 GW5601      0.0000 
     24 C16       -23.1500   21.3480  330.3100 C.2       1 GW5601      0.0000 
     25 C17       -23.5050   21.2600  328.9470 C.2       1 GW5601      0.0000 
     26 O2        -24.5920   21.6590  328.4910 O.co2     1 GW5601      0.0000 
     27 O1        -22.6720   20.7760  328.1770 O.co2     1 GW5601      0.0000 
     28 H         -16.3318   19.9328  335.8542 H         1 GW5601      0.0000 
     29 H         -14.6671   20.8180  334.3240 H         1 GW5601      0.0000 
     30 H         -15.0853   22.8880  333.1586 H         1 GW5601      0.0000 
     31 H         -17.1683   24.0764  333.4698 H         1 GW5601      0.0000 
     32 H         -18.8462   23.1756  334.9803 H         1 GW5601      0.0000 
     33 H         -17.5754   19.5563  337.5708 H         1 GW5601      0.0000 
     34 H         -19.1241   20.0777  338.2561 H         1 GW5601      0.0000 
     35 H         -21.3968   18.6727  335.8181 H         1 GW5601      0.0000 
     36 H         -22.9804   17.8270  337.4258 H         1 GW5601      0.0000 
     37 H         -23.4350   19.0583  339.4605 H         1 GW5601      0.0000 
     38 H         -22.2592   21.1365  339.8810 H         1 GW5601      0.0000 
     39 H         -20.6605   21.9678  338.2862 H         1 GW5601      0.0000 
     40 H         -22.2798   21.8192  335.1167 H         1 GW5601      0.0000 
     41 H         -23.1066   21.8449  332.8485 H         1 GW5601      0.0000 
     42 H         -18.7801   19.9293  333.8121 H         1 GW5601      0.0000 
     43 H         -19.6041   19.9607  331.5473 H         1 GW5601      0.0000 
     44 H         -21.2739   20.4446  329.9623 H         1 GW5601      0.0000 
     45 H         -23.7864   21.7550  330.9821 H         1 GW5601      0.0000 
     46 H         -17.2407   21.1430  339.4175 H         1 GW5601      0.0000 
     47 H         -16.6969   21.8031  338.0556 H         1 GW5601      0.0000 
     48 H         -18.1029   22.2790  338.6744 H         1 GW5601      0.0000 
@<TRIPOS>BOND
     1    2    1 ar   
     2    6    1 ar   
     3   28    1 1    
     4    3    2 ar   
     5   29    2 1    
     6    4    3 ar   
     7   30    3 1    
     8    5    4 ar   
     9   31    4 1    
    10    6    5 ar   
    11   32    5 1    
    12    7    6 1    
    13    8    7 1    
    14   10    7 2    
    15    9    8 1    
    16   33    8 1    
    17   34    8 1    
    18   46    9 1    
    19   47    9 1    
    20   48    9 1    
    21   11   10 1    
    22   17   10 1    
    23   12   11 ar   
    24   16   11 ar   
    25   13   12 ar   
    26   35   12 1    
    27   14   13 ar   
    28   36   13 1    
    29   15   14 ar   
    30   37   14 1    
    31   16   15 ar   
    32   38   15 1    
    33   39   16 1    
    34   18   17 ar   
    35   20   17 ar   
    36   19   18 ar   
    37   40   18 1    
    38   22   19 ar   
    39   41   19 1    
    40   21   20 ar   
    41   42   20 1    
    42   22   21 ar   
    43   43   21 1    
    44   23   22 1    
    45   24   23 2    
    46   44   23 1    
    47   25   24 1    
    48   45   24 1    
    49   26   25 ar   
    50   27   25 ar   
@<TRIPOS>SUBSTRUCTURE
     1 GW5601      1 GROUP   
@<TRIPOS>SET

