#    Name: 2PJA_1_CAVITY_N1_6.mol2
#    Modification time : Tue Mar 11 05:27:39 2014

@<TRIPOS>MOLECULE
2PJA_1_CAVITY_N1_6.mol2
   81     0     7     0     0
SMALL
NO_CHARGES


@<TRIPOS>ATOM
      1 CZ         40.0536   13.1788   59.6027 C.ar      5 PHE5        0.0000 
      2 CA         41.2898   10.0654   59.7718 C.3       6 GLY6        0.0000 
      3 CZ         40.2492   11.0769   59.3926 C.ar      5 PHE5        0.0000 
      4 OG         39.2085   12.0885   59.0134 O.2       1 SER1        0.0000 
      5 NZ         38.1679   13.1001   58.6342 N.2       4 LYS4        0.0000 
      6 O          40.4448    8.9751   59.1825 O.2       2 ALA2        0.0000 
      7 O          39.4041    9.9867   58.8033 O.2       2 ALA2        0.0000 
      8 O          38.3635   10.9983   58.4241 O.2       2 ALA2        0.0000 
      9 NZ         37.3228   12.0098   58.0449 N.2       4 LYS4        0.0000 
     10 O          37.5185    9.9080   57.8348 O.2       2 ALA2        0.0000 
     11 NZ         36.4778   10.9196   57.4556 N.2       4 LYS4        0.0000 
     12 CZ         38.9893   17.1872   61.3492 C.ar      5 PHE5        0.0000 
     13 OG         37.9486   18.1987   60.9700 O.2       1 SER1        0.0000 
     14 OG         36.9080   19.2103   60.5907 O.2       1 SER1        0.0000 
     15 CA         38.1443   16.0969   60.7599 C.3       6 GLY6        0.0000 
     16 CA         37.1036   17.1085   60.3806 C.3       6 GLY6        0.0000 
     17 CA         37.2992   15.0067   60.1705 C.3       6 GLY6        0.0000 
     18 N          36.2586   16.0182   59.7913 N.2       2 ALA2        0.0000 
     19 O          39.5761   10.8817   60.7189 O.2       2 ALA2        0.0000 
     20 OG         38.5355   11.8933   60.3397 O.2       1 SER1        0.0000 
     21 OG         37.4948   12.9049   59.9605 O.2       1 SER1        0.0000 
     22 NZ         36.4542   13.9164   59.5812 N.2       4 LYS4        0.0000 
     23 O          38.7311    9.7915   60.1296 O.2       2 ALA2        0.0000 
     24 O          37.6905   10.8030   59.7504 O.2       2 ALA2        0.0000 
     25 NZ         36.6498   11.8146   59.3711 N.2       4 LYS4        0.0000 
     26 O          36.8454    9.7128   59.1610 O.2       2 ALA2        0.0000 
     27 OD1        35.8048   10.7244   58.7818 O.3       3 ASP3        0.0000 
     28 CA         41.7672   12.3624   58.6557 C.3       6 GLY6        0.0000 
     29 OG         41.9629   10.2606   58.4456 O.2       1 SER1        0.0000 
     30 CA         40.9222   11.2722   58.0664 C.3       6 GLY6        0.0000 
     31 CA         39.8816   12.2837   57.6872 C.3       6 GLY6        0.0000 
     32 OG         41.5952   11.4674   56.7401 O.2       1 SER1        0.0000 
     33 CA         40.5546   12.4789   56.3609 C.3       6 GLY6        0.0000 
     34 OG         40.7502   10.3771   56.1508 O.2       1 SER1        0.0000 
     35 CA         39.7096   11.3887   55.7716 C.3       6 GLY6        0.0000 
     36 CA         38.6689   12.4002   55.3924 C.3       6 GLY6        0.0000 
     37 NZ         40.9458    8.2753   55.9407 N.2       4 LYS4        0.0000 
     38 NZ         39.9052    9.2869   55.5615 N.2       4 LYS4        0.0000 
     39 OG         38.8645   10.2984   55.1823 O.2       1 SER1        0.0000 
     40 OG         35.9532   14.6162   62.8230 O.2       1 SER1        0.0000 
     41 CZ         34.9125   15.6278   62.4438 C.ar      5 PHE5        0.0000 
     42 CZ         33.8719   16.6394   62.0646 C.ar      5 PHE5        0.0000 
     43 O          36.1488   12.5144   62.6129 O.2       2 ALA2        0.0000 
     44 O          35.1081   13.5260   62.2337 O.2       2 ALA2        0.0000 
     45 N          34.0675   14.5375   61.8545 N.2       2 ALA2        0.0000 
     46 CZ         35.0845   16.5228   64.3594 C.ar      5 PHE5        0.0000 
     47 CZ         34.0439   17.5344   63.9802 C.ar      5 PHE5        0.0000 
     48 O          36.3208   13.4095   64.5285 O.2       2 ALA2        0.0000 
     49 O          35.2801   14.4210   64.1493 O.2       2 ALA2        0.0000 
     50 CZ         34.2395   15.4326   63.7701 C.ar      5 PHE5        0.0000 
     51 OG         41.4233   10.5723   54.8246 O.2       1 SER1        0.0000 
     52 CA         40.3826   11.5839   54.4454 C.3       6 GLY6        0.0000 
     53 O          34.4115   16.3276   65.6856 O.2       2 ALA2        0.0000 
     54 OG         36.0393   21.1169   62.1271 O.2       1 SER1        0.0000 
     55 DU         37.2756   18.0035   62.2962 H         7 CUB7        0.0000 
     56 OG         36.2350   19.0151   61.9170 O.2       1 SER1        0.0000 
     57 OG         37.4712   15.9017   62.0861 O.2       1 SER1        0.0000 
     58 DU         36.4306   16.9133   61.7069 H         7 CUB7        0.0000 
     59 N          35.3899   17.9248   61.3277 N.2       2 ALA2        0.0000 
     60 OG         36.6262   14.8114   61.4968 O.2       1 SER1        0.0000 
     61 N          35.5855   15.8230   61.1176 N.2       2 ALA2        0.0000 
     62 N          34.5449   16.8346   60.7384 N.2       2 ALA2        0.0000 
     63 OG         36.8218   12.7096   61.2867 O.2       1 SER1        0.0000 
     64 OG         35.7812   13.7212   60.9075 O.2       1 SER1        0.0000 
     65 N          34.7405   14.7328   60.5283 N.2       2 ALA2        0.0000 
     66 O          37.0174   10.6078   61.0766 O.2       2 ALA2        0.0000 
     67 OD1        35.9768   11.6194   60.6974 O.3       3 ASP3        0.0000 
     68 DU         36.6026   17.8083   63.6224 H         7 CUB7        0.0000 
     69 OG         35.5619   18.8198   63.2432 O.2       1 SER1        0.0000 
     70 OG         36.7982   15.7065   63.4123 O.2       1 SER1        0.0000 
     71 DU         35.7575   16.7180   63.0331 H         7 CUB7        0.0000 
     72 CZ         34.7169   17.7296   62.6539 C.ar      5 PHE5        0.0000 
     73 N          42.1585    8.1588   58.2355 N.2       2 ALA2        0.0000 
     74 OG         41.1178    9.1703   57.8563 O.2       1 SER1        0.0000 
     75 DU         40.0772   10.1819   57.4771 H         7 CUB7        0.0000 
     76 DU         39.0365   11.1935   57.0979 H         7 CUB7        0.0000 
     77 O          40.2728    8.0801   57.2670 O.2       2 ALA2        0.0000 
     78 O          39.2322    9.0917   56.8878 O.2       2 ALA2        0.0000 
     79 CA         38.1915   10.1032   56.5086 C.3       6 GLY6        0.0000 
     80 O          38.3871    8.0014   56.2985 O.2       2 ALA2        0.0000 
     81 CA         39.4667   19.4842   60.2330 C.3       6 GLY6        0.0000 
@<TRIPOS>BOND
@<TRIPOS>SUBSTRUCTURE
     1 SER1        4 GROUP   
     2 ALA2        6 GROUP   
     3 ASP3       27 GROUP   
     4 LYS4        5 GROUP   
     5 PHE5        1 GROUP   
     6 GLY6        2 GROUP   
     7 CUB7       55 GROUP   
@<TRIPOS>SET

