#    Name: 2pja_33Z_1_INTS_M
#    Modification time : Mon Mar 24 19:04:12 2014

@<TRIPOS>MOLECULE
2pja_33Z_1_INTS_M
   98     0    18     0     0
SMALL
NO_CHARGES


@<TRIPOS>ATOM
      1 CA         40.0280   17.7425   60.0540 C.3       6 GLC5        0.0000 
      2 CA         39.2120   19.0240   61.4920 C.3      18 GLL5        0.0000 
      3 CA         40.8440   16.4610   58.6160 C.3      12 GLP5        0.0000 
      4 CA         38.9560   17.9165   59.5030 C.3       6 GLC5        0.0000 
      5 CA         38.4880   19.8240   60.5720 C.3      18 GLL5        0.0000 
      6 CA         39.4240   16.0090   58.4340 C.3      12 GLP5        0.0000 
      7 CA         35.4620   11.6250   66.1435 C.3       6 GLC5        0.0000 
      8 CA         36.9430   13.1520   65.5970 C.3      18 GLL5        0.0000 
      9 CA         33.9810   10.0980   66.6900 C.3      12 GLP5        0.0000 
     10 N          33.7530   14.0525   65.4980 N.am      2 SEC2        0.0000 
     11 N          34.4360   14.2730   64.1940 N.am     14 SEL2        0.0000 
     12 N          33.0700   13.8320   66.8020 N.am      8 SEP2        0.0000 
     13 O          37.6380   13.9950   62.4735 O.2       1 ALC1        0.0000 
     14 O          36.0590   14.4750   62.6060 O.2      13 ALL1        0.0000 
     15 O          39.2170   13.5150   62.3410 O.2       7 ALP1        0.0000 
     16 CA         37.9755   16.0750   59.3115 C.3       6 GLC5        0.0000 
     17 CA         36.5270   16.1410   60.1890 C.3      18 GLL5        0.0000 
     18 CA         33.1720   18.1260   61.7940 C.3       6 GLC5        0.0000 
     19 CA         34.3790   16.7840   61.2860 C.3      18 GLL5        0.0000 
     20 CA         31.9650   19.4680   62.3020 C.3      12 GLP5        0.0000 
     21 CA         32.7370   16.3190   62.0955 C.3       6 GLC5        0.0000 
     22 CA         31.0950   15.8540   62.9050 C.3      12 GLP5        0.0000 
     23 Zn         33.7600   11.8670   59.7935 Zn        5 ZIC7        0.0000 
     24 Zn         34.3460   12.7440   59.4610 Zn       17 ZIL7        0.0000 
     25 Zn         33.1740   10.9900   60.1260 Zn       11 ZIP7        0.0000 
     26 N          34.8935   13.1135   58.2660 N.am      2 SEC2        0.0000 
     27 N          34.3460   12.7440   59.4610 N.am     14 SEL2        0.0000 
     28 N          35.4410   13.4830   57.0710 N.am      8 SEP2        0.0000 
     29 NZ         35.8565   10.7565   62.7975 N.4       4 LYC4        0.0000 
     30 NZ         35.2660   11.7410   61.6140 N.4      16 LYL4        0.0000 
     31 NZ         35.3850   10.1930   64.6560 N.4      10 LYP4        0.0000 
     32 Zn         34.2200   11.3655   60.8700 Zn        5 ZIC7        0.0000 
     33 Zn         35.2660   11.7410   61.6140 Zn       17 ZIL7        0.0000 
     34 N          34.9460   11.4500   62.8825 N.am      2 SEC2        0.0000 
     35 N          35.2660   11.7410   61.6140 N.am     14 SEL2        0.0000 
     36 N          34.6260   11.1590   64.1510 N.am      8 SEP2        0.0000 
     37 N          35.8565   10.7565   62.7975 N.am      2 SEC2        0.0000 
     38 N          36.4470    9.7720   63.9810 N.am      8 SEP2        0.0000 
     39 CA         38.2110   14.3900   59.1395 C.3       6 GLC5        0.0000 
     40 CA         36.9980   12.7710   59.8450 C.3      18 GLL5        0.0000 
     41 CA         38.7620   13.3220   60.9600 C.3       6 GLC5        0.0000 
     42 CA         40.5260   13.8730   62.0750 C.3      12 GLP5        0.0000 
     43 NZ         38.8155    9.5030   61.9415 N.4       4 LYC4        0.0000 
     44 NZ         38.3810   11.0550   61.5600 N.4      16 LYL4        0.0000 
     45 NZ         40.0710    8.5140   63.2000 N.4      10 LYP4        0.0000 
     46 N          37.4140   10.4135   62.7705 N.am      2 SEC2        0.0000 
     47 N          38.3810   11.0550   61.5600 N.am     14 SEL2        0.0000 
     48 N          38.8155    9.5030   61.9415 N.am      2 SEC2        0.0000 
     49 N          39.2500    7.9510   62.3230 N.am      8 SEP2        0.0000 
     50 N          39.2130   10.4425   62.4710 N.am      2 SEC2        0.0000 
     51 N          40.0450    9.8300   63.3820 N.am      8 SEP2        0.0000 
     52 N          38.7990   12.2850   61.9505 N.am      2 SEC2        0.0000 
     53 N          39.2170   13.5150   62.3410 N.am      8 SEP2        0.0000 
     54 NZ         37.4200    9.2710   60.6330 N.4      16 LYL4        0.0000 
     55 N          37.3235    8.2565   59.6255 N.am      2 SEC2        0.0000 
     56 N          37.4200    9.2710   60.6330 N.am     14 SEL2        0.0000 
     57 N          37.2270    7.2420   58.6180 N.am      8 SEP2        0.0000 
     58 N          38.3350    8.6110   61.4780 N.am      2 SEC2        0.0000 
     59 CA         39.0770   14.2280   57.9725 C.3       6 GLC5        0.0000 
     60 CA         38.7300   12.4470   57.5110 C.3      18 GLL5        0.0000 
     61 CA         40.5545   12.8255   54.9750 C.3       6 GLC5        0.0000 
     62 CA         40.1060   11.1060   55.9740 C.3      18 GLL5        0.0000 
     63 CA         41.0030   14.5450   53.9760 C.3      12 GLP5        0.0000 
     64 O          40.3960    7.3520   55.2895 O.2       1 ALC1        0.0000 
     65 O          40.2380    8.7380   56.2920 O.2      13 ALL1        0.0000 
     66 O          40.5540    5.9660   54.2870 O.2       7 ALP1        0.0000 
     67 O          40.1485    8.2960   54.7875 O.2       1 ALC1        0.0000 
     68 O          40.0590    7.8540   53.2830 O.2       7 ALP1        0.0000 
     69 OD1        41.0470    6.4065   55.4475 O.co2     3 ASC3        0.0000 
     70 OD1        41.1140    8.0350   57.0370 O.co2    15 ASL3        0.0000 
     71 OD1        40.5540    5.9660   54.2870 O.co2     9 ASP3        0.0000 
     72 OD1        40.3960    7.3520   55.2895 O.co2     3 ASC3        0.0000 
     73 OD1        40.0590    7.8540   53.2830 O.co2     9 ASP3        0.0000 
     74 O          42.9975    7.7845   58.8475 O.2       1 ALC1        0.0000 
     75 O          41.5800    8.5270   58.1910 O.2      13 ALL1        0.0000 
     76 O          44.4150    7.0420   59.5040 O.2       7 ALP1        0.0000 
     77 O          41.0470    6.4065   55.4475 O.2       1 ALC1        0.0000 
     78 O          41.5400    6.8470   56.6080 O.2      13 ALL1        0.0000 
     79 O          42.5560    5.9860   57.1650 O.2       1 ALC1        0.0000 
     80 O          43.5720    5.1250   57.7220 O.2       7 ALP1        0.0000 
     81 CA         39.0913   11.4980   66.8972 C.3       6 GLC5        0.0000 
     82 CA         39.4280   13.2920   66.2200 C.3      18 GLL5        0.0000 
     83 CA         39.4320    9.7490   67.3660 C.3      12 GLP5        0.0000 
     84 CA         39.8715   11.5222   67.6208 C.3       6 GLC5        0.0000 
     85 CA         40.4670   13.3240   67.1840 C.3      18 GLL5        0.0000 
     86 CA         37.0900   11.8520   69.4418 C.3       6 GLC5        0.0000 
     87 CA         38.8030   13.1780   68.9880 C.3      18 GLL5        0.0000 
     88 CA         35.8980   10.5420   70.3790 C.3      12 GLP5        0.0000 
     89 CA         38.8570   11.4555   67.9352 C.3       6 GLC5        0.0000 
     90 CA         37.7610   13.1460   68.0210 C.3      18 GLL5        0.0000 
     91 CA         38.8840   13.2590   55.2172 C.3       6 GLC5        0.0000 
     92 CA         38.6090   14.1140   53.4860 C.3      12 GLP5        0.0000 
     93 CA         37.7010   11.5480   55.5757 C.3       6 GLC5        0.0000 
     94 CA         39.5880   12.3610   56.3860 C.3      18 GLL5        0.0000 
     95 CA         36.2430   10.6920   54.2030 C.3      12 GLP5        0.0000 
     96 CA         40.9220   13.2018   56.7400 C.3       6 GLC5        0.0000 
     97 CA         41.9970   14.6700   57.3000 C.3      12 GLP5        0.0000 
     98 CA         38.0893   10.6065   55.2672 C.3       6 GLC5        0.0000 
@<TRIPOS>BOND
@<TRIPOS>SUBSTRUCTURE
     1 ALC1       13 GROUP        1 X    ALC  0     ROOT ALC X 1
     2 SEC2       10 GROUP        1 X    SEC  0     **** SEC X 2
     3 ASC3       69 GROUP        1 X    ASC  0     **** ASC X 3
     4 LYC4       29 GROUP        1 X    LYC  0     **** LYC X 4
     5 ZIC7       23 GROUP        1 X    ZIC  0     **** ZIC X 5
     6 GLC5        1 GROUP        1 X    GLC  0     **** GLC X 6
     7 ALP1       15 GROUP        1 Y    ALP  0     ROOT ALP Y 8
     8 SEP2       12 GROUP        1 Y    SEP  0     **** SEP Y 9
     9 ASP3       71 GROUP        1 Y    ASP  0     **** ASP Y 10
    10 LYP4       31 GROUP        1 Y    LYP  0     **** LYP Y 11
    11 ZIP7       25 GROUP        1 Y    ZIP  0     **** ZIP Y 12
    12 GLP5        3 GROUP        1 Y    GLP  0     **** GLP Y 13
    13 ALL1       14 GROUP        1 Z    ALL  0     ROOT ALL Z 15
    14 SEL2       11 GROUP        1 Z    SEL  0     **** SEL Z 16
    15 ASL3       70 GROUP        1 Z    ASL  0     **** ASL Z 17
    16 LYL4       30 GROUP        1 Z    LYL  0     **** LYL Z 18
    17 ZIL7       24 GROUP        1 Z    ZIL  0     **** ZIL Z 19
    18 GLL5        2 GROUP        1 Z    GLL  0     **** GLL Z 20
@<TRIPOS>SET

