#    Name: 2pja_33Z_1_ligand
#    Modification time : Mon Mar 24 19:04:12 2014

@<TRIPOS>MOLECULE
2pja_33Z_1_ligand
   81    83     1     0     0
SMALL
NO_CHARGES


@<TRIPOS>ATOM
      1 C49        38.6150   18.6500   62.7230 C.ar      1 33Z401      0.0000 
      2 C50        39.2120   19.0240   61.4920 C.ar      1 33Z401      0.0000 
      3 C51        38.4880   19.8240   60.5720 C.ar      1 33Z401      0.0000 
      4 C52        37.1710   20.2520   60.8830 C.ar      1 33Z401      0.0000 
      5 C53        36.5720   19.8780   62.1130 C.ar      1 33Z401      0.0000 
      6 C48        37.2930   19.0750   63.0330 C.ar      1 33Z401      0.0000 
      7 C47        36.6920   18.6520   64.2160 C.3       1 33Z401      0.0000 
      8 O46        36.6780   17.2330   64.4840 O.3       1 33Z401      0.0000 
      9 C44        36.2220   16.8260   65.7200 C.2       1 33Z401      0.0000 
     10 O45        35.7640   17.6420   66.5300 O.2       1 33Z401      0.0000 
     11 N43        36.2440   15.5040   65.9630 N.am      1 33Z401      0.0000 
     12 C34        36.7060   14.5200   64.9480 C.3       1 33Z401      0.0000 
     13 C35        36.9430   13.1520   65.5970 C.3       1 33Z401      0.0000 
     14 C36        38.0730   13.2020   66.6370 C.ar      1 33Z401      0.0000 
     15 C37        39.4280   13.2920   66.2200 C.ar      1 33Z401      0.0000 
     16 C38        40.4670   13.3240   67.1840 C.ar      1 33Z401      0.0000 
     17 C41        40.1550   13.2670   68.5670 C.ar      1 33Z401      0.0000 
     18 C40        38.8030   13.1780   68.9880 C.ar      1 33Z401      0.0000 
     19 C39        37.7610   13.1460   68.0210 C.ar      1 33Z401      0.0000 
     20 C32        35.6220   14.3890   63.8690 C.2       1 33Z401      0.0000 
     21 O33        34.4360   14.2730   64.1940 O.2       1 33Z401      0.0000 
     22 N31        36.0590   14.4750   62.6060 N.am      1 33Z401      0.0000 
     23 C27        35.1310   14.3760   61.4610 C.3       1 33Z401      0.0000 
     24 C28        35.1290   15.6530   60.5720 C.3       1 33Z401      0.0000 
     25 C30        36.5270   16.1410   60.1890 C.3       1 33Z401      0.0000 
     26 C29        34.3790   16.7840   61.2860 C.3       1 33Z401      0.0000 
     27 P24        35.3390   12.7860   60.5610 P.3       1 33Z401      0.0000 
     28 O25        34.3460   12.7440   59.4610 O.co2     1 33Z401      0.0000 
     29 O26        35.2660   11.7410   61.6140 O.co2     1 33Z401      0.0000 
     30 C23        36.9980   12.7710   59.8450 C.3       1 33Z401      0.0000 
     31 C1         37.3210   11.3250   59.4110 C.3       1 33Z401      0.0000 
     32 C2         37.7640   10.4740   60.6340 C.2       1 33Z401      0.0000 
     33 O14        38.3810   11.0550   61.5600 O.co2     1 33Z401      0.0000 
     34 O13        37.4200    9.2710   60.6330 O.co2     1 33Z401      0.0000 
     35 C3         38.3740   11.2740   58.2440 C.ar      1 33Z401      0.0000 
     36 C8         38.9010   10.0250   57.8250 C.ar      1 33Z401      0.0000 
     37 C4         38.7300   12.4470   57.5110 C.ar      1 33Z401      0.0000 
     38 C5         39.5880   12.3610   56.3860 C.ar      1 33Z401      0.0000 
     39 C6         40.1060   11.1060   55.9740 C.ar      1 33Z401      0.0000 
     40 C7         39.7650    9.9360   56.6890 C.ar      1 33Z401      0.0000 
     41 N9         40.2380    8.7380   56.2920 N.pl3     1 33Z401      0.0000 
     42 C10        41.1140    8.0350   57.0370 C.cat     1 33Z401      0.0000 
     43 N12        41.5800    8.5270   58.1910 N.pl3     1 33Z401      0.0000 
     44 N11        41.5400    6.8470   56.6080 N.pl3     1 33Z401      0.0000 
     45 H          39.1319   18.0762   63.3877 H         1 33Z401      0.0000 
     46 H          40.1571   18.7190   61.2698 H         1 33Z401      0.0000 
     47 H          38.9138   20.0926   59.6852 H         1 33Z401      0.0000 
     48 H          36.6544   20.8299   60.2200 H         1 33Z401      0.0000 
     49 H          35.6274   20.1851   62.3347 H         1 33Z401      0.0000 
     50 H          35.6174   19.0338   64.2690 H         1 33Z401      0.0000 
     51 H          37.1708   19.1772   65.1095 H         1 33Z401      0.0000 
     52 H          35.9414   15.0973   66.8680 H         1 33Z401      0.0000 
     53 H          37.6079   14.8528   64.4874 H         1 33Z401      0.0000 
     54 H          37.2035   12.4280   64.8230 H         1 33Z401      0.0000 
     55 H          36.0242   12.8226   66.0853 H         1 33Z401      0.0000 
     56 H          39.6521   13.3335   65.2266 H         1 33Z401      0.0000 
     57 H          41.4391   13.3880   66.8839 H         1 33Z401      0.0000 
     58 H          40.9032   13.2900   69.2590 H         1 33Z401      0.0000 
     59 H          38.5781   13.1371   69.9793 H         1 33Z401      0.0000 
     60 H          36.7900   13.0828   68.3224 H         1 33Z401      0.0000 
     61 H          37.0555   14.6134   62.3653 H         1 33Z401      0.0000 
     62 H          34.0834   14.2358   61.8591 H         1 33Z401      0.0000 
     63 H          34.5789   15.4248   59.6581 H         1 33Z401      0.0000 
     64 H          37.5987   13.1119   60.6376 H         1 33Z401      0.0000 
     65 H          36.9111   13.4386   59.0375 H         1 33Z401      0.0000 
     66 H          36.3909   10.8796   59.0262 H         1 33Z401      0.0000 
     67 H          38.6623    9.1731   58.3398 H         1 33Z401      0.0000 
     68 H          38.3607   13.3533   57.8037 H         1 33Z401      0.0000 
     69 H          39.8350   13.2066   55.8688 H         1 33Z401      0.0000 
     70 H          40.7219   11.0514   55.1645 H         1 33Z401      0.0000 
     71 H          39.9128    8.3385   55.3705 H         1 33Z401      0.0000 
     72 H          41.2521    9.4367   58.4459 H         1 33Z401      0.0000 
     73 H          42.2144    7.9409   58.6950 H         1 33Z401      0.0000 
     74 H          42.1899    6.3720   57.2014 H         1 33Z401      0.0000 
     75 H          41.1714    6.5377   55.7314 H         1 33Z401      0.0000 
     76 H          37.0760   16.3644   60.9944 H         1 33Z401      0.0000 
     77 H          37.0327   15.4504   59.6719 H         1 33Z401      0.0000 
     78 H          36.4907   16.9637   59.6216 H         1 33Z401      0.0000 
     79 H          34.8004   17.0130   62.1635 H         1 33Z401      0.0000 
     80 H          34.3640   17.6220   60.7405 H         1 33Z401      0.0000 
     81 H          33.4277   16.5388   61.4728 H         1 33Z401      0.0000 
@<TRIPOS>BOND
     1    2    1 ar   
     2    6    1 ar   
     3   45    1 1    
     4    3    2 ar   
     5   46    2 1    
     6    4    3 ar   
     7   47    3 1    
     8    5    4 ar   
     9   48    4 1    
    10    6    5 ar   
    11   49    5 1    
    12    7    6 1    
    13    8    7 1    
    14   50    7 1    
    15   51    7 1    
    16    9    8 1    
    17   10    9 2    
    18   11    9 am   
    19   12   11 1    
    20   52   11 1    
    21   13   12 1    
    22   20   12 1    
    23   53   12 1    
    24   14   13 1    
    25   54   13 1    
    26   55   13 1    
    27   15   14 ar   
    28   19   14 ar   
    29   16   15 ar   
    30   56   15 1    
    31   17   16 ar   
    32   57   16 1    
    33   18   17 ar   
    34   58   17 1    
    35   19   18 ar   
    36   59   18 1    
    37   60   19 1    
    38   21   20 2    
    39   22   20 am   
    40   23   22 1    
    41   61   22 1    
    42   24   23 1    
    43   27   23 1    
    44   62   23 1    
    45   25   24 1    
    46   26   24 1    
    47   63   24 1    
    48   76   25 1    
    49   77   25 1    
    50   78   25 1    
    51   79   26 1    
    52   80   26 1    
    53   81   26 1    
    54   28   27 ar   
    55   29   27 ar   
    56   30   27 1    
    57   31   30 1    
    58   64   30 1    
    59   65   30 1    
    60   32   31 1    
    61   35   31 1    
    62   66   31 1    
    63   33   32 ar   
    64   34   32 ar   
    65   36   35 ar   
    66   37   35 ar   
    67   40   36 ar   
    68   67   36 1    
    69   38   37 ar   
    70   68   37 1    
    71   39   38 ar   
    72   69   38 1    
    73   40   39 ar   
    74   70   39 1    
    75   41   40 1    
    76   42   41 ar   
    77   71   41 1    
    78   43   42 ar   
    79   44   42 ar   
    80   72   43 1    
    81   73   43 1    
    82   74   44 1    
    83   75   44 1    
@<TRIPOS>SUBSTRUCTURE
     1 33Z401      1 GROUP   
@<TRIPOS>SET

