#    Name: 3t1t_GDP_2_INTS_M
#    Modification time : Mon Mar 24 19:02:27 2014

@<TRIPOS>MOLECULE
3t1t_GDP_2_INTS_M
   56     0    12     0     0
SMALL
NO_CHARGES


@<TRIPOS>ATOM
      1 NZ         -0.5120  -25.4980  -41.6710 N.4       3 LYC4        0.0000 
      2 NZ          0.5010  -25.3380  -42.5890 N.4      11 LYL4        0.0000 
      3 NZ         -1.5250  -25.6580  -40.7530 N.4       7 LYP4        0.0000 
      4 N           0.6355  -24.2285  -43.6020 N.am      2 SEC2        0.0000 
      5 N           0.5010  -25.3380  -42.5890 N.am     10 SEL2        0.0000 
      6 N           0.7700  -23.1190  -44.6150 N.am      6 SEP2        0.0000 
      7 N           1.1500  -24.0680  -42.3255 N.am      2 SEC2        0.0000 
      8 N           1.7990  -22.7980  -42.0620 N.am      6 SEP2        0.0000 
      9 N          -0.5120  -25.4980  -41.6710 N.am      2 SEC2        0.0000 
     10 N          -1.5250  -25.6580  -40.7530 N.am      6 SEP2        0.0000 
     11 NZ         -0.2170  -26.7100  -41.7190 N.4       3 LYC4        0.0000 
     12 NZ          1.0910  -27.7620  -42.6850 N.4      11 LYL4        0.0000 
     13 N          -0.1975  -27.6830  -43.5940 N.am      2 SEC2        0.0000 
     14 N           1.0910  -27.7620  -42.6850 N.am     10 SEL2        0.0000 
     15 N          -1.4860  -27.6040  -44.5030 N.am      6 SEP2        0.0000 
     16 N           0.9995  -28.8310  -41.9180 N.am      2 SEC2        0.0000 
     17 N           0.9080  -29.9000  -41.1510 N.am      6 SEP2        0.0000 
     18 N           3.4365  -25.1715  -41.2045 N.am      2 SEC2        0.0000 
     19 N           2.7010  -26.2130  -41.7000 N.am     10 SEL2        0.0000 
     20 N           4.1720  -24.1300  -40.7090 N.am      6 SEP2        0.0000 
     21 N           3.8320  -26.5435  -41.1630 N.am      2 SEC2        0.0000 
     22 N           4.9630  -26.8740  -40.6260 N.am      6 SEP2        0.0000 
     23 N           1.4560  -24.5730  -44.4125 N.am      2 SEC2        0.0000 
     24 N           2.1420  -26.0270  -44.2100 N.am     10 SEL2        0.0000 
     25 N           5.1275  -23.8105  -43.2395 N.am      2 SEC2        0.0000 
     26 N           4.1970  -24.5180  -43.9920 N.am     10 SEL2        0.0000 
     27 N           6.0580  -23.1030  -42.4870 N.am      6 SEP2        0.0000 
     28 N           5.1625  -23.8525  -44.5950 N.am      2 SEC2        0.0000 
     29 N           6.1280  -23.1870  -45.1980 N.am      6 SEP2        0.0000 
     30 CA          0.9420  -26.7505  -46.2945 C.3       4 GLC5        0.0000 
     31 CA          2.5680  -26.3300  -46.9510 C.3      12 GLL5        0.0000 
     32 CA         -0.6840  -27.1710  -45.6380 C.3       8 GLP5        0.0000 
     33 CA          1.9800  -23.4595  -49.2285 C.3       4 GLC5        0.0000 
     34 CA          3.8570  -24.2660  -49.2820 C.3      12 GLL5        0.0000 
     35 CA          0.1030  -22.6530  -49.1750 C.3       8 GLP5        0.0000 
     36 N           2.6305  -20.1540  -47.1880 N.am      2 SEC2        0.0000 
     37 N           3.7670  -20.9420  -47.8690 N.am     10 SEL2        0.0000 
     38 N           1.4940  -19.3660  -46.5070 N.am      6 SEP2        0.0000 
     39 CA          1.7190  -20.4145  -49.4640 C.3       4 GLC5        0.0000 
     40 CA          3.5530  -20.6750  -49.1990 C.3      12 GLL5        0.0000 
     41 CA         -0.1150  -20.1540  -49.7290 C.3       8 GLP5        0.0000 
     42 N           1.6550  -17.7965  -49.3215 N.am      2 SEC2        0.0000 
     43 N           3.2800  -18.3950  -49.4600 N.am     10 SEL2        0.0000 
     44 N           0.0300  -17.1980  -49.1830 N.am      6 SEP2        0.0000 
     45 O           2.7055  -18.4920  -52.2270 O.2       1 ALC1        0.0000 
     46 O           3.1690  -19.5570  -51.3720 O.2       9 ALL1        0.0000 
     47 O           2.2420  -17.4270  -53.0820 O.2       5 ALP1        0.0000 
     48 O           3.6240  -18.8205  -52.7600 O.2       1 ALC1        0.0000 
     49 O           4.0790  -18.0840  -54.1480 O.2       5 ALP1        0.0000 
     50 O           3.5410  -19.4655  -53.7345 O.2       1 ALC1        0.0000 
     51 O           3.0030  -20.8470  -53.3210 O.2       9 ALL1        0.0000 
     52 CA          1.8310  -22.2925  -49.5445 C.3       4 GLC5        0.0000 
     53 CA          3.5590  -21.9320  -49.9140 C.3      12 GLL5        0.0000 
     54 CA          5.7083  -22.9005  -49.2082 C.3       4 GLC5        0.0000 
     55 CA          6.9550  -21.2130  -49.4560 C.3       8 GLP5        0.0000 
     56 CA          5.2555  -21.2583  -49.5063 C.3       4 GLC5        0.0000 
@<TRIPOS>BOND
@<TRIPOS>SUBSTRUCTURE
     1 ALC1       45 GROUP        1 X    ALC  0     ROOT ALC X 1
     2 SEC2        4 GROUP        1 X    SEC  0     **** SEC X 2
     3 LYC4        1 GROUP        1 X    LYC  0     **** LYC X 4
     4 GLC5       30 GROUP        1 X    GLC  0     **** GLC X 6
     5 ALP1       47 GROUP        1 Y    ALP  0     ROOT ALP Y 8
     6 SEP2        6 GROUP        1 Y    SEP  0     **** SEP Y 9
     7 LYP4        3 GROUP        1 Y    LYP  0     **** LYP Y 11
     8 GLP5       32 GROUP        1 Y    GLP  0     **** GLP Y 13
     9 ALL1       46 GROUP        1 Z    ALL  0     ROOT ALL Z 15
    10 SEL2        5 GROUP        1 Z    SEL  0     **** SEL Z 16
    11 LYL4        2 GROUP        1 Z    LYL  0     **** LYL Z 18
    12 GLL5       31 GROUP        1 Z    GLL  0     **** GLL Z 20
@<TRIPOS>SET

