#    Name: 3t1t_GDP_2_ligand
#    Modification time : Mon Mar 24 19:02:27 2014

@<TRIPOS>MOLECULE
3t1t_GDP_2_ligand
   40    42     1     0     0
SMALL
NO_CHARGES


@<TRIPOS>ATOM
      1 PB          1.5810  -26.3500  -42.6520 P.3       1 GDP274      0.0000 
      2 O1B         0.5010  -25.3380  -42.5890 O.co2     1 GDP274      0.0000 
      3 O2B         1.0910  -27.7620  -42.6850 O.co2     1 GDP274      0.0000 
      4 O3B         2.7010  -26.2130  -41.7000 O.co2     1 GDP274      0.0000 
      5 O3A         2.1420  -26.0270  -44.2100 O.3       1 GDP274      0.0000 
      6 PA          3.6420  -25.7210  -44.6050 P.3       1 GDP274      0.0000 
      7 O1A         4.3250  -26.9730  -44.3840 O.co2     1 GDP274      0.0000 
      8 O2A         4.1970  -24.5180  -43.9920 O.co2     1 GDP274      0.0000 
      9 O5'         3.3760  -25.4300  -46.2250 O.3       1 GDP274      0.0000 
     10 C5'         2.5680  -26.3300  -46.9510 C.3       1 GDP274      0.0000 
     11 C4'         3.1120  -26.2650  -48.4290 C.3       1 GDP274      0.0000 
     12 O4'         2.7250  -24.9570  -48.7710 O.3       1 GDP274      0.0000 
     13 C3'         4.6420  -26.3520  -48.6230 C.3       1 GDP274      0.0000 
     14 O3'         4.9170  -26.9340  -49.9400 O.3       1 GDP274      0.0000 
     15 C2'         5.0660  -24.9100  -48.6390 C.3       1 GDP274      0.0000 
     16 O2'         6.2100  -24.6020  -49.4750 O.3       1 GDP274      0.0000 
     17 C1'         3.8570  -24.2660  -49.2820 C.3       1 GDP274      0.0000 
     18 N9          3.7730  -22.8410  -48.9790 N.pl3     1 GDP274      0.0000 
     19 C8          3.8920  -22.2590  -47.7770 C.2       1 GDP274      0.0000 
     20 N7          3.7670  -20.9420  -47.8690 N.2       1 GDP274      0.0000 
     21 C5          3.5530  -20.6750  -49.1990 C.2       1 GDP274      0.0000 
     22 C6          3.3050  -19.4760  -50.0190 C.2       1 GDP274      0.0000 
     23 O6          3.2800  -18.3950  -49.4600 O.2       1 GDP274      0.0000 
     24 N1          3.1690  -19.5570  -51.3720 N.am      1 GDP274      0.0000 
     25 C2          3.1500  -20.7830  -51.9480 C.2       1 GDP274      0.0000 
     26 N2          3.0030  -20.8470  -53.3210 N.pl3     1 GDP274      0.0000 
     27 N3          3.3880  -21.9540  -51.2730 N.2       1 GDP274      0.0000 
     28 C4          3.5590  -21.9320  -49.9140 C.2       1 GDP274      0.0000 
     29 H           1.5335  -26.0398  -46.9902 H         1 GDP274      0.0000 
     30 H           2.6699  -27.3509  -46.6296 H         1 GDP274      0.0000 
     31 H           2.6047  -26.9767  -49.0053 H         1 GDP274      0.0000 
     32 H           5.0660  -26.8568  -47.8386 H         1 GDP274      0.0000 
     33 H           5.1398  -24.5421  -47.6582 H         1 GDP274      0.0000 
     34 H           3.9356  -24.4214  -50.3509 H         1 GDP274      0.0000 
     35 H           4.0521  -22.7545  -46.9360 H         1 GDP274      0.0000 
     36 H           3.0829  -18.7039  -51.9408 H         1 GDP274      0.0000 
     37 H           3.3768  -20.0782  -53.8399 H         1 GDP274      0.0000 
     38 H           2.5357  -21.6565  -53.6762 H         1 GDP274      0.0000 
     39 H           5.6304  -26.3550  -50.3348 H         1 GDP274      0.0000 
     40 H           6.9860  -24.5585  -48.8458 H         1 GDP274      0.0000 
@<TRIPOS>BOND
     1    2    1 ar   
     2    3    1 ar   
     3    4    1 ar   
     4    5    1 1    
     5    6    5 1    
     6    7    6 ar   
     7    8    6 ar   
     8    9    6 1    
     9   10    9 1    
    10   11   10 1    
    11   29   10 1    
    12   30   10 1    
    13   12   11 1    
    14   13   11 1    
    15   31   11 1    
    16   17   12 1    
    17   14   13 1    
    18   15   13 1    
    19   32   13 1    
    20   39   14 1    
    21   16   15 1    
    22   17   15 1    
    23   33   15 1    
    24   40   16 1    
    25   18   17 1    
    26   34   17 1    
    27   19   18 1    
    28   28   18 1    
    29   20   19 2    
    30   35   19 1    
    31   21   20 1    
    32   22   21 1    
    33   28   21 2    
    34   23   22 2    
    35   24   22 am   
    36   25   24 1    
    37   36   24 1    
    38   26   25 1    
    39   27   25 2    
    40   37   26 1    
    41   38   26 1    
    42   28   27 1    
@<TRIPOS>SUBSTRUCTURE
     1 GDP274      1 GROUP   
@<TRIPOS>SET

