#    Name: 4e6d_0NU_2_INTS_M
#    Modification time : Mon Apr  7 23:27:26 2014

@<TRIPOS>MOLECULE
4e6d_0NU_2_INTS_M
   55     0     9     0     0
SMALL
NO_CHARGES


@<TRIPOS>ATOM
      1 CA         -1.1140  -30.6615   11.9280 C.3       3 GLC5        0.0000 
      2 CA         -2.5500  -30.1180   13.2650 C.3       9 GLL5        0.0000 
      3 CA          0.3220  -31.2050   10.5910 C.3       6 GLP5        0.0000 
      4 CA         -1.6285  -28.1780   13.4110 C.3       3 GLC5        0.0000 
      5 CA         -0.7070  -26.2380   13.5570 C.3       6 GLP5        0.0000 
      6 CA         -3.9880  -29.3150   18.3650 C.3       3 GLC5        0.0000 
      7 CA         -3.5830  -31.1240   18.2600 C.3       9 GLL5        0.0000 
      8 CA         -4.3930  -27.5060   18.4700 C.3       6 GLP5        0.0000 
      9 CA         -2.0585  -34.4440   15.2680 C.3       3 GLC5        0.0000 
     10 CA         -2.2830  -33.4090   16.9810 C.3       9 GLL5        0.0000 
     11 CA         -1.8340  -35.4790   13.5550 C.3       6 GLP5        0.0000 
     12 CA         -0.4400  -32.6255   16.0215 C.3       3 GLC5        0.0000 
     13 CA          1.4030  -31.8420   15.0620 C.3       6 GLP5        0.0000 
     14 CA          2.1555  -35.0230   23.3170 C.3       3 GLC5        0.0000 
     15 CA          1.4300  -34.9600   21.3400 C.3       9 GLL5        0.0000 
     16 CA          2.8810  -35.0860   25.2940 C.3       6 GLP5        0.0000 
     17 N           2.8835  -34.1320   22.9960 N.am      2 SEC2        0.0000 
     18 N           2.1450  -33.9030   21.7380 N.am      8 SEL2        0.0000 
     19 N           3.6220  -34.3610   24.2540 N.am      5 SEP2        0.0000 
     20 CA          2.6315  -34.0620   19.6580 C.3       3 GLC5        0.0000 
     21 CA          1.8190  -32.7120   21.2190 C.3       9 GLL5        0.0000 
     22 CA          3.4440  -35.4120   18.0970 C.3       6 GLP5        0.0000 
     23 CA          3.7375  -33.0645   22.2515 C.3       3 GLC5        0.0000 
     24 CA          5.6560  -33.4170   23.2840 C.3       6 GLP5        0.0000 
     25 O           3.5330  -31.1635   22.3055 O.2       1 ALC1        0.0000 
     26 O           2.3680  -31.5010   21.5400 O.2       7 ALL1        0.0000 
     27 O           4.6980  -30.8260   23.0710 O.2       4 ALP1        0.0000 
     28 CA          1.6540  -29.5550   22.5225 C.3       3 GLC5        0.0000 
     29 CA          1.7400  -30.5090   20.8260 C.3       9 GLL5        0.0000 
     30 CA          1.5680  -28.6010   24.2190 C.3       6 GLP5        0.0000 
     31 CA         -2.9560  -31.7843   12.3027 C.3       3 GLC5        0.0000 
     32 CA         -3.3240  -30.7150   14.3500 C.3       9 GLL5        0.0000 
     33 CA         -2.9750  -33.1520   10.7980 C.3       6 GLP5        0.0000 
     34 CA         -4.1015  -30.2773   12.0883 C.3       3 GLC5        0.0000 
     35 CA         -5.2660  -30.1380   10.3690 C.3       6 GLP5        0.0000 
     36 CA         -1.1670  -30.4727   14.4177 C.3       3 GLC5        0.0000 
     37 CA          0.6030  -30.5290   15.0280 C.3       6 GLP5        0.0000 
     38 CA         -2.0503  -33.1325   20.6017 C.3       3 GLC5        0.0000 
     39 CA         -1.7000  -32.8090   18.2320 C.3       9 GLL5        0.0000 
     40 CA         -1.8630  -33.7970   22.5460 C.3       6 GLP5        0.0000 
     41 CA          1.5470  -31.8562   18.2185 C.3       3 GLC5        0.0000 
     42 CA          0.7850  -32.4670   20.2550 C.3       9 GLL5        0.0000 
     43 CA          2.3170  -31.9590   16.2900 C.3       6 GLP5        0.0000 
     44 CA          1.9358  -29.3053   19.3158 C.3       3 GLC5        0.0000 
     45 CA          0.7690  -31.0400   20.0390 C.3       9 GLL5        0.0000 
     46 CA          2.6170  -27.8360   18.1990 C.3       6 GLP5        0.0000 
     47 CA         -0.3460  -36.3245   21.9695 C.3       3 GLC5        0.0000 
     48 CA          0.3940  -34.8600   20.3840 C.3       9 GLL5        0.0000 
     49 CA         -1.6040  -37.7390   23.0770 C.3       6 GLP5        0.0000 
     50 CA          2.1390  -35.0030   19.4125 C.3       3 GLC5        0.0000 
     51 CA         -0.5145  -34.1955   21.6370 C.3       3 GLC5        0.0000 
     52 CA          3.2180  -31.4994   20.1103 C.3       3 GLC5        0.0000 
     53 CA          4.9170  -31.6280   19.4660 C.3       6 GLP5        0.0000 
     54 CA          0.2905  -31.4209   21.9548 C.3       3 GLC5        0.0000 
     55 CA         -0.9380  -31.4710   23.1550 C.3       6 GLP5        0.0000 
@<TRIPOS>BOND
@<TRIPOS>SUBSTRUCTURE
     1 ALC1       25 GROUP        1 X    ALC  0     ROOT ALC X 1
     2 SEC2       17 GROUP        1 X    SEC  0     **** SEC X 2
     3 GLC5        1 GROUP        1 X    GLC  0     **** GLC X 6
     4 ALP1       27 GROUP        1 Y    ALP  0     ROOT ALP Y 8
     5 SEP2       19 GROUP        1 Y    SEP  0     **** SEP Y 9
     6 GLP5        3 GROUP        1 Y    GLP  0     **** GLP Y 13
     7 ALL1       26 GROUP        1 Z    ALL  0     ROOT ALL Z 15
     8 SEL2       18 GROUP        1 Z    SEL  0     **** SEL Z 16
     9 GLL5        2 GROUP        1 Z    GLL  0     **** GLL Z 20
@<TRIPOS>SET

