#    Name: 4e6d_0NU_2_ligand
#    Modification time : Mon Apr  7 23:27:26 2014

@<TRIPOS>MOLECULE
4e6d_0NU_2_ligand
   39    42     1     0     0
SMALL
NO_CHARGES


@<TRIPOS>ATOM
      1 N5         -1.9730  -29.5850   12.4320 N.1       1 0NU1201     0.0000 
      2 C15        -2.5500  -30.1180   13.2650 C.1       1 0NU1201     0.0000 
      3 C14        -3.3240  -30.7150   14.3500 C.3       1 0NU1201     0.0000 
      4 C13        -2.5660  -31.9190   15.0100 C.2       1 0NU1201     0.0000 
      5 O          -1.6700  -32.4850   14.3840 O.2       1 0NU1201     0.0000 
      6 N4         -2.9530  -32.3410   16.2350 N.am      1 0NU1201     0.0000 
      7 C11        -4.0770  -31.7650   16.9740 C.3       1 0NU1201     0.0000 
      8 C10        -3.5830  -31.1240   18.2600 C.3       1 0NU1201     0.0000 
      9 C9         -2.7750  -32.1270   19.0830 C.3       1 0NU1201     0.0000 
     10 C12        -2.2830  -33.4090   16.9810 C.3       1 0NU1201     0.0000 
     11 C8         -1.7000  -32.8090   18.2320 C.3       1 0NU1201     0.0000 
     12 N3         -0.9860  -33.8380   18.9920 N.pl3     1 0NU1201     0.0000 
     13 C4          0.0820  -33.5960   19.8480 C.ar      1 0NU1201     0.0000 
     14 C3          0.7850  -32.4670   20.2550 C.ar      1 0NU1201     0.0000 
     15 C           0.7690  -31.0400   20.0390 C.2       1 0NU1201     0.0000 
     16 C7         -1.2460  -35.1820   19.0520 C.2       1 0NU1201     0.0000 
     17 N2         -0.4450  -35.8420   19.8620 N.2       1 0NU1201     0.0000 
     18 C5          0.3940  -34.8600   20.3840 C.ar      1 0NU1201     0.0000 
     19 C6          1.4300  -34.9600   21.3400 C.ar      1 0NU1201     0.0000 
     20 N1          2.1450  -33.9030   21.7380 N.ar      1 0NU1201     0.0000 
     21 C2          1.8190  -32.7120   21.2190 C.ar      1 0NU1201     0.0000 
     22 N           2.3680  -31.5010   21.5400 N.pl3     1 0NU1201     0.0000 
     23 C1          1.7400  -30.5090   20.8260 C.2       1 0NU1201     0.0000 
     24 H          -4.2870  -31.0975   13.9914 H         1 0NU1201     0.0000 
     25 H          -3.5272  -29.9871   15.1445 H         1 0NU1201     0.0000 
     26 H          -4.8090  -32.5368   17.2298 H         1 0NU1201     0.0000 
     27 H          -4.5824  -31.0002   16.3769 H         1 0NU1201     0.0000 
     28 H          -4.4342  -30.7843   18.8470 H         1 0NU1201     0.0000 
     29 H          -2.9535  -30.2689   18.0213 H         1 0NU1201     0.0000 
     30 H          -3.4469  -32.8858   19.4856 H         1 0NU1201     0.0000 
     31 H          -2.2968  -31.6077   19.9142 H         1 0NU1201     0.0000 
     32 H          -1.4823  -33.8463   16.3903 H         1 0NU1201     0.0000 
     33 H          -2.9901  -34.1872   17.2564 H         1 0NU1201     0.0000 
     34 H          -0.9835  -32.0317   17.9264 H         1 0NU1201     0.0000 
     35 H           0.1783  -30.6082   19.4535 H         1 0NU1201     0.0000 
     36 H          -1.9852  -35.5980   18.5169 H         1 0NU1201     0.0000 
     37 H           1.6208  -35.9161   21.7340 H         1 0NU1201     0.0000 
     38 H           3.0849  -31.3612   22.1695 H         1 0NU1201     0.0000 
     39 H           1.9649  -29.5662   20.8825 H         1 0NU1201     0.0000 
@<TRIPOS>BOND
     1    2    1 3    
     2    3    2 1    
     3    4    3 1    
     4   24    3 1    
     5   25    3 1    
     6    5    4 2    
     7    6    4 am   
     8    7    6 1    
     9   10    6 1    
    10    8    7 1    
    11   26    7 1    
    12   27    7 1    
    13    9    8 1    
    14   28    8 1    
    15   29    8 1    
    16   11    9 1    
    17   30    9 1    
    18   31    9 1    
    19   11   10 1    
    20   32   10 1    
    21   33   10 1    
    22   12   11 1    
    23   34   11 1    
    24   13   12 1    
    25   16   12 1    
    26   14   13 ar   
    27   18   13 ar   
    28   15   14 1    
    29   21   14 ar   
    30   23   15 2    
    31   35   15 1    
    32   17   16 2    
    33   36   16 1    
    34   18   17 1    
    35   19   18 ar   
    36   20   19 ar   
    37   37   19 1    
    38   21   20 ar   
    39   22   21 1    
    40   23   22 1    
    41   38   22 1    
    42   39   23 1    
@<TRIPOS>SUBSTRUCTURE
     1 0NU1201     1 GROUP   
@<TRIPOS>SET

