#    Name: 4i6q_1DT_2_INTS_M
#    Modification time : Tue Mar 25 02:31:39 2014

@<TRIPOS>MOLECULE
4i6q_1DT_2_INTS_M
   59     0     9     0     0
SMALL
NO_CHARGES


@<TRIPOS>ATOM
      1 CA          1.7815  -13.5425   -2.5745 C.3       3 GLC5        0.0000 
      2 CA          0.5090  -13.2080   -4.1710 C.3       9 GLL5        0.0000 
      3 CA          3.0540  -13.8770   -0.9780 C.3       6 GLP5        0.0000 
      4 CA         -0.9130  -10.4785   -4.9955 C.3       3 GLC5        0.0000 
      5 CA          0.0160  -11.9270   -3.8610 C.3       9 GLL5        0.0000 
      6 CA         -1.8420   -9.0300   -6.1300 C.3       6 GLP5        0.0000 
      7 O          -2.1250  -11.1140   -2.8255 O.2       1 ALC1        0.0000 
      8 O          -1.2630  -12.0820   -3.4430 O.2       7 ALL1        0.0000 
      9 O          -2.9870  -10.1460   -2.2080 O.2       4 ALP1        0.0000 
     10 CA         -0.3795  -15.0725   -1.9130 C.3       3 GLC5        0.0000 
     11 CA         -0.5380  -14.1740   -3.8890 C.3       9 GLL5        0.0000 
     12 CA         -0.2210  -15.9710    0.0630 C.3       6 GLP5        0.0000 
     13 CA         -3.1225  -12.6320   -2.0935 C.3       3 GLC5        0.0000 
     14 CA         -1.6410  -13.3940   -3.4540 C.3       9 GLL5        0.0000 
     15 CA         -4.6040  -11.8700   -0.7330 C.3       6 GLP5        0.0000 
     16 N          -4.1830  -13.5645   -2.8260 N.am      2 SEC2        0.0000 
     17 N          -2.8020  -13.9700   -3.1100 N.am      8 SEL2        0.0000 
     18 N          -5.5640  -13.1590   -2.5420 N.am      5 SEP2        0.0000 
     19 CA         -4.7835  -14.4805   -3.2955 C.3       3 GLC5        0.0000 
     20 CA         -2.9150  -15.2870   -3.1930 C.3       9 GLL5        0.0000 
     21 CA         -6.6520  -13.6740   -3.3980 C.3       6 GLP5        0.0000 
     22 CA         -3.2785  -17.3540   -4.6760 C.3       3 GLC5        0.0000 
     23 CA         -1.8490  -16.0740   -3.6720 C.3       9 GLL5        0.0000 
     24 CA         -4.7080  -18.6340   -5.6800 C.3       6 GLP5        0.0000 
     25 CA         -1.8195  -15.6170   -5.6260 C.3       3 GLC5        0.0000 
     26 CA         -1.7900  -15.1600   -7.5800 C.3       6 GLP5        0.0000 
     27 CA          4.1445  -18.1760   -3.6040 C.3       3 GLC5        0.0000 
     28 CA          3.4490  -16.8740   -4.6640 C.3       9 GLL5        0.0000 
     29 CA          4.8400  -19.4780   -2.5440 C.3       6 GLP5        0.0000 
     30 CA          1.6155  -13.3245   -8.4610 C.3       3 GLC5        0.0000 
     31 CA          2.5270  -14.7340   -7.8900 C.3       9 GLL5        0.0000 
     32 CA          0.7040  -11.9150   -9.0320 C.3       6 GLP5        0.0000 
     33 CA         -1.1370  -16.5865   -6.5070 C.3       3 GLC5        0.0000 
     34 CA         -0.4840  -18.0130   -5.4340 C.3       9 GLL5        0.0000 
     35 CA         -0.1725  -20.5925   -7.3075 C.3       3 GLC5        0.0000 
     36 CA          0.7160  -20.1480   -5.3320 C.3       9 GLL5        0.0000 
     37 CA         -1.0610  -21.0370   -9.2830 C.3       6 GLP5        0.0000 
     38 CA          1.5312  -11.1988   -3.1800 C.3       3 GLC5        0.0000 
     39 CA          2.8000   -9.8300   -2.3440 C.3       6 GLP5        0.0000 
     40 CA         -1.3015  -15.8258   -1.6847 C.3       3 GLC5        0.0000 
     41 CA          4.2183  -15.0610   -3.7275 C.3       3 GLC5        0.0000 
     42 CA          5.0810  -13.9320   -2.4160 C.3       6 GLP5        0.0000 
     43 CA          4.0675  -14.2028   -8.7400 C.3       3 GLC5        0.0000 
     44 CA          3.2850  -15.6750   -6.9440 C.3       9 GLL5        0.0000 
     45 CA          5.2290  -13.2010  -10.0630 C.3       6 GLP5        0.0000 
     46 CA          2.1685  -15.7610   -9.7542 C.3       3 GLC5        0.0000 
     47 CA          2.0700  -16.0850  -11.7510 C.3       6 GLP5        0.0000 
     48 CA          0.2385  -15.2985   -7.6687 C.3       3 GLC5        0.0000 
     49 CA         -0.7150  -18.8670   -7.4740 C.3       3 GLC5        0.0000 
     50 CA         -1.4050  -19.2520   -9.2380 C.3       6 GLP5        0.0000 
     51 CA          0.3975  -18.7614   -2.3288 C.3       3 GLC5        0.0000 
     52 CA         -1.0910  -18.2510   -4.2050 C.3       9 GLL5        0.0000 
     53 CA          1.2430  -17.8730   -0.6540 C.3       6 GLP5        0.0000 
     54 CA         -2.7621  -18.7275   -4.9366 C.3       3 GLC5        0.0000 
     55 CA         -0.8450  -19.5100   -3.5670 C.3       9 GLL5        0.0000 
     56 CA         -0.3598  -12.5369   -2.0404 C.3       3 GLC5        0.0000 
     57 CA         -0.3060  -11.8980   -0.2370 C.3       6 GLP5        0.0000 
     58 CA         -1.2857  -13.0034   -5.3929 C.3       3 GLC5        0.0000 
     59 CA         -2.1580  -12.8310   -6.9420 C.3       6 GLP5        0.0000 
@<TRIPOS>BOND
@<TRIPOS>SUBSTRUCTURE
     1 ALC1        7 GROUP        1 X    ALC  0     ROOT ALC X 1
     2 SEC2       16 GROUP        1 X    SEC  0     **** SEC X 2
     3 GLC5        1 GROUP        1 X    GLC  0     **** GLC X 6
     4 ALP1        9 GROUP        1 Y    ALP  0     ROOT ALP Y 8
     5 SEP2       18 GROUP        1 Y    SEP  0     **** SEP Y 9
     6 GLP5        3 GROUP        1 Y    GLP  0     **** GLP Y 13
     7 ALL1        8 GROUP        1 Z    ALL  0     ROOT ALL Z 15
     8 SEL2       17 GROUP        1 Z    SEL  0     **** SEL Z 16
     9 GLL5        2 GROUP        1 Z    GLL  0     **** GLL Z 20
@<TRIPOS>SET

