#    Name: 4i6q_1DT_2_ligand
#    Modification time : Tue Mar 25 02:31:39 2014

@<TRIPOS>MOLECULE
4i6q_1DT_2_ligand
   42    45     1     0     0
SMALL
NO_CHARGES


@<TRIPOS>ATOM
      1 C1          0.5090  -13.2080   -4.1710 C.2       1 1DT1202     0.0000 
      2 C2          0.0160  -11.9270   -3.8610 C.2       1 1DT1202     0.0000 
      3 N3         -1.2630  -12.0820   -3.4430 N.pl3     1 1DT1202     0.0000 
      4 C4         -0.5380  -14.1740   -3.8890 C.ar      1 1DT1202     0.0000 
      5 C5         -1.6410  -13.3940   -3.4540 C.ar      1 1DT1202     0.0000 
      6 N6         -2.8020  -13.9700   -3.1100 N.ar      1 1DT1202     0.0000 
      7 C7         -2.9150  -15.2870   -3.1930 C.ar      1 1DT1202     0.0000 
      8 C8         -1.8490  -16.0740   -3.6720 C.ar      1 1DT1202     0.0000 
      9 N9         -0.6730  -15.5440   -3.9710 N.ar      1 1DT1202     0.0000 
     10 C10         1.8040  -13.5650   -4.6850 C.2       1 1DT1202     0.0000 
     11 N11         2.0280  -14.8860   -4.8890 N.am      1 1DT1202     0.0000 
     12 O12         2.6720  -12.7520   -4.9000 O.2       1 1DT1202     0.0000 
     13 C13         3.2620  -15.5060   -5.4140 C.3       1 1DT1202     0.0000 
     14 C14         3.2850  -15.6750   -6.9440 C.3       1 1DT1202     0.0000 
     15 C15         3.4490  -16.8740   -4.6640 C.3       1 1DT1202     0.0000 
     16 C16         2.0070  -16.1400   -7.6250 C.3       1 1DT1202     0.0000 
     17 C17         2.5270  -14.7340   -7.8900 C.3       1 1DT1202     0.0000 
     18 O18        -2.0730  -17.4230   -3.6550 O.3       1 1DT1202     0.0000 
     19 C19        -1.0910  -18.2510   -4.2050 C.ar      1 1DT1202     0.0000 
     20 C20        -0.4840  -18.0130   -5.4340 C.ar      1 1DT1202     0.0000 
     21 C21         0.4340  -18.9510   -5.9860 C.ar      1 1DT1202     0.0000 
     22 C22         0.7160  -20.1480   -5.3320 C.ar      1 1DT1202     0.0000 
     23 C23         0.0720  -20.4190   -4.1210 C.ar      1 1DT1202     0.0000 
     24 C24        -0.8450  -19.5100   -3.5670 C.ar      1 1DT1202     0.0000 
     25 H           0.5109  -11.1253   -3.9404 H         1 1DT1202     0.0000 
     26 H          -1.8508  -11.3454   -3.1650 H         1 1DT1202     0.0000 
     27 H          -3.7874  -15.7825   -2.9098 H         1 1DT1202     0.0000 
     28 H           1.2566  -15.5927   -4.6593 H         1 1DT1202     0.0000 
     29 H           4.1229  -14.8885   -5.1204 H         1 1DT1202     0.0000 
     30 H           4.0130  -16.0578   -7.4699 H         1 1DT1202     0.0000 
     31 H           1.3026  -16.0735   -6.9953 H         1 1DT1202     0.0000 
     32 H           2.2523  -16.6823   -8.3619 H         1 1DT1202     0.0000 
     33 H           2.9793  -14.7464   -8.7190 H         1 1DT1202     0.0000 
     34 H           2.0296  -14.1376   -7.3525 H         1 1DT1202     0.0000 
     35 H          -0.6911  -17.1547   -5.9604 H         1 1DT1202     0.0000 
     36 H           0.8890  -18.7288   -6.8822 H         1 1DT1202     0.0000 
     37 H           1.3772  -20.8136   -5.7258 H         1 1DT1202     0.0000 
     38 H           0.2716  -21.3012   -3.6230 H         1 1DT1202     0.0000 
     39 H          -1.3448  -19.7365   -2.7056 H         1 1DT1202     0.0000 
     40 H           4.2689  -17.3570   -4.9713 H         1 1DT1202     0.0000 
     41 H           3.5367  -16.7469   -3.6760 H         1 1DT1202     0.0000 
     42 H           2.6740  -17.4881   -4.8129 H         1 1DT1202     0.0000 
@<TRIPOS>BOND
     1    2    1 2    
     2    4    1 1    
     3   10    1 1    
     4    3    2 1    
     5   25    2 1    
     6    5    3 1    
     7   26    3 1    
     8    5    4 ar   
     9    9    4 ar   
    10    6    5 ar   
    11    7    6 ar   
    12    8    7 ar   
    13   27    7 1    
    14    9    8 ar   
    15   18    8 1    
    16   11   10 am   
    17   12   10 2    
    18   13   11 1    
    19   28   11 1    
    20   14   13 1    
    21   15   13 1    
    22   29   13 1    
    23   16   14 1    
    24   17   14 1    
    25   30   14 1    
    26   40   15 1    
    27   41   15 1    
    28   42   15 1    
    29   17   16 1    
    30   31   16 1    
    31   32   16 1    
    32   33   17 1    
    33   34   17 1    
    34   19   18 1    
    35   20   19 ar   
    36   24   19 ar   
    37   21   20 ar   
    38   35   20 1    
    39   22   21 ar   
    40   36   21 1    
    41   23   22 ar   
    42   37   22 1    
    43   24   23 ar   
    44   38   23 1    
    45   39   24 1    
@<TRIPOS>SUBSTRUCTURE
     1 1DT1202     1 GROUP   
@<TRIPOS>SET

