#    Name: 2w1g_L0G_1_INTS_M
#    Modification time : Tue Mar 25 03:30:26 2014

@<TRIPOS>MOLECULE
2w1g_L0G_1_INTS_M
   47     0     9     0     0
SMALL
NO_CHARGES


@<TRIPOS>ATOM
      1 CA          7.3240   31.5810    2.8435 C.3       3 GLC5        0.0000 
      2 CA          6.4730   29.7030    2.8950 C.3       9 GLL5        0.0000 
      3 CA          8.1750   33.4590    2.7920 C.3       6 GLP5        0.0000 
      4 CA          3.3335   29.4600    9.3405 C.3       3 GLC5        0.0000 
      5 CA          5.1010   30.1370    8.6050 C.3       9 GLL5        0.0000 
      6 CA          1.5660   28.7830   10.0760 C.3       6 GLP5        0.0000 
      7 CA          6.3375   30.5715    9.9440 C.3       3 GLC5        0.0000 
      8 CA          7.5740   31.0060   11.2830 C.3       6 GLP5        0.0000 
      9 CA          5.6930   28.4505    9.8065 C.3       3 GLC5        0.0000 
     10 CA          6.2850   26.7640   11.0080 C.3       6 GLP5        0.0000 
     11 O           4.1595   31.0710   10.9505 O.2       1 ALC1        0.0000 
     12 O           4.4400   30.9690    9.4420 O.2       7 ALL1        0.0000 
     13 O           3.8790   31.1730   12.4590 O.2       4 ALP1        0.0000 
     14 N           3.3585   33.2245    9.5755 N.am      2 SEC2        0.0000 
     15 N           3.7580   31.9090    8.7630 N.am      8 SEL2        0.0000 
     16 N           2.9590   34.5400   10.3880 N.am      5 SEP2        0.0000 
     17 O           2.9655   34.8680    7.2445 O.2       1 ALC1        0.0000 
     18 O           2.9470   33.6180    6.6010 O.2       7 ALL1        0.0000 
     19 O           2.9840   36.1180    7.8880 O.2       4 ALP1        0.0000 
     20 CA          1.4640   36.6020    6.7420 C.3       3 GLC5        0.0000 
     21 CA          1.9200   35.2810    5.1510 C.3       9 GLL5        0.0000 
     22 CA          1.0080   37.9230    8.3330 C.3       6 GLP5        0.0000 
     23 CA          2.5565   37.3980    5.3950 C.3       3 GLC5        0.0000 
     24 CA          3.1930   39.5150    5.6390 C.3       6 GLP5        0.0000 
     25 CA          2.0470   38.2160    4.6150 C.3       3 GLC5        0.0000 
     26 CA          0.9010   36.9170    3.5910 C.3       9 GLL5        0.0000 
     27 CA          4.3995   27.8985    1.9773 C.3       3 GLC5        0.0000 
     28 CA          5.6380   28.8640    3.8120 C.3       9 GLL5        0.0000 
     29 CA          2.9490   27.2050    0.8060 C.3       6 GLP5        0.0000 
     30 CA          5.2100   27.1015    4.4213 C.3       3 GLC5        0.0000 
     31 CA          6.0620   28.3200    2.4850 C.3       9 GLL5        0.0000 
     32 CA          4.5700   25.6110    5.6940 C.3       6 GLP5        0.0000 
     33 CA          3.9103   28.4265    7.6285 C.3       3 GLC5        0.0000 
     34 CA          4.8420   30.5410    7.3690 C.3       9 GLL5        0.0000 
     35 CA          2.8490   26.5140    7.2700 C.3       6 GLP5        0.0000 
     36 CA          6.3388   31.4320    8.2305 C.3       3 GLC5        0.0000 
     37 CA          7.7060   32.5250    8.4740 C.3       6 GLP5        0.0000 
     38 CA          1.0568   32.5280    4.8823 C.3       3 GLC5        0.0000 
     39 CA          2.5130   34.0850    5.4340 C.3       9 GLL5        0.0000 
     40 CA         -0.5180   31.4400    4.8120 C.3       6 GLP5        0.0000 
     41 CA          3.0165   36.3787    3.8475 C.3       3 GLC5        0.0000 
     42 CA          1.5350   35.5880    3.8730 C.3       9 GLL5        0.0000 
     43 CA          4.8150   36.5050    3.9630 C.3       6 GLP5        0.0000 
     44 CA          0.7738   32.7408    3.9108 C.3       3 GLC5        0.0000 
     45 CA          1.7620   34.6530    2.8600 C.3       9 GLL5        0.0000 
     46 CA          3.5447   35.2416    3.9543 C.3       3 GLC5        0.0000 
     47 CA          2.7500   33.1470    4.4710 C.3       9 GLL5        0.0000 
@<TRIPOS>BOND
@<TRIPOS>SUBSTRUCTURE
     1 ALC1       11 GROUP        1 X    ALC  0     ROOT ALC X 1
     2 SEC2       14 GROUP        1 X    SEC  0     **** SEC X 2
     3 GLC5        1 GROUP        1 X    GLC  0     **** GLC X 6
     4 ALP1       13 GROUP        1 Y    ALP  0     ROOT ALP Y 8
     5 SEP2       16 GROUP        1 Y    SEP  0     **** SEP Y 9
     6 GLP5        3 GROUP        1 Y    GLP  0     **** GLP Y 13
     7 ALL1       12 GROUP        1 Z    ALL  0     ROOT ALL Z 15
     8 SEL2       15 GROUP        1 Z    SEL  0     **** SEL Z 16
     9 GLL5        2 GROUP        1 Z    GLL  0     **** GLL Z 20
@<TRIPOS>SET

