#    Name: 2w1g_L0G_1_ligand
#    Modification time : Tue Mar 25 03:30:26 2014

@<TRIPOS>MOLECULE
2w1g_L0G_1_ligand
   52    56     1     0     0
SMALL
NO_CHARGES


@<TRIPOS>ATOM
      1 O1          6.1710   28.2030    7.2540 O.2       1 L0G1390     0.0000 
      2 C2          5.9150   28.8070    6.2220 C.2       1 L0G1390     0.0000 
      3 N3          6.2340   28.3340    5.0000 N.am      1 L0G1390     0.0000 
      4 C4          5.6380   28.8640    3.8120 C.3       1 L0G1390     0.0000 
      5 C5          6.4730   29.7030    2.8950 C.3       1 L0G1390     0.0000 
      6 C6          6.0620   28.3200    2.4850 C.3       1 L0G1390     0.0000 
      7 N7          5.2900   29.9990    6.2240 N.am      1 L0G1390     0.0000 
      8 C8          4.8420   30.5410    7.3690 C.2       1 L0G1390     0.0000 
      9 C9          5.1010   30.1370    8.6050 C.2       1 L0G1390     0.0000 
     10 N10         4.4400   30.9690    9.4420 N.pl3     1 L0G1390     0.0000 
     11 N12         3.7580   31.9090    8.7630 N.2       1 L0G1390     0.0000 
     12 C13         4.0170   31.6160    7.4790 C.2       1 L0G1390     0.0000 
     13 C14         3.4550   32.4060    6.4220 C.2       1 L0G1390     0.0000 
     14 N15         2.9470   33.6180    6.6010 N.pl3     1 L0G1390     0.0000 
     15 C17         2.5130   34.0850    5.4340 C.ar      1 L0G1390     0.0000 
     16 C18         1.9200   35.2810    5.1510 C.ar      1 L0G1390     0.0000 
     17 C19         1.5350   35.5880    3.8730 C.ar      1 L0G1390     0.0000 
     18 C20         0.9010   36.9170    3.5910 C.3       1 L0G1390     0.0000 
     19 N21         0.4350   37.0110    2.1890 N.4       1 L0G1390     0.0000 
     20 C23        -0.7750   36.2040    2.0400 C.3       1 L0G1390     0.0000 
     21 C24        -1.3030   36.2860    0.6220 C.3       1 L0G1390     0.0000 
     22 O25        -1.5110   37.6530    0.2250 O.3       1 L0G1390     0.0000 
     23 C26        -0.2940   38.4080    0.3470 C.3       1 L0G1390     0.0000 
     24 C27         0.1910   38.4160    1.7750 C.3       1 L0G1390     0.0000 
     25 C28         1.7620   34.6530    2.8600 C.ar      1 L0G1390     0.0000 
     26 C29         2.3690   33.4300    3.1590 C.ar      1 L0G1390     0.0000 
     27 C30         2.7500   33.1470    4.4710 C.ar      1 L0G1390     0.0000 
     28 N31         3.3590   32.0560    5.1010 N.2       1 L0G1390     0.0000 
     29 H           6.9258   27.5661    4.8808 H         1 L0G1390     0.0000 
     30 H           4.7108   29.1785    3.6826 H         1 L0G1390     0.0000 
     31 H           7.3745   29.6695    3.1956 H         1 L0G1390     0.0000 
     32 H           5.9036   30.3257    2.4566 H         1 L0G1390     0.0000 
     33 H           5.3300   28.3926    1.8820 H         1 L0G1390     0.0000 
     34 H           6.8008   27.7365    2.6209 H         1 L0G1390     0.0000 
     35 H           5.1512   30.5113    5.3185 H         1 L0G1390     0.0000 
     36 H           5.6517   29.3957    8.8724 H         1 L0G1390     0.0000 
     37 H           4.4583   30.8928   10.4240 H         1 L0G1390     0.0000 
     38 H           2.8984   34.0941    7.4544 H         1 L0G1390     0.0000 
     39 H           1.7572   35.9704    5.9148 H         1 L0G1390     0.0000 
     40 H           1.6304   37.7148    3.7966 H         1 L0G1390     0.0000 
     41 H           0.0536   37.0645    4.2771 H         1 L0G1390     0.0000 
     42 H           1.2151   36.5872    1.5415 H         1 L0G1390     0.0000 
     43 H          -1.5589   36.5521    2.7242 H         1 L0G1390     0.0000 
     44 H          -0.5699   35.1521    2.2750 H         1 L0G1390     0.0000 
     45 H          -2.2410   35.7103    0.5725 H         1 L0G1390     0.0000 
     46 H          -0.5804   35.7847   -0.0415 H         1 L0G1390     0.0000 
     47 H          -0.4406   39.4514    0.0263 H         1 L0G1390     0.0000 
     48 H           0.5014   37.9833   -0.2854 H         1 L0G1390     0.0000 
     49 H           1.1086   38.9909    1.8389 H         1 L0G1390     0.0000 
     50 H          -0.5650   38.8680    2.4080 H         1 L0G1390     0.0000 
     51 H           1.4828   34.8642    1.8951 H         1 L0G1390     0.0000 
     52 H           2.5333   32.7436    2.4156 H         1 L0G1390     0.0000 
@<TRIPOS>BOND
     1    2    1 2    
     2    3    2 am   
     3    7    2 am   
     4    4    3 1    
     5   29    3 1    
     6    5    4 1    
     7    6    4 1    
     8   30    4 1    
     9    6    5 1    
    10   31    5 1    
    11   32    5 1    
    12   33    6 1    
    13   34    6 1    
    14    8    7 1    
    15   35    7 1    
    16    9    8 2    
    17   12    8 1    
    18   10    9 1    
    19   36    9 1    
    20   11   10 1    
    21   37   10 1    
    22   12   11 2    
    23   13   12 1    
    24   14   13 1    
    25   28   13 2    
    26   15   14 1    
    27   38   14 1    
    28   16   15 ar   
    29   27   15 ar   
    30   17   16 ar   
    31   39   16 1    
    32   18   17 1    
    33   25   17 ar   
    34   19   18 1    
    35   40   18 1    
    36   41   18 1    
    37   20   19 1    
    38   24   19 1    
    39   42   19 1    
    40   21   20 1    
    41   43   20 1    
    42   44   20 1    
    43   22   21 1    
    44   45   21 1    
    45   46   21 1    
    46   23   22 1    
    47   24   23 1    
    48   47   23 1    
    49   48   23 1    
    50   49   24 1    
    51   50   24 1    
    52   26   25 ar   
    53   51   25 1    
    54   27   26 ar   
    55   52   26 1    
    56   28   27 1    
@<TRIPOS>SUBSTRUCTURE
     1 L0G1390     1 GROUP   
@<TRIPOS>SET

