#    Name: 4ju4_1O3_2_INTS_M
#    Modification time : Tue Mar 25 06:23:28 2014

@<TRIPOS>MOLECULE
4ju4_1O3_2_INTS_M
   50     0     6     0     0
SMALL
NO_CHARGES


@<TRIPOS>ATOM
      1 CA        -20.5625  -21.6585  -19.3865 C.3       2 GLC5        0.0000 
      2 CA        -19.7290  -20.9830  -17.4250 C.3       6 GLL5        0.0000 
      3 CA        -21.3960  -22.3340  -21.3480 C.3       4 GLP5        0.0000 
      4 CA        -21.0245  -23.3390  -18.6525 C.3       2 GLC5        0.0000 
      5 CA        -19.7720  -22.3870  -17.2800 C.3       6 GLL5        0.0000 
      6 CA        -22.2770  -24.2910  -20.0250 C.3       4 GLP5        0.0000 
      7 N         -19.4740  -25.5165  -18.6805 N.am      1 SEC2        0.0000 
      8 N         -19.6340  -25.2830  -17.2210 N.am      5 SEL2        0.0000 
      9 N         -19.3140  -25.7500  -20.1400 N.am      3 SEP2        0.0000 
     10 CA        -25.7145  -23.3000  -13.0800 C.3       2 GLC5        0.0000 
     11 CA        -24.1810  -23.3670  -14.5040 C.3       6 GLL5        0.0000 
     12 CA        -27.2480  -23.2330  -11.6560 C.3       4 GLP5        0.0000 
     13 N         -23.3780  -22.6335  -10.5685 N.am      1 SEC2        0.0000 
     14 N         -23.2730  -23.3890  -11.8790 N.am      5 SEL2        0.0000 
     15 N         -23.4830  -21.8780   -9.2580 N.am      3 SEP2        0.0000 
     16 N         -21.0735  -23.2820  -11.1385 N.am      1 SEC2        0.0000 
     17 N         -21.1340  -23.2260  -12.5770 N.am      5 SEL2        0.0000 
     18 N         -21.0130  -23.3380   -9.7000 N.am      3 SEP2        0.0000 
     19 CA        -24.7680  -20.0125  -19.9900 C.3       2 GLC5        0.0000 
     20 CA        -25.9840  -20.8110  -18.9190 C.3       6 GLL5        0.0000 
     21 CA        -23.5520  -19.2140  -21.0610 C.3       4 GLP5        0.0000 
     22 CA        -24.8245  -22.0335  -20.3790 C.3       2 GLC5        0.0000 
     23 CA        -23.6650  -23.2560  -21.8390 C.3       4 GLP5        0.0000 
     24 CA        -26.0560  -19.6320  -20.3570 C.3       2 GLC5        0.0000 
     25 CA        -27.1970  -21.1970  -19.5580 C.3       6 GLL5        0.0000 
     26 CA        -24.9150  -18.0670  -21.1560 C.3       4 GLP5        0.0000 
     27 CA        -27.9625  -19.8965  -20.6545 C.3       2 GLC5        0.0000 
     28 CA        -28.7280  -18.5960  -21.7510 C.3       4 GLP5        0.0000 
     29 CA        -21.1325  -18.7455  -16.3650 C.3       2 GLC5        0.0000 
     30 CA        -19.1940  -18.3210  -16.5480 C.3       6 GLL5        0.0000 
     31 CA        -23.0710  -19.1700  -16.1820 C.3       4 GLP5        0.0000 
     32 CA        -18.8440  -16.5435  -16.8515 C.3       2 GLC5        0.0000 
     33 CA        -18.4940  -14.7660  -17.1550 C.3       4 GLP5        0.0000 
     34 CA        -17.5105  -18.7420  -17.4640 C.3       2 GLC5        0.0000 
     35 CA        -15.8270  -19.1630  -18.3800 C.3       4 GLP5        0.0000 
     36 CA        -18.4423  -22.8260  -12.5495 C.3       2 GLC5        0.0000 
     37 CA        -18.8770  -22.1740  -14.9890 C.3       6 GLL5        0.0000 
     38 CA        -18.2100  -23.2200  -10.6940 C.3       4 GLP5        0.0000 
     39 CA        -21.2815  -19.8770  -16.5345 C.3       2 GLC5        0.0000 
     40 CA        -19.2550  -20.1850  -16.3490 C.3       6 GLL5        0.0000 
     41 CA        -17.4555  -20.5140  -17.0173 C.3       2 GLC5        0.0000 
     42 CA        -15.5240  -20.2980  -17.4520 C.3       4 GLP5        0.0000 
     43 CA        -22.8128  -24.4890  -18.2867 C.3       2 GLC5        0.0000 
     44 CA        -22.6920  -24.9080  -16.3880 C.3       6 GLL5        0.0000 
     45 CA        -27.9670  -22.6448  -15.7410 C.3       2 GLC5        0.0000 
     46 CA        -26.3820  -22.5100  -17.1590 C.3       6 GLL5        0.0000 
     47 CA        -28.9450  -22.5880  -14.0020 C.3       4 GLP5        0.0000 
     48 CA        -25.6574  -20.2279  -16.6530 C.3       2 GLC5        0.0000 
     49 CA        -25.5730  -21.4590  -17.7230 C.3       6 GLL5        0.0000 
     50 CA        -25.3340  -19.0580  -15.1260 C.3       4 GLP5        0.0000 
@<TRIPOS>BOND
@<TRIPOS>SUBSTRUCTURE
     1 SEC2        7 GROUP        1 X    SEC  0     ROOT SEC X 2
     2 GLC5        1 GROUP        1 X    GLC  0     **** GLC X 6
     3 SEP2        9 GROUP        1 Y    SEP  0     ROOT SEP Y 9
     4 GLP5        3 GROUP        1 Y    GLP  0     **** GLP Y 13
     5 SEL2        8 GROUP        1 Z    SEL  0     ROOT SEL Z 16
     6 GLL5        2 GROUP        1 Z    GLL  0     **** GLL Z 20
@<TRIPOS>SET

