#    Name: 4ju4_1O3_2_ligand
#    Modification time : Tue Mar 25 06:23:28 2014

@<TRIPOS>MOLECULE
4ju4_1O3_2_ligand
   40    42     1     0     0
SMALL
NO_CHARGES


@<TRIPOS>ATOM
      1 C1        -18.8770  -22.1740  -14.9890 C.ar      1 1O3601      0.0000 
      2 C2        -18.8350  -20.7690  -15.1310 C.ar      1 1O3601      0.0000 
      3 C3        -19.2550  -20.1850  -16.3490 C.ar      1 1O3601      0.0000 
      4 C4        -19.7290  -20.9830  -17.4250 C.ar      1 1O3601      0.0000 
      5 C5        -19.7720  -22.3870  -17.2800 C.ar      1 1O3601      0.0000 
      6 C6        -19.3500  -22.9890  -16.0510 C.ar      1 1O3601      0.0000 
      7 S7        -19.4050  -24.7410  -15.8700 S.o2      1 1O3601      0.0000 
      8 O8        -18.1900  -25.1810  -15.2040 O.2       1 1O3601      0.0000 
      9 O9        -19.6340  -25.2830  -17.2210 O.2       1 1O3601      0.0000 
     10 N10       -20.7470  -25.0790  -14.8530 N.pl3     1 1O3601      0.0000 
     11 C11       -22.0950  -24.5910  -15.1200 C.ar      1 1O3601      0.0000 
     12 C12       -22.8570  -23.8080  -14.1600 C.ar      1 1O3601      0.0000 
     13 C13       -24.1810  -23.3670  -14.5040 C.ar      1 1O3601      0.0000 
     14 C14       -24.7520  -23.6880  -15.7600 C.ar      1 1O3601      0.0000 
     15 C15       -24.0050  -24.4660  -16.7090 C.ar      1 1O3601      0.0000 
     16 C16       -22.6920  -24.9080  -16.3880 C.ar      1 1O3601      0.0000 
     17 C17       -22.3110  -23.4470  -12.8290 C.2       1 1O3601      0.0000 
     18 O18       -23.2730  -23.3890  -11.8790 O.co2     1 1O3601      0.0000 
     19 O19       -21.1340  -23.2260  -12.5770 O.co2     1 1O3601      0.0000 
     20 O20       -26.0560  -23.2050  -15.9800 O.3       1 1O3601      0.0000 
     21 C21       -26.3820  -22.5100  -17.1590 C.ar      1 1O3601      0.0000 
     22 C22       -25.5730  -21.4590  -17.7230 C.ar      1 1O3601      0.0000 
     23 C23       -25.9840  -20.8110  -18.9190 C.ar      1 1O3601      0.0000 
     24 C24       -27.1970  -21.1970  -19.5580 C.ar      1 1O3601      0.0000 
     25 C25       -28.0040  -22.2370  -19.0000 C.ar      1 1O3601      0.0000 
     26 C26       -27.5960  -22.8930  -17.8010 C.ar      1 1O3601      0.0000 
     27 F27       -18.4720  -22.6900  -13.8210 F         1 1O3601      0.0000 
     28 BR1       -19.1940  -18.3210  -16.5480 Br        1 1O3601      0.0000 
     29 H         -18.5074  -20.1847  -14.3684 H         1 1O3601      0.0000 
     30 H         -20.0331  -20.5440  -18.2885 H         1 1O3601      0.0000 
     31 H         -20.1000  -22.9763  -18.0404 H         1 1O3601      0.0000 
     32 H         -20.4876  -25.6403  -14.0739 H         1 1O3601      0.0000 
     33 H         -24.7112  -22.8140  -13.8262 H         1 1O3601      0.0000 
     34 H         -24.4197  -24.6967  -17.6062 H         1 1O3601      0.0000 
     35 H         -22.1601  -25.4594  -17.0646 H         1 1O3601      0.0000 
     36 H         -24.7119  -21.1884  -17.2596 H         1 1O3601      0.0000 
     37 H         -25.4125  -20.0707  -19.3203 H         1 1O3601      0.0000 
     38 H         -27.4921  -20.7329  -20.4139 H         1 1O3601      0.0000 
     39 H         -28.8691  -22.5081  -19.4594 H         1 1O3601      0.0000 
     40 H         -28.1698  -23.6320  -17.4053 H         1 1O3601      0.0000 
@<TRIPOS>BOND
     1    2    1 ar   
     2    6    1 ar   
     3   27    1 1    
     4    3    2 ar   
     5   29    2 1    
     6    4    3 ar   
     7   28    3 1    
     8    5    4 ar   
     9   30    4 1    
    10    6    5 ar   
    11   31    5 1    
    12    7    6 1    
    13    8    7 2    
    14    9    7 2    
    15   10    7 1    
    16   11   10 1    
    17   32   10 1    
    18   12   11 ar   
    19   16   11 ar   
    20   13   12 ar   
    21   17   12 1    
    22   14   13 ar   
    23   33   13 1    
    24   15   14 ar   
    25   20   14 1    
    26   16   15 ar   
    27   34   15 1    
    28   35   16 1    
    29   18   17 ar   
    30   19   17 ar   
    31   21   20 1    
    32   22   21 ar   
    33   26   21 ar   
    34   23   22 ar   
    35   36   22 1    
    36   24   23 ar   
    37   37   23 1    
    38   25   24 ar   
    39   38   24 1    
    40   26   25 ar   
    41   39   25 1    
    42   40   26 1    
@<TRIPOS>SUBSTRUCTURE
     1 1O3601      1 GROUP   
@<TRIPOS>SET

