#    Name: 2cvu_CDP_2_INTS_M
#    Modification time : Tue Mar 25 01:17:22 2014

@<TRIPOS>MOLECULE
2cvu_CDP_2_INTS_M
   53     0     9     0     0
SMALL
NO_CHARGES


@<TRIPOS>ATOM
      1 N          27.1695   54.2860   18.7890 N.am      2 SEC2        0.0000 
      2 N          26.5940   53.2240   18.0140 N.am      8 SEL2        0.0000 
      3 N          27.7450   55.3480   19.5640 N.am      5 SEP2        0.0000 
      4 N          27.0925   54.5890   17.4910 N.am      2 SEC2        0.0000 
      5 N          27.5910   55.9540   16.9680 N.am      5 SEP2        0.0000 
      6 N          28.0120   54.4235   16.6200 N.am      2 SEC2        0.0000 
      7 N          28.4330   52.8930   16.2720 N.am      8 SEL2        0.0000 
      8 N          29.5955   53.2630   15.1940 N.am      2 SEC2        0.0000 
      9 N          30.7580   53.6330   14.1160 N.am      5 SEP2        0.0000 
     10 N          29.6530   52.4375   16.2770 N.am      2 SEC2        0.0000 
     11 N          30.8730   51.9820   16.2820 N.am      5 SEP2        0.0000 
     12 N          27.1630   48.4840   15.3375 N.am      2 SEC2        0.0000 
     13 N          26.1410   48.9110   16.0120 N.am      8 SEL2        0.0000 
     14 N          28.1850   48.0570   14.6630 N.am      5 SEP2        0.0000 
     15 N          26.5480   50.5525   13.7170 N.am      2 SEC2        0.0000 
     16 N          25.2180   50.8560   14.5230 N.am      8 SEL2        0.0000 
     17 N          27.8780   50.2490   12.9110 N.am      5 SEP2        0.0000 
     18 CA         25.0330   47.7970   17.8915 C.3       3 GLC5        0.0000 
     19 CA         23.7190   49.3990   17.5320 C.3       9 GLL5        0.0000 
     20 CA         26.3470   46.1950   18.2510 C.3       6 GLP5        0.0000 
     21 CA         24.2985   47.8375   16.5135 C.3       3 GLC5        0.0000 
     22 CA         24.8780   46.2760   15.4950 C.3       6 GLP5        0.0000 
     23 CA         22.9840   50.9935   20.0880 C.3       3 GLC5        0.0000 
     24 CA         22.5930   49.9000   18.4340 C.3       9 GLL5        0.0000 
     25 CA         23.3750   52.0870   21.7420 C.3       6 GLP5        0.0000 
     26 CA         21.8415   49.1555   20.3815 C.3       3 GLC5        0.0000 
     27 CA         21.0900   48.4110   22.3290 C.3       6 GLP5        0.0000 
     28 O          21.9850   47.2860   19.1530 O.2       1 ALC1        0.0000 
     29 O          20.9190   48.3060   19.0450 O.2       7 ALL1        0.0000 
     30 O          23.0510   46.2660   19.2610 O.2       4 ALP1        0.0000 
     31 O          21.2310   46.6405   18.7485 O.2       1 ALC1        0.0000 
     32 O          21.5430   44.9750   18.4520 O.2       4 ALP1        0.0000 
     33 CA         18.4645   51.4655   18.3995 C.3       3 GLC5        0.0000 
     34 CA         20.2800   50.3580   17.8850 C.3       9 GLL5        0.0000 
     35 CA         16.6490   52.5730   18.9140 C.3       6 GLP5        0.0000 
     36 CA         18.6235   50.6455   16.8280 C.3       3 GLC5        0.0000 
     37 CA         16.9670   50.9330   15.7710 C.3       6 GLP5        0.0000 
     38 N          18.5750   51.7890   19.2740 N.am      2 SEC2        0.0000 
     39 N          19.3760   50.3440   18.9900 N.am      8 SEL2        0.0000 
     40 N          17.7740   53.2340   19.5580 N.am      5 SEP2        0.0000 
     41 O          19.8815   51.2385   20.0115 O.2       1 ALC1        0.0000 
     42 O          19.3760   50.3440   18.9900 O.2       7 ALL1        0.0000 
     43 O          20.3870   52.1330   21.0330 O.2       4 ALP1        0.0000 
     44 CA         21.4395   49.8450   15.3705 C.3       3 GLC5        0.0000 
     45 CA         22.1010   51.8850   15.6310 C.3       9 GLL5        0.0000 
     46 CA         20.7780   47.8050   15.1100 C.3       6 GLP5        0.0000 
     47 CA         21.9670   48.7272   16.5465 C.3       3 GLC5        0.0000 
     48 CA         24.2895   49.0487   19.4760 C.3       3 GLC5        0.0000 
     49 CA         25.4230   48.4480   20.9690 C.3       6 GLP5        0.0000 
     50 CA         20.1400   49.4530   19.9633 C.3       3 GLC5        0.0000 
     51 CA         21.2920   49.2380   18.0300 C.3       9 GLL5        0.0000 
     52 CA         19.4940   49.1080   21.9690 C.3       6 GLP5        0.0000 
     53 CA         20.7820   48.8015   16.5338 C.3       3 GLC5        0.0000 
@<TRIPOS>BOND
@<TRIPOS>SUBSTRUCTURE
     1 ALC1       28 GROUP        1 X    ALC  0     ROOT ALC X 1
     2 SEC2        1 GROUP        1 X    SEC  0     **** SEC X 2
     3 GLC5       18 GROUP        1 X    GLC  0     **** GLC X 6
     4 ALP1       30 GROUP        1 Y    ALP  0     ROOT ALP Y 8
     5 SEP2        3 GROUP        1 Y    SEP  0     **** SEP Y 9
     6 GLP5       20 GROUP        1 Y    GLP  0     **** GLP Y 13
     7 ALL1       29 GROUP        1 Z    ALL  0     ROOT ALL Z 15
     8 SEL2        2 GROUP        1 Z    SEL  0     **** SEL Z 16
     9 GLL5       19 GROUP        1 Z    GLL  0     **** GLL Z 20
@<TRIPOS>SET

