#    Name: 2cvu_CDP_2_ligand
#    Modification time : Tue Mar 25 01:17:22 2014

@<TRIPOS>MOLECULE
2cvu_CDP_2_ligand
   37    38     1     0     0
SMALL
NO_CHARGES


@<TRIPOS>ATOM
      1 O3B        26.5940   53.2240   18.0140 O.co2     1 CDP1002     0.0000 
      2 PB         26.9750   52.8190   16.6000 P.3       1 CDP1002     0.0000 
      3 O1B        28.4330   52.8930   16.2720 O.co2     1 CDP1002     0.0000 
      4 O2B        26.2010   53.4280   15.4450 O.co2     1 CDP1002     0.0000 
      5 O3A        26.7310   51.2150   16.6770 O.3       1 CDP1002     0.0000 
      6 PA         25.6180   50.3210   15.9050 P.3       1 CDP1002     0.0000 
      7 O1A        26.1410   48.9110   16.0120 O.co2     1 CDP1002     0.0000 
      8 O2A        25.2180   50.8560   14.5230 O.co2     1 CDP1002     0.0000 
      9 O5'        24.3900   50.5010   16.9230 O.3       1 CDP1002     0.0000 
     10 C5'        23.7190   49.3990   17.5320 C.3       1 CDP1002     0.0000 
     11 C4'        22.5930   49.9000   18.4340 C.3       1 CDP1002     0.0000 
     12 O4'        22.3980   51.3250   18.3530 O.3       1 CDP1002     0.0000 
     13 C3'        21.2920   49.2380   18.0300 C.3       1 CDP1002     0.0000 
     14 O3'        20.9190   48.3060   19.0450 O.3       1 CDP1002     0.0000 
     15 C2'        20.2800   50.3580   17.8850 C.3       1 CDP1002     0.0000 
     16 O2'        19.3760   50.3440   18.9900 O.3       1 CDP1002     0.0000 
     17 C1'        21.0850   51.6540   17.8570 C.3       1 CDP1002     0.0000 
     18 N1         21.1230   52.2380   16.4900 N.am      1 CDP1002     0.0000 
     19 C2         20.1400   53.1640   16.0460 C.2       1 CDP1002     0.0000 
     20 O2         19.2080   53.5350   16.8080 O.2       1 CDP1002     0.0000 
     21 N3         20.2140   53.6560   14.7820 N.2       1 CDP1002     0.0000 
     22 C4         21.2090   53.2950   13.9290 C.2       1 CDP1002     0.0000 
     23 N4         21.2860   53.7970   12.6730 N.pl3     1 CDP1002     0.0000 
     24 C5         22.1780   52.3940   14.3410 C.2       1 CDP1002     0.0000 
     25 C6         22.1010   51.8850   15.6310 C.2       1 CDP1002     0.0000 
     26 H          24.4002   48.7990   18.1503 H         1 CDP1002     0.0000 
     27 H          23.2744   48.7293   16.7836 H         1 CDP1002     0.0000 
     28 H          22.8084   49.5989   19.4521 H         1 CDP1002     0.0000 
     29 H          21.4361   48.7765   17.0794 H         1 CDP1002     0.0000 
     30 H          19.7869   50.2478   16.9459 H         1 CDP1002     0.0000 
     31 H          20.5961   52.3449   18.5386 H         1 CDP1002     0.0000 
     32 H          20.5409   54.4033   12.3950 H         1 CDP1002     0.0000 
     33 H          22.0811   53.5168   12.1351 H         1 CDP1002     0.0000 
     34 H          22.9289   52.1111   13.7142 H         1 CDP1002     0.0000 
     35 H          22.8407   51.2001   15.9329 H         1 CDP1002     0.0000 
     36 H          21.6824   47.6622   19.0983 H         1 CDP1002     0.0000 
     37 H          19.4459   51.2565   19.3930 H         1 CDP1002     0.0000 
@<TRIPOS>BOND
     1    2    1 ar   
     2    3    2 ar   
     3    4    2 ar   
     4    5    2 1    
     5    6    5 1    
     6    7    6 ar   
     7    8    6 ar   
     8    9    6 1    
     9   10    9 1    
    10   11   10 1    
    11   26   10 1    
    12   27   10 1    
    13   12   11 1    
    14   13   11 1    
    15   28   11 1    
    16   17   12 1    
    17   14   13 1    
    18   15   13 1    
    19   29   13 1    
    20   36   14 1    
    21   16   15 1    
    22   17   15 1    
    23   30   15 1    
    24   37   16 1    
    25   18   17 1    
    26   31   17 1    
    27   19   18 am   
    28   25   18 1    
    29   20   19 2    
    30   21   19 1    
    31   22   21 2    
    32   23   22 1    
    33   24   22 1    
    34   32   23 1    
    35   33   23 1    
    36   25   24 2    
    37   34   24 1    
    38   35   25 1    
@<TRIPOS>SUBSTRUCTURE
     1 CDP1002     1 GROUP   
@<TRIPOS>SET

