#    Name: 2bpz_3IN_1_INTS_M
#    Modification time : Mon Mar 24 21:25:42 2014

@<TRIPOS>MOLECULE
2bpz_3IN_1_INTS_M
   79     0     9     0     0
SMALL
NO_CHARGES


@<TRIPOS>ATOM
      1 CA          8.1630   23.0190    4.8745 C.3       3 GLC5        0.0000 
      2 CA          8.8170   24.4520    4.1320 C.3       9 GLL5        0.0000 
      3 CA          7.5090   21.5860    5.6170 C.3       6 GLP5        0.0000 
      4 N          19.4805   20.6545    3.7305 N.am      2 SEC2        0.0000 
      5 N          18.6880   20.1870    4.8890 N.am      8 SEL2        0.0000 
      6 N          20.2730   21.1220    2.5720 N.am      5 SEP2        0.0000 
      7 O          18.5730   21.8645    4.9425 O.2       1 ALC1        0.0000 
      8 O          18.6880   20.1870    4.8890 O.2       7 ALL1        0.0000 
      9 O          18.4580   23.5420    4.9960 O.2       4 ALP1        0.0000 
     10 CA          8.1700   25.6425   10.4115 C.3       3 GLC5        0.0000 
     11 CA          8.9530   25.5340    8.7060 C.3       9 GLL5        0.0000 
     12 CA          7.3870   25.7510   12.1170 C.3       6 GLP5        0.0000 
     13 CA          9.5070   24.1250    9.9020 C.3       3 GLC5        0.0000 
     14 CA         10.0610   22.7160   11.0980 C.3       6 GLP5        0.0000 
     15 CA          9.2810   24.1895   -0.0735 C.3       3 GLC5        0.0000 
     16 CA          9.8220   24.0030    1.9810 C.3       9 GLL5        0.0000 
     17 CA          8.7400   24.3760   -2.1280 C.3       6 GLP5        0.0000 
     18 CA         13.0895   27.0705    3.0385 C.3       3 GLC5        0.0000 
     19 CA         12.5760   25.2650    4.0690 C.3       9 GLL5        0.0000 
     20 CA         13.6030   28.8760    2.0080 C.3       6 GLP5        0.0000 
     21 CA         14.4235   19.5620    8.2950 C.3       3 GLC5        0.0000 
     22 CA         15.9140   20.7070    8.9220 C.3       9 GLL5        0.0000 
     23 CA         12.9330   18.4170    7.6680 C.3       6 GLP5        0.0000 
     24 CA         14.5780   19.1070    6.2995 C.3       3 GLC5        0.0000 
     25 CA         16.2230   19.7970    4.9310 C.3       9 GLL5        0.0000 
     26 CA         13.6645   18.5780    4.0690 C.3       3 GLC5        0.0000 
     27 CA         15.6840   19.1610    3.5720 C.3       9 GLL5        0.0000 
     28 CA         11.6450   17.9950    4.5660 C.3       6 GLP5        0.0000 
     29 CA          6.0340   23.6755    1.6210 C.3       3 GLC5        0.0000 
     30 CA          6.3180   25.4730    2.6960 C.3       9 GLL5        0.0000 
     31 CA          5.7500   21.8780    0.5460 C.3       6 GLP5        0.0000 
     32 O           9.1710   27.4485    5.6335 O.2       1 ALC1        0.0000 
     33 O           9.8830   26.3770    6.6050 O.2       7 ALL1        0.0000 
     34 O           8.4590   28.5200    4.6620 O.2       4 ALP1        0.0000 
     35 CA          8.8075   29.9070    9.2535 C.3       3 GLC5        0.0000 
     36 CA          9.4000   27.9490    8.4510 C.3       9 GLL5        0.0000 
     37 CA          8.2150   31.8650   10.0560 C.3       6 GLP5        0.0000 
     38 CA          9.8615   28.0855   10.3990 C.3       3 GLC5        0.0000 
     39 CA         10.3230   28.2220   12.3470 C.3       6 GLP5        0.0000 
     40 CA         10.8280   27.3240   10.4865 C.3       3 GLC5        0.0000 
     41 CA         11.3330   26.4260    8.6260 C.3       9 GLL5        0.0000 
     42 CA         12.4550   27.6940    9.3410 C.3       3 GLC5        0.0000 
     43 CA         13.5770   28.9620   10.0560 C.3       6 GLP5        0.0000 
     44 N          14.7795   25.0865    2.9545 N.am      2 SEC2        0.0000 
     45 N          14.9380   25.1610    4.3750 N.am      8 SEL2        0.0000 
     46 N          14.6210   25.0120    1.5340 N.am      5 SEP2        0.0000 
     47 O          15.1735   26.0795    5.3490 O.2       1 ALC1        0.0000 
     48 O          14.9380   25.1610    4.3750 O.2       7 ALL1        0.0000 
     49 O          15.4090   26.9980    6.3230 O.2       4 ALP1        0.0000 
     50 O          17.2360   22.3940    5.0515 O.2       1 ALC1        0.0000 
     51 O          16.0140   21.2460    5.1070 O.2       7 ALL1        0.0000 
     52 CA         16.6860   21.3870    1.8130 C.3       3 GLC5        0.0000 
     53 CA         15.8300   20.1100    2.4100 C.3       9 GLL5        0.0000 
     54 CA         17.5420   22.6640    1.2160 C.3       6 GLP5        0.0000 
     55 CA         15.3850   18.7635    0.7595 C.3       3 GLC5        0.0000 
     56 CA         14.9400   17.4170   -0.8910 C.3       6 GLP5        0.0000 
     57 CA          4.1045   23.1710    6.2290 C.3       3 GLC5        0.0000 
     58 CA          3.1790   23.6530    4.2380 C.3       9 GLL5        0.0000 
     59 CA          5.0300   22.6890    8.2200 C.3       6 GLP5        0.0000 
     60 CA          2.2040   23.0090    5.5880 C.3       3 GLC5        0.0000 
     61 CA          1.2290   22.3650    6.9380 C.3       6 GLP5        0.0000 
     62 CA         11.0480   25.7507    0.7940 C.3       3 GLC5        0.0000 
     63 CA         11.6260   27.1470   -0.6120 C.3       6 GLP5        0.0000 
     64 CA         11.3390   23.1063    1.0765 C.3       3 GLC5        0.0000 
     65 CA         11.1180   24.7060    2.4190 C.3       9 GLL5        0.0000 
     66 CA         12.2080   21.8580   -0.0470 C.3       6 GLP5        0.0000 
     67 CA         18.8095   23.8230    8.6498 C.3       3 GLC5        0.0000 
     68 CA         17.5600   22.4200    8.3880 C.3       9 GLL5        0.0000 
     69 CA         19.5420   25.6340    8.6660 C.3       6 GLP5        0.0000 
     70 CA         15.6988   20.2370   11.0568 C.3       3 GLC5        0.0000 
     71 CA         14.9780   20.1890   12.9400 C.3       6 GLP5        0.0000 
     72 CA         16.5738   16.0812    3.9438 C.3       3 GLC5        0.0000 
     73 CA         17.4400   18.0670    4.9150 C.3       9 GLL5        0.0000 
     74 CA         16.0220   14.0560    3.6450 C.3       6 GLP5        0.0000 
     75 CA         11.6798   28.0920    7.5674 C.3       3 GLC5        0.0000 
     76 CA         12.8670   29.3460    6.6920 C.3       6 GLP5        0.0000 
     77 CA         17.8192   22.2413   10.4496 C.3       3 GLC5        0.0000 
     78 CA         16.2310   21.9810    8.4120 C.3       9 GLL5        0.0000 
     79 CA         17.9680   23.4830   11.8730 C.3       6 GLP5        0.0000 
@<TRIPOS>BOND
@<TRIPOS>SUBSTRUCTURE
     1 ALC1        7 GROUP        1 X    ALC  0     ROOT ALC X 1
     2 SEC2        4 GROUP        1 X    SEC  0     **** SEC X 2
     3 GLC5        1 GROUP        1 X    GLC  0     **** GLC X 6
     4 ALP1        9 GROUP        1 Y    ALP  0     ROOT ALP Y 8
     5 SEP2        6 GROUP        1 Y    SEP  0     **** SEP Y 9
     6 GLP5        3 GROUP        1 Y    GLP  0     **** GLP Y 13
     7 ALL1        8 GROUP        1 Z    ALL  0     ROOT ALL Z 15
     8 SEL2        5 GROUP        1 Z    SEL  0     **** SEL Z 16
     9 GLL5        2 GROUP        1 Z    GLL  0     **** GLL Z 20
@<TRIPOS>SET

