#    Name: 2bpz_3IN_1_ligand
#    Modification time : Mon Mar 24 21:25:42 2014

@<TRIPOS>MOLECULE
2bpz_3IN_1_ligand
  106   110     1     0     0
SMALL
NO_CHARGES


@<TRIPOS>ATOM
      1 C1          8.8170   24.4520    4.1320 C.3       1 3IN902      0.0000 
      2 C2         10.0890   25.2240    4.5220 C.3       1 3IN902      0.0000 
      3 C3         10.2460   25.2060    6.0110 C.2       1 3IN902      0.0000 
      4 O4         18.6880   20.1870    4.8890 O.3       1 3IN902      0.0000 
      5 O5          7.7340   25.3560    0.8130 O.2       1 3IN902      0.0000 
      6 N6          5.5030   24.5350    3.2600 N.ar      1 3IN902      0.0000 
      7 C7          8.9530   25.5340    8.7060 C.3       1 3IN902      0.0000 
      8 C8         11.1180   24.7060    2.4190 C.3       1 3IN902      0.0000 
      9 C9          9.8220   24.0030    1.9810 C.3       1 3IN902      0.0000 
     10 C10        12.5760   25.2650    4.0690 C.3       1 3IN902      0.0000 
     11 C11        13.7570   24.4110    4.6150 C.3       1 3IN902      0.0000 
     12 C12        13.8410   23.9950    6.0920 C.3       1 3IN902      0.0000 
     13 C13        15.0610   23.0830    6.4090 C.3       1 3IN902      0.0000 
     14 C14        15.1010   22.8630    7.9250 C.3       1 3IN902      0.0000 
     15 C15        16.2310   21.9810    8.4120 C.ar      1 3IN902      0.0000 
     16 C16        17.5600   22.4200    8.3880 C.ar      1 3IN902      0.0000 
     17 C19        16.9250   19.8630    9.4250 C.ar      1 3IN902      0.0000 
     18 C20        15.9140   20.7070    8.9220 C.ar      1 3IN902      0.0000 
     19 C21        14.9070   21.7380    5.6860 C.2       1 3IN902      0.0000 
     20 C22        16.2230   19.7970    4.9310 C.3       1 3IN902      0.0000 
     21 C24        17.4400   18.0670    4.9150 C.3       1 3IN902      0.0000 
     22 C27         0.9430   28.0460    2.1340 C.3       1 3IN902      0.0000 
     23 C30        15.6840   19.1610    3.5720 C.3       1 3IN902      0.0000 
     24 C31         7.6140   25.1420    2.0190 C.2       1 3IN902      0.0000 
     25 C32         6.3180   25.4730    2.6960 C.ar      1 3IN902      0.0000 
     26 C33         4.2270   24.8620    3.5740 C.ar      1 3IN902      0.0000 
     27 C34         3.7480   26.1740    3.3590 C.ar      1 3IN902      0.0000 
     28 C35         0.9620   28.2610    4.5730 C.3       1 3IN902      0.0000 
     29 N1          8.6840   24.5790    2.6930 N.am      1 3IN902      0.0000 
     30 O1         10.6880   24.2030    6.5730 O.2       1 3IN902      0.0000 
     31 N2          9.8830   26.3770    6.6050 N.am      1 3IN902      0.0000 
     32 C4          9.9040   26.5510    8.0680 C.3       1 3IN902      0.0000 
     33 C5          9.4000   27.9490    8.4510 C.3       1 3IN902      0.0000 
     34 C6         11.3330   26.4260    8.6260 C.3       1 3IN902      0.0000 
     35 N3         11.2790   24.6010    3.8820 N.3       1 3IN902      0.0000 
     36 O2         14.9380   25.1610    4.3750 O.3       1 3IN902      0.0000 
     37 C17        18.5940   21.6040    8.8790 C.ar      1 3IN902      0.0000 
     38 C18        18.2670   20.3310    9.4010 C.ar      1 3IN902      0.0000 
     39 O3         13.8260   21.1480    5.6780 O.2       1 3IN902      0.0000 
     40 N4         16.0140   21.2460    5.1070 N.am      1 3IN902      0.0000 
     41 C23        17.6370   19.4540    5.5020 C.3       1 3IN902      0.0000 
     42 C25        16.8110   18.1460    3.5700 C.3       1 3IN902      0.0000 
     43 C29        15.8300   20.1100    2.4100 C.3       1 3IN902      0.0000 
     44 N7          4.5810   27.0870    2.8570 N.ar      1 3IN902      0.0000 
     45 C36         5.8220   26.7670    2.5170 C.ar      1 3IN902      0.0000 
     46 CL1         3.1790   23.6530    4.2380 Cl        1 3IN902      0.0000 
     47 C26         1.6850   26.6950    2.2080 C.3       1 3IN902      0.0000 
     48 N8          0.1120   28.2190    3.3520 N.3       1 3IN902      0.0000 
     49 C37         1.7650   26.9340    4.7080 C.3       1 3IN902      0.0000 
     50 N5          2.4550   26.5910    3.4520 N.3       1 3IN902      0.0000 
     51 C28        -0.6860   29.4500    3.1870 C.3       1 3IN902      0.0000 
     52 H           7.9818   24.8960    4.6509 H         1 3IN902      0.0000 
     53 H           8.9426   23.4233    4.4322 H         1 3IN902      0.0000 
     54 H           9.9820   26.2393    4.1858 H         1 3IN902      0.0000 
     55 H          11.0614   25.7500    2.1103 H         1 3IN902      0.0000 
     56 H          11.9541   24.2333    1.9032 H         1 3IN902      0.0000 
     57 H           9.9247   22.9389    2.1984 H         1 3IN902      0.0000 
     58 H           9.7167   24.1297    0.9026 H         1 3IN902      0.0000 
     59 H          12.9229   25.7180    3.1010 H         1 3IN902      0.0000 
     60 H          12.4652   26.1450    4.7588 H         1 3IN902      0.0000 
     61 H          13.8198   23.4954    4.0005 H         1 3IN902      0.0000 
     62 H          12.9258   23.4593    6.3687 H         1 3IN902      0.0000 
     63 H          13.9072   24.8931    6.7167 H         1 3IN902      0.0000 
     64 H          15.9448   23.5696    6.0944 H         1 3IN902      0.0000 
     65 H          14.1344   22.4245    8.2416 H         1 3IN902      0.0000 
     66 H          15.1703   23.8509    8.4212 H         1 3IN902      0.0000 
     67 H          17.7851   23.3493    8.0075 H         1 3IN902      0.0000 
     68 H          16.7074   18.9505    9.7932 H         1 3IN902      0.0000 
     69 H          14.9379   20.3895    8.9278 H         1 3IN902      0.0000 
     70 H          15.5028   19.3272    5.7583 H         1 3IN902      0.0000 
     71 H          16.8081   17.4837    5.5920 H         1 3IN902      0.0000 
     72 H          18.4133   17.5712    4.8464 H         1 3IN902      0.0000 
     73 H           0.3224   28.0466    1.2428 H         1 3IN902      0.0000 
     74 H           1.6821   28.8381    2.0580 H         1 3IN902      0.0000 
     75 H          14.8133   18.7322    3.7370 H         1 3IN902      0.0000 
     76 H           0.3508   28.3759    5.4641 H         1 3IN902      0.0000 
     77 H           1.6738   29.0804    4.5189 H         1 3IN902      0.0000 
     78 H           9.5761   27.1969    6.0529 H         1 3IN902      0.0000 
     79 H          19.5569   21.9185    8.8610 H         1 3IN902      0.0000 
     80 H          19.0142   19.7284    9.7721 H         1 3IN902      0.0000 
     81 H          16.7760   21.8558    4.7551 H         1 3IN902      0.0000 
     82 H          17.5467   19.3944    6.5047 H         1 3IN902      0.0000 
     83 H          16.4087   17.1706    3.2855 H         1 3IN902      0.0000 
     84 H          17.5534   18.4425    2.8249 H         1 3IN902      0.0000 
     85 H           6.4705   27.4793    2.1018 H         1 3IN902      0.0000 
     86 H           2.3402   26.6226    1.3347 H         1 3IN902      0.0000 
     87 H           0.9391   25.8973    2.1413 H         1 3IN902      0.0000 
     88 H           1.0596   26.1473    4.9946 H         1 3IN902      0.0000 
     89 H           2.4814   27.0617    5.5260 H         1 3IN902      0.0000 
     90 H           9.2185   24.5935    8.4941 H         1 3IN902      0.0000 
     91 H           8.9355   25.6162    9.7025 H         1 3IN902      0.0000 
     92 H           8.0132   25.6525    8.3856 H         1 3IN902      0.0000 
     93 H           9.3917   28.0822    9.4421 H         1 3IN902      0.0000 
     94 H           9.9743   28.6700    8.0632 H         1 3IN902      0.0000 
     95 H           8.4681   28.1098    8.1258 H         1 3IN902      0.0000 
     96 H          11.7191   25.5189    8.4584 H         1 3IN902      0.0000 
     97 H          11.9537   27.0903    8.2095 H         1 3IN902      0.0000 
     98 H          11.3606   26.5784    9.6139 H         1 3IN902      0.0000 
     99 H          16.7844   20.3668    2.2579 H         1 3IN902      0.0000 
    100 H          15.4952   19.7079    1.5578 H         1 3IN902      0.0000 
    101 H          15.3183   20.9567    2.5555 H         1 3IN902      0.0000 
    102 H          -0.1056   30.2560    3.0703 H         1 3IN902      0.0000 
    103 H          -1.2835   29.4008    2.3867 H         1 3IN902      0.0000 
    104 H          -1.2711   29.6223    3.9795 H         1 3IN902      0.0000 
    105 H          18.5711   21.1261    5.2120 H         1 3IN902      0.0000 
    106 H          15.0035   25.7942    5.1462 H         1 3IN902      0.0000 
@<TRIPOS>BOND
     1    2    1 1    
     2   29    1 1    
     3   52    1 1    
     4   53    1 1    
     5    3    2 1    
     6   35    2 1    
     7   54    2 1    
     8   30    3 2    
     9   31    3 am   
    10   41    4 1    
    11  105    4 1    
    12   24    5 2    
    13   25    6 ar   
    14   26    6 ar   
    15   32    7 1    
    16   90    7 1    
    17   91    7 1    
    18   92    7 1    
    19    9    8 1    
    20   35    8 1    
    21   55    8 1    
    22   56    8 1    
    23   29    9 1    
    24   57    9 1    
    25   58    9 1    
    26   11   10 1    
    27   35   10 1    
    28   59   10 1    
    29   60   10 1    
    30   12   11 1    
    31   36   11 1    
    32   61   11 1    
    33   13   12 1    
    34   62   12 1    
    35   63   12 1    
    36   14   13 1    
    37   19   13 1    
    38   64   13 1    
    39   15   14 1    
    40   65   14 1    
    41   66   14 1    
    42   16   15 ar   
    43   18   15 ar   
    44   37   16 ar   
    45   67   16 1    
    46   18   17 ar   
    47   38   17 ar   
    48   68   17 1    
    49   69   18 1    
    50   39   19 2    
    51   40   19 am   
    52   23   20 1    
    53   40   20 1    
    54   41   20 1    
    55   70   20 1    
    56   41   21 1    
    57   42   21 1    
    58   71   21 1    
    59   72   21 1    
    60   47   22 1    
    61   48   22 1    
    62   73   22 1    
    63   74   22 1    
    64   42   23 1    
    65   43   23 1    
    66   75   23 1    
    67   25   24 1    
    68   29   24 am   
    69   45   25 ar   
    70   27   26 ar   
    71   46   26 1    
    72   44   27 ar   
    73   50   27 1    
    74   48   28 1    
    75   49   28 1    
    76   76   28 1    
    77   77   28 1    
    78   32   31 1    
    79   78   31 1    
    80   33   32 1    
    81   34   32 1    
    82   93   33 1    
    83   94   33 1    
    84   95   33 1    
    85   96   34 1    
    86   97   34 1    
    87   98   34 1    
    88  106   36 1    
    89   38   37 ar   
    90   79   37 1    
    91   80   38 1    
    92   81   40 1    
    93   82   41 1    
    94   83   42 1    
    95   84   42 1    
    96   99   43 1    
    97  100   43 1    
    98  101   43 1    
    99   45   44 ar   
   100   85   45 1    
   101   50   47 1    
   102   86   47 1    
   103   87   47 1    
   104   51   48 1    
   105   50   49 1    
   106   88   49 1    
   107   89   49 1    
   108  102   51 1    
   109  103   51 1    
   110  104   51 1    
@<TRIPOS>SUBSTRUCTURE
     1 3IN902      1 GROUP   
@<TRIPOS>SET

