#    Name: 2cgw_3C3_1_INTS_M
#    Modification time : Mon Mar 24 23:46:51 2014

@<TRIPOS>MOLECULE
2cgw_3C3_1_INTS_M
   26     0     9     0     0
SMALL
NO_CHARGES


@<TRIPOS>ATOM
      1 O           6.8160   -1.1905   19.9350 O.2       1 ALC1        0.0000 
      2 O           6.5310   -2.4460   19.0170 O.2       7 ALL1        0.0000 
      3 O           7.1010    0.0650   20.8530 O.2       4 ALP1        0.0000 
      4 O           5.8560   -1.0355   20.6130 O.2       1 ALC1        0.0000 
      5 O           4.6110   -2.1360   20.3730 O.2       7 ALL1        0.0000 
      6 N           3.4450   -1.2240   20.9540 N.am      2 SEC2        0.0000 
      7 N           3.4240   -2.8870   20.6130 N.am      8 SEL2        0.0000 
      8 N           3.4660    0.4390   21.2950 N.am      5 SEP2        0.0000 
      9 CA          5.5600   -5.5505   20.0635 C.3       3 GLC5        0.0000 
     10 CA          4.6640   -4.0160   19.1500 C.3       9 GLL5        0.0000 
     11 CA          6.4560   -7.0850   20.9770 C.3       6 GLP5        0.0000 
     12 CA          9.8580   -7.7305   16.2275 C.3       3 GLC5        0.0000 
     13 CA          7.9300   -7.2700   15.4030 C.3       9 GLL5        0.0000 
     14 CA         11.7860   -8.1910   17.0520 C.3       6 GLP5        0.0000 
     15 CA          8.5375   -6.3760   13.5850 C.3       3 GLC5        0.0000 
     16 CA          9.1450   -5.4820   11.7670 C.3       6 GLP5        0.0000 
     17 CA          6.0267   -3.5010   20.9985 C.3       3 GLC5        0.0000 
     18 CA          7.0550   -3.5780   22.6760 C.3       6 GLP5        0.0000 
     19 CA          4.6712   -2.7280   17.7645 C.3       3 GLC5        0.0000 
     20 CA          5.3330   -2.8320   19.4920 C.3       9 GLL5        0.0000 
     21 CA          4.3440   -2.0320   16.2080 C.3       6 GLP5        0.0000 
     22 CA          2.3267   -9.3938   18.2460 C.3       3 GLC5        0.0000 
     23 CA          2.9410   -7.7260   17.2180 C.3       9 GLL5        0.0000 
     24 CA          2.4540  -10.9420   19.4340 C.3       6 GLP5        0.0000 
     25 CA          7.6180   -7.5447   17.4372 C.3       3 GLC5        0.0000 
     26 CA          7.4140   -8.4010   19.0970 C.3       6 GLP5        0.0000 
@<TRIPOS>BOND
@<TRIPOS>SUBSTRUCTURE
     1 ALC1        1 GROUP        1 X    ALC  0     ROOT ALC X 1
     2 SEC2        6 GROUP        1 X    SEC  0     **** SEC X 2
     3 GLC5        9 GROUP        1 X    GLC  0     **** GLC X 6
     4 ALP1        3 GROUP        1 Y    ALP  0     ROOT ALP Y 8
     5 SEP2        8 GROUP        1 Y    SEP  0     **** SEP Y 9
     6 GLP5       11 GROUP        1 Y    GLP  0     **** GLP Y 13
     7 ALL1        2 GROUP        1 Z    ALL  0     ROOT ALL Z 15
     8 SEL2        7 GROUP        1 Z    SEL  0     **** SEL Z 16
     9 GLL5       10 GROUP        1 Z    GLL  0     **** GLL Z 20
@<TRIPOS>SET

