#    Name: 2cgw_3C3_1_ligand
#    Modification time : Mon Mar 24 23:46:51 2014

@<TRIPOS>MOLECULE
2cgw_3C3_1_ligand
   34    36     1     0     0
SMALL
NO_CHARGES


@<TRIPOS>ATOM
      1 N16         6.5310   -2.4460   19.0170 N.pl3     1 3C31272     0.0000 
      2 C8          5.3330   -2.8320   19.4920 C.2       1 3C31272     0.0000 
      3 N10         4.6110   -2.1360   20.3730 N.pl3     1 3C31272     0.0000 
      4 O14         3.4240   -2.8870   20.6130 O.3       1 3C31272     0.0000 
      5 N12         3.4930   -4.0720   19.8000 N.pl3     1 3C31272     0.0000 
      6 C4          4.6640   -4.0160   19.1500 C.2       1 3C31272     0.0000 
      7 C1          5.1980   -4.8920   18.2190 C.2       1 3C31272     0.0000 
      8 N3          6.4380   -4.8340   17.7390 N.2       1 3C31272     0.0000 
      9 N7          4.5970   -5.9070   17.5840 N.pl3     1 3C31272     0.0000 
     10 C18         3.1820   -6.3240   17.7910 C.3       1 3C31272     0.0000 
     11 C19         2.9410   -7.7260   17.2180 C.3       1 3C31272     0.0000 
     12 C20         1.4580   -7.9650   16.8980 C.3       1 3C31272     0.0000 
     13 N5          5.3820   -6.4670   16.7980 N.2       1 3C31272     0.0000 
     14 C2          6.5500   -5.8200   16.8530 C.2       1 3C31272     0.0000 
     15 C6          7.7140   -6.1070   16.1520 C.2       1 3C31272     0.0000 
     16 N13         8.8150   -5.3470   16.0940 N.pl3     1 3C31272     0.0000 
     17 O15         9.7570   -6.0430   15.2880 O.3       1 3C31272     0.0000 
     18 N11         9.1500   -7.2510   14.8760 N.pl3     1 3C31272     0.0000 
     19 C9          7.9300   -7.2700   15.4030 C.2       1 3C31272     0.0000 
     20 N17         7.0720   -8.2780   15.2160 N.pl3     1 3C31272     0.0000 
     21 H           6.9805   -3.0808   18.3886 H         1 3C31272     0.0000 
     22 H           6.8652   -1.5587   19.3347 H         1 3C31272     0.0000 
     23 H           4.8007   -1.3089   20.7855 H         1 3C31272     0.0000 
     24 H           2.8183   -4.7226   19.7714 H         1 3C31272     0.0000 
     25 H           2.5051   -5.6255   17.2950 H         1 3C31272     0.0000 
     26 H           2.9438   -6.3391   18.8565 H         1 3C31272     0.0000 
     27 H           3.2739   -8.4712   17.9428 H         1 3C31272     0.0000 
     28 H           3.5265   -7.8450   16.3045 H         1 3C31272     0.0000 
     29 H           8.9819   -4.5067   16.4926 H         1 3C31272     0.0000 
     30 H           9.5759   -7.8954   14.3258 H         1 3C31272     0.0000 
     31 H           1.1139   -7.3124   16.2229 H         1 3C31272     0.0000 
     32 H           1.3009   -8.8804   16.5274 H         1 3C31272     0.0000 
     33 H           0.8834   -7.8756   17.7115 H         1 3C31272     0.0000 
     34 H           6.1922   -7.9329   15.5428 H         1 3C31272     0.0000 
@<TRIPOS>BOND
     1    2    1 1    
     2   21    1 1    
     3   22    1 1    
     4    3    2 1    
     5    6    2 2    
     6    4    3 1    
     7   23    3 1    
     8    5    4 1    
     9    6    5 1    
    10   24    5 1    
    11    7    6 1    
    12    8    7 2    
    13    9    7 1    
    14   14    8 1    
    15   10    9 1    
    16   13    9 1    
    17   11   10 1    
    18   25   10 1    
    19   26   10 1    
    20   12   11 1    
    21   27   11 1    
    22   28   11 1    
    23   31   12 1    
    24   32   12 1    
    25   33   12 1    
    26   14   13 2    
    27   15   14 1    
    28   16   15 1    
    29   19   15 2    
    30   17   16 1    
    31   29   16 1    
    32   18   17 1    
    33   19   18 1    
    34   30   18 1    
    35   20   19 1    
    36   34   20 1    
@<TRIPOS>SUBSTRUCTURE
     1 3C31272     1 GROUP   
@<TRIPOS>SET

