#    Name: 1ycf_FMN_2_INTS_M
#    Modification time : Tue Mar 25 10:57:38 2014

@<TRIPOS>MOLECULE
1ycf_FMN_2_INTS_M
   70     0     9     0     0
SMALL
NO_CHARGES


@<TRIPOS>ATOM
      1 N          97.4650   38.0520 -162.6750 N.am      2 SEC2        0.0000 
      2 N          97.1940   39.0640 -161.4880 N.am      8 SEL2        0.0000 
      3 N          97.7360   37.0400 -163.8620 N.am      5 SEP2        0.0000 
      4 N          96.4245   37.6475 -163.0535 N.am      2 SEC2        0.0000 
      5 N          95.1130   38.2550 -162.2450 N.am      8 SEL2        0.0000 
      6 N          95.5055   36.8240 -162.4360 N.am      2 SEC2        0.0000 
      7 N          95.8980   35.3930 -162.6270 N.am      5 SEP2        0.0000 
      8 N          93.8485   38.4940 -162.7340 N.am      2 SEC2        0.0000 
      9 N          92.5840   38.7330 -163.2230 N.am      5 SEP2        0.0000 
     10 N          94.2000   42.3220 -158.9280 N.am      2 SEC2        0.0000 
     11 N          94.9260   41.1550 -158.6960 N.am      8 SEL2        0.0000 
     12 N          93.4740   43.4890 -159.1600 N.am      5 SEP2        0.0000 
     13 N          96.9860   42.7605 -158.5065 N.am      2 SEC2        0.0000 
     14 N          97.7750   41.4400 -158.6660 N.am      8 SEL2        0.0000 
     15 N          96.1970   44.0810 -158.3470 N.am      5 SEP2        0.0000 
     16 CA         98.3780   43.1350 -159.4785 C.3       3 GLC5        0.0000 
     17 CA         99.2240   41.5540 -158.6870 C.3       9 GLL5        0.0000 
     18 CA         97.5320   44.7160 -160.2700 C.3       6 GLP5        0.0000 
     19 CA        104.9985   43.4100 -158.5155 C.3       3 GLC5        0.0000 
     20 CA        103.6540   41.7420 -158.9590 C.3       9 GLL5        0.0000 
     21 CA        106.3430   45.0780 -158.0720 C.3       6 GLP5        0.0000 
     22 CA        103.3460   39.7980 -159.2320 C.3       3 GLC5        0.0000 
     23 CA        103.0380   37.8540 -159.5050 C.3       6 GLP5        0.0000 
     24 CA        102.1800   42.6585 -160.9435 C.3       3 GLC5        0.0000 
     25 CA        101.4750   40.8650 -159.7840 C.3       9 GLL5        0.0000 
     26 CA        102.8850   44.4520 -162.1030 C.3       6 GLP5        0.0000 
     27 CA        101.5080   38.4760 -160.6310 C.3       3 GLC5        0.0000 
     28 CA         99.9780   39.0980 -161.7570 C.3       9 GLL5        0.0000 
     29 CA         99.0860   37.4425 -162.5260 C.3       3 GLC5        0.0000 
     30 CA         98.1940   35.7870 -163.2950 C.3       6 GLP5        0.0000 
     31 CA         99.3400   37.7025 -160.3460 C.3       3 GLC5        0.0000 
     32 CA         98.7020   36.3070 -158.9350 C.3       6 GLP5        0.0000 
     33 CA        100.6875   37.1125 -161.9935 C.3       3 GLC5        0.0000 
     34 CA        101.3970   35.1270 -162.2300 C.3       6 GLP5        0.0000 
     35 O          98.5335   41.4805 -162.8790 O.2       1 ALC1        0.0000 
     36 O          99.0050   40.2610 -163.5950 O.2       7 ALL1        0.0000 
     37 O          98.0620   42.7000 -162.1630 O.2       4 ALP1        0.0000 
     38 CA         99.5590   37.3245 -163.6465 C.3       3 GLC5        0.0000 
     39 CA        100.9240   38.8620 -163.9980 C.3       9 GLL5        0.0000 
     40 CA        101.1605   36.9945 -163.1140 C.3       3 GLC5        0.0000 
     41 CA        100.6020   39.4080 -167.2235 C.3       3 GLC5        0.0000 
     42 CA        101.3130   39.3680 -165.3980 C.3       9 GLL5        0.0000 
     43 CA         99.8910   39.4480 -169.0490 C.3       6 GLP5        0.0000 
     44 CA         99.3455   38.9910 -165.5360 C.3       3 GLC5        0.0000 
     45 CA         97.3780   38.6140 -165.6740 C.3       6 GLP5        0.0000 
     46 N         103.2550   42.1000 -169.8825 N.am      2 SEC2        0.0000 
     47 N         103.1810   42.4290 -168.5740 N.am      8 SEL2        0.0000 
     48 N         103.3290   41.7710 -171.1910 N.am      5 SEP2        0.0000 
     49 N         102.2120   42.7765 -169.2255 N.am      2 SEC2        0.0000 
     50 N         101.2430   43.1240 -169.8770 N.am      5 SEP2        0.0000 
     51 N         104.6740   43.5575 -167.3015 N.am      2 SEC2        0.0000 
     52 N         103.8300   43.0060 -166.2350 N.am      8 SEL2        0.0000 
     53 N         105.5180   44.1090 -168.3680 N.am      5 SEP2        0.0000 
     54 N         104.5030   44.0350 -166.0950 N.am      2 SEC2        0.0000 
     55 N         105.1760   45.0640 -165.9550 N.am      5 SEP2        0.0000 
     56 N         105.2310   42.8445 -166.0240 N.am      2 SEC2        0.0000 
     57 N         106.6320   42.6830 -165.8130 N.am      5 SEP2        0.0000 
     58 N         105.6705   41.7665 -166.5200 N.am      2 SEC2        0.0000 
     59 N         104.7090   40.8500 -167.2270 N.am      8 SEL2        0.0000 
     60 N         105.1420   40.6685 -168.6880 N.am      2 SEC2        0.0000 
     61 N         105.5750   40.4870 -170.1490 N.am      5 SEP2        0.0000 
     62 CA        100.5699   44.2500 -158.4475 C.3       3 GLC5        0.0000 
     63 CA        101.4560   42.4460 -157.8430 C.3       9 GLL5        0.0000 
     64 CA         99.7990   45.6020 -159.6190 C.3       6 GLP5        0.0000 
     65 CA        103.2832   43.3846 -159.6606 C.3       3 GLC5        0.0000 
     66 CA        103.8290   44.8700 -160.6600 C.3       6 GLP5        0.0000 
     67 CA         98.9810   38.9802 -164.6040 C.3       3 GLC5        0.0000 
     68 CA        100.2440   39.8310 -163.0700 C.3       9 GLL5        0.0000 
     69 CA        100.9857   41.7185 -165.8268 C.3       3 GLC5        0.0000 
     70 CA        100.1710   43.4630 -166.2670 C.3       6 GLP5        0.0000 
@<TRIPOS>BOND
@<TRIPOS>SUBSTRUCTURE
     1 ALC1       35 GROUP        1 X    ALC  0     ROOT ALC X 1
     2 SEC2        1 GROUP        1 X    SEC  0     **** SEC X 2
     3 GLC5       16 GROUP        1 X    GLC  0     **** GLC X 6
     4 ALP1       37 GROUP        1 Y    ALP  0     ROOT ALP Y 8
     5 SEP2        3 GROUP        1 Y    SEP  0     **** SEP Y 9
     6 GLP5       18 GROUP        1 Y    GLP  0     **** GLP Y 13
     7 ALL1       36 GROUP        1 Z    ALL  0     ROOT ALL Z 15
     8 SEL2        2 GROUP        1 Z    SEL  0     **** SEL Z 16
     9 GLL5       17 GROUP        1 Z    GLL  0     **** GLL Z 20
@<TRIPOS>SET

