#    Name: 1ycf_FMN_2_ligand
#    Modification time : Tue Mar 25 10:57:38 2014

@<TRIPOS>MOLECULE
1ycf_FMN_2_ligand
   50    52     1     0     0
SMALL
NO_CHARGES


@<TRIPOS>ATOM
      1 N1         97.1940   39.0640 -161.4880 N.2       1 FMN702      0.0000 
      2 C2         95.8340   38.9400 -161.4890 C.2       1 FMN702      0.0000 
      3 O2         95.1130   38.2550 -162.2450 O.2       1 FMN702      0.0000 
      4 N3         95.0690   39.7220 -160.4580 N.am      1 FMN702      0.0000 
      5 C4         95.7170   40.5860 -159.4770 C.2       1 FMN702      0.0000 
      6 O4         94.9260   41.1550 -158.6960 O.2       1 FMN702      0.0000 
      7 C4A        97.1280   40.6650 -159.5390 C.2       1 FMN702      0.0000 
      8 N5         97.7750   41.4400 -158.6660 N.2       1 FMN702      0.0000 
      9 C5A        99.2240   41.5540 -158.6870 C.ar      1 FMN702      0.0000 
     10 C6         99.9750   42.3800 -157.7610 C.ar      1 FMN702      0.0000 
     11 C7        101.4560   42.4460 -157.8430 C.ar      1 FMN702      0.0000 
     12 C7M       101.9660   43.3830 -156.7500 C.3       1 FMN702      0.0000 
     13 C8        102.1860   41.6670 -158.8840 C.ar      1 FMN702      0.0000 
     14 C8M       103.6540   41.7420 -158.9590 C.3       1 FMN702      0.0000 
     15 C9        101.4750   40.8650 -159.7840 C.ar      1 FMN702      0.0000 
     16 C9A        99.9640   40.7450 -159.7580 C.ar      1 FMN702      0.0000 
     17 N10        99.3230   39.9040 -160.7070 N.pl3     1 FMN702      0.0000 
     18 C10        97.9170   39.8400 -160.6250 C.2       1 FMN702      0.0000 
     19 C1'        99.9780   39.0980 -161.7570 C.3       1 FMN702      0.0000 
     20 C2'       100.2440   39.8310 -163.0700 C.3       1 FMN702      0.0000 
     21 O2'        99.0050   40.2610 -163.5950 O.3       1 FMN702      0.0000 
     22 C3'       100.9240   38.8620 -163.9980 C.3       1 FMN702      0.0000 
     23 O3'       102.2280   38.4490 -163.4310 O.3       1 FMN702      0.0000 
     24 C4'       101.3130   39.3680 -165.3980 C.3       1 FMN702      0.0000 
     25 O4'       101.9260   38.3210 -166.1060 O.3       1 FMN702      0.0000 
     26 C5'       102.2880   40.5800 -165.3750 C.3       1 FMN702      0.0000 
     27 O5'       102.2360   41.1860 -166.6850 O.3       1 FMN702      0.0000 
     28 P         103.5530   41.8940 -167.1650 P.3       1 FMN702      0.0000 
     29 O1P       103.1810   42.4290 -168.5740 O.co2     1 FMN702      0.0000 
     30 O2P       103.8300   43.0060 -166.2350 O.co2     1 FMN702      0.0000 
     31 O3P       104.7090   40.8500 -167.2270 O.co2     1 FMN702      0.0000 
     32 H          94.0529   39.6325 -160.4591 H         1 FMN702      0.0000 
     33 H          99.5032   42.9172 -157.0534 H         1 FMN702      0.0000 
     34 H         101.9525   40.3166 -160.5097 H         1 FMN702      0.0000 
     35 H          99.3616   38.1987 -161.9849 H         1 FMN702      0.0000 
     36 H         100.9495   38.7031 -161.3815 H         1 FMN702      0.0000 
     37 H         100.9062   40.6437 -162.8613 H         1 FMN702      0.0000 
     38 H         100.3280   37.9665 -164.1258 H         1 FMN702      0.0000 
     39 H         100.4051   39.6927 -165.9016 H         1 FMN702      0.0000 
     40 H         103.2722   40.2026 -165.1405 H         1 FMN702      0.0000 
     41 H         101.9520   41.2545 -164.6015 H         1 FMN702      0.0000 
     42 H         102.9631   43.4583 -156.7608 H         1 FMN702      0.0000 
     43 H         101.6011   44.3082 -156.8539 H         1 FMN702      0.0000 
     44 H         101.7059   43.0660 -155.8379 H         1 FMN702      0.0000 
     45 H         104.0855   41.4314 -158.1120 H         1 FMN702      0.0000 
     46 H         104.0176   41.1751 -159.6982 H         1 FMN702      0.0000 
     47 H         103.9702   42.6763 -159.1235 H         1 FMN702      0.0000 
     48 H          98.7781   41.0870 -163.0791 H         1 FMN702      0.0000 
     49 H         102.7765   38.1708 -164.2195 H         1 FMN702      0.0000 
     50 H         101.1791   37.7034 -166.3526 H         1 FMN702      0.0000 
@<TRIPOS>BOND
     1    2    1 1    
     2   18    1 2    
     3    3    2 2    
     4    4    2 am   
     5    5    4 am   
     6   32    4 1    
     7    6    5 2    
     8    7    5 1    
     9    8    7 2    
    10   18    7 1    
    11    9    8 1    
    12   10    9 ar   
    13   16    9 ar   
    14   11   10 ar   
    15   33   10 1    
    16   12   11 1    
    17   13   11 ar   
    18   42   12 1    
    19   43   12 1    
    20   44   12 1    
    21   14   13 1    
    22   15   13 ar   
    23   45   14 1    
    24   46   14 1    
    25   47   14 1    
    26   16   15 ar   
    27   34   15 1    
    28   17   16 1    
    29   18   17 1    
    30   19   17 1    
    31   20   19 1    
    32   35   19 1    
    33   36   19 1    
    34   21   20 1    
    35   22   20 1    
    36   37   20 1    
    37   48   21 1    
    38   23   22 1    
    39   24   22 1    
    40   38   22 1    
    41   49   23 1    
    42   25   24 1    
    43   26   24 1    
    44   39   24 1    
    45   50   25 1    
    46   27   26 1    
    47   40   26 1    
    48   41   26 1    
    49   28   27 1    
    50   29   28 ar   
    51   30   28 ar   
    52   31   28 ar   
@<TRIPOS>SUBSTRUCTURE
     1 FMN702      1 GROUP   
@<TRIPOS>SET

