#    Name: 3PKA_1_CAVITY_N1_ALL.mol2
#    Modification time : Mon Mar 10 14:36:04 2014

@<TRIPOS>MOLECULE
3PKA_1_CAVITY_N1_ALL.mol2
   92     0     7     0     0
SMALL
NO_CHARGES


@<TRIPOS>ATOM
      1 CZ        -42.6727  -18.9302    9.9130 C.ar      5 PHE5        0.0000 
      2 CZ        -41.3538  -19.3823    9.3598 C.ar      5 PHE5        0.0000 
      3 DU        -40.0349  -19.8343    8.8066 H         7 CUB7        0.0000 
      4 CZ        -38.7160  -20.2864    8.2533 C.ar      5 PHE5        0.0000 
      5 CZ        -43.3531  -19.3703    8.6507 C.ar      5 PHE5        0.0000 
      6 DU        -42.0341  -19.8224    8.0975 H         7 CUB7        0.0000 
      7 DU        -39.3963  -20.7265    6.9910 H         7 CUB7        0.0000 
      8 DU        -41.3955  -20.7145    6.2819 H         7 CUB7        0.0000 
      9 DU        -38.7577  -21.6187    5.1755 H         7 CUB7        0.0000 
     10 DU        -40.7569  -21.6067    4.4664 H         7 CUB7        0.0000 
     11 DU        -39.4380  -22.0588    3.9131 H         7 CUB7        0.0000 
     12 OG        -38.1191  -22.5108    3.3599 O.2       1 SER1        0.0000 
     13 CA        -41.4373  -22.0468    3.2040 C.3       6 GLY6        0.0000 
     14 DU        -40.1183  -22.4989    2.6508 H         7 CUB7        0.0000 
     15 O         -41.1357  -18.0214    8.7678 O.2       2 ALA2        0.0000 
     16 O         -39.8168  -18.4735    8.2145 O.2       2 ALA2        0.0000 
     17 CZ        -38.4978  -18.9255    7.6613 C.ar      5 PHE5        0.0000 
     18 CZ        -43.1349  -18.0094    8.0587 C.ar      5 PHE5        0.0000 
     19 DU        -41.8160  -18.4615    7.5055 H         7 CUB7        0.0000 
     20 DU        -40.4971  -18.9136    6.9522 H         7 CUB7        0.0000 
     21 CZ        -39.1782  -19.3656    6.3990 C.ar      5 PHE5        0.0000 
     22 CZ        -37.8592  -19.8177    5.8458 C.ar      5 PHE5        0.0000 
     23 CZ        -43.8153  -18.4495    6.7964 C.ar      5 PHE5        0.0000 
     24 OG        -42.4964  -18.9016    6.2431 O.2       1 SER1        0.0000 
     25 DU        -41.1774  -19.3537    5.6899 H         7 CUB7        0.0000 
     26 DU        -39.8585  -19.8057    5.1367 H         7 CUB7        0.0000 
     27 DU        -38.5396  -20.2578    4.5834 H         7 CUB7        0.0000 
     28 OG        -37.2206  -20.7099    4.0302 O.2       1 SER1        0.0000 
     29 N         -43.1767  -19.3417    4.9808 N.2       2 ALA2        0.0000 
     30 N         -41.8578  -19.7938    4.4276 N.2       2 ALA2        0.0000 
     31 CA        -40.5388  -20.2458    3.8743 C.3       6 GLY6        0.0000 
     32 OG        -39.2199  -20.6979    3.3211 O.2       1 SER1        0.0000 
     33 CA        -39.9002  -21.1380    2.0588 C.3       6 GLY6        0.0000 
     34 CZ        -45.5547  -15.7444    8.5731 C.ar      5 PHE5        0.0000 
     35 CZ        -44.2358  -16.1965    8.0199 C.ar      5 PHE5        0.0000 
     36 CZ        -42.9168  -16.6486    7.4667 C.ar      5 PHE5        0.0000 
     37 CZ        -38.9600  -18.0048    5.8070 C.ar      5 PHE5        0.0000 
     38 CZ        -37.6411  -18.4568    5.2538 C.ar      5 PHE5        0.0000 
     39 CZ        -44.9161  -16.6366    6.7576 C.ar      5 PHE5        0.0000 
     40 CZ        -43.5972  -17.0887    6.2043 C.ar      5 PHE5        0.0000 
     41 N         -42.2782  -17.5407    5.6511 N.2       2 ALA2        0.0000 
     42 N         -40.9593  -17.9928    5.0979 N.2       2 ALA2        0.0000 
     43 DU        -39.6404  -18.4449    4.5447 H         7 CUB7        0.0000 
     44 N         -38.3214  -18.8969    3.9914 N.2       2 ALA2        0.0000 
     45 CZ        -45.5964  -17.0767    5.4953 C.ar      5 PHE5        0.0000 
     46 CA        -40.3207  -18.8850    3.2823 C.3       6 GLY6        0.0000 
     47 N         -39.0018  -19.3370    2.7291 N.2       2 ALA2        0.0000 
     48 CZ        -44.6562  -13.9435    9.2434 C.ar      5 PHE5        0.0000 
     49 CZ        -43.3373  -14.3955    8.6902 C.ar      5 PHE5        0.0000 
     50 CZ        -45.3366  -14.3836    7.9811 C.ar      5 PHE5        0.0000 
     51 CZ        -44.0176  -14.8356    7.4279 C.ar      5 PHE5        0.0000 
     52 N         -42.6987  -15.2877    6.8747 N.2       2 ALA2        0.0000 
     53 N         -38.7419  -16.6439    5.2150 N.2       2 ALA2        0.0000 
     54 CA        -37.4230  -17.0960    4.6617 C.3       6 GLY6        0.0000 
     55 CA        -46.0169  -14.8237    6.7188 C.3       6 GLY6        0.0000 
     56 DU        -44.6980  -15.2757    6.1656 H         7 CUB7        0.0000 
     57 N         -43.3790  -15.7278    5.6123 N.2       2 ALA2        0.0000 
     58 N         -42.0601  -16.1799    5.0591 N.2       2 ALA2        0.0000 
     59 N         -40.7412  -16.6319    4.5059 N.2       2 ALA2        0.0000 
     60 N         -39.4223  -17.0840    3.9526 N.2       2 ALA2        0.0000 
     61 N         -38.1033  -17.5361    3.3994 N.2       2 ALA2        0.0000 
     62 CZ        -45.3783  -15.7158    4.9032 C.ar      5 PHE5        0.0000 
     63 N         -44.0594  -16.1679    4.3500 N.2       2 ALA2        0.0000 
     64 N         -41.4215  -17.0720    3.2436 N.2       2 ALA2        0.0000 
     65 N         -40.1026  -17.5241    2.6903 N.2       2 ALA2        0.0000 
     66 CZ        -44.4381  -12.5826    8.6514 C.ar      5 PHE5        0.0000 
     67 CA        -43.1192  -13.0347    8.0982 C.3       6 GLY6        0.0000 
     68 CA        -45.1184  -13.0227    7.3891 C.3       6 GLY6        0.0000 
     69 CA        -43.7995  -13.4748    6.8359 C.3       6 GLY6        0.0000 
     70 N         -38.5238  -15.2830    4.6230 N.2       2 ALA2        0.0000 
     71 CA        -37.2049  -15.7351    4.0697 C.3       6 GLY6        0.0000 
     72 CA        -44.4798  -13.9149    5.5736 C.3       6 GLY6        0.0000 
     73 N         -43.1609  -14.3669    5.0203 N.2       2 ALA2        0.0000 
     74 N         -41.8420  -14.8190    4.4671 N.2       2 ALA2        0.0000 
     75 N         -40.5231  -15.2711    3.9139 N.2       2 ALA2        0.0000 
     76 NZ        -39.2041  -15.7231    3.3606 N.2       4 LYS4        0.0000 
     77 N         -37.8852  -16.1752    2.8074 N.2       2 ALA2        0.0000 
     78 CZ        -45.1602  -14.3550    4.3112 C.ar      5 PHE5        0.0000 
     79 CZ        -43.8412  -14.8070    3.7580 C.ar      5 PHE5        0.0000 
     80 OD1       -42.5223  -15.2591    3.2048 O.3       3 ASP3        0.0000 
     81 OD1       -41.2034  -15.7112    2.6515 O.3       3 ASP3        0.0000 
     82 NZ        -39.8845  -16.1632    2.0983 N.2       4 LYS4        0.0000 
     83 CA        -42.2625  -12.5660    5.6906 C.3       6 GLY6        0.0000 
     84 N         -39.6246  -13.4701    4.5842 N.2       2 ALA2        0.0000 
     85 N         -38.3057  -13.9222    4.0310 N.2       2 ALA2        0.0000 
     86 CA        -44.2617  -12.5540    4.9815 C.3       6 GLY6        0.0000 
     87 CA        -42.9428  -13.0061    4.4283 C.3       6 GLY6        0.0000 
     88 NZ        -41.6239  -13.4581    3.8751 N.2       4 LYS4        0.0000 
     89 NZ        -40.3049  -13.9102    3.3219 N.2       4 LYS4        0.0000 
     90 CA        -44.9421  -12.9941    3.7192 C.3       6 GLY6        0.0000 
     91 OD1       -43.6231  -13.4462    3.1660 O.3       3 ASP3        0.0000 
     92 OD1       -42.3042  -13.8982    2.6128 O.3       3 ASP3        0.0000 
@<TRIPOS>BOND
@<TRIPOS>SUBSTRUCTURE
     1 SER1       12 GROUP   
     2 ALA2       15 GROUP   
     3 ASP3       80 GROUP   
     4 LYS4       76 GROUP   
     5 PHE5        1 GROUP   
     6 GLY6       13 GROUP   
     7 CUB7        3 GROUP   
@<TRIPOS>SET

