#    Name: 3pka_Y02_1_INTS_M
#    Modification time : Tue Mar 25 06:44:56 2014

@<TRIPOS>MOLECULE
3pka_Y02_1_INTS_M
   88     0    12     0     0
SMALL
NO_CHARGES


@<TRIPOS>ATOM
      1 O         -38.2050  -18.2235    1.9850 O.2       1 ALC1        0.0000 
      2 O         -39.0750  -18.3020    3.0920 O.2       9 ALL1        0.0000 
      3 O         -37.3350  -18.1450    0.8780 O.2       5 ALP1        0.0000 
      4 Zn        -43.0295  -12.4535    1.5820 Zn        3 ZIC7        0.0000 
      5 Zn        -43.5630  -12.7910    2.4480 Zn       11 ZIL7        0.0000 
      6 Zn        -42.4960  -12.1160    0.7160 Zn        7 ZIP7        0.0000 
      7 O         -42.4425  -11.7570    2.2925 O.2       1 ALC1        0.0000 
      8 O         -43.5630  -12.7910    2.4480 O.2       9 ALL1        0.0000 
      9 O         -41.3220  -10.7230    2.1370 O.2       5 ALP1        0.0000 
     10 Zn        -41.8305  -15.9075    0.8345 Zn        3 ZIC7        0.0000 
     11 Zn        -41.8820  -16.4960    1.8670 Zn       11 ZIL7        0.0000 
     12 Zn        -41.7790  -15.3190   -0.1980 Zn        7 ZIP7        0.0000 
     13 N         -42.7290  -17.5075    2.1750 N.am      2 SEC2        0.0000 
     14 N         -41.8820  -16.4960    1.8670 N.am     10 SEL2        0.0000 
     15 N         -43.5760  -18.5190    2.4830 N.am      6 SEP2        0.0000 
     16 Zn        -41.5950  -14.6170    0.6060 Zn        3 ZIC7        0.0000 
     17 Zn        -41.4110  -13.9150    1.4100 Zn       11 ZIL7        0.0000 
     18 Zn        -41.9535  -13.0155    1.0630 Zn        3 ZIC7        0.0000 
     19 O         -40.1930  -13.8945    1.0845 O.2       1 ALC1        0.0000 
     20 O         -41.4110  -13.9150    1.4100 O.2       9 ALL1        0.0000 
     21 O         -38.9750  -13.8740    0.7590 O.2       5 ALP1        0.0000 
     22 O         -40.4915  -14.7855    0.4950 O.2       1 ALC1        0.0000 
     23 O         -39.5720  -15.6560   -0.4200 O.2       5 ALP1        0.0000 
     24 N         -40.0845  -16.1260    5.8390 N.am      2 SEC2        0.0000 
     25 N         -40.0680  -17.4710    4.9850 N.am     10 SEL2        0.0000 
     26 N         -40.1010  -14.7810    6.6930 N.am      6 SEP2        0.0000 
     27 N         -39.7180  -14.8745    5.3430 N.am      2 SEC2        0.0000 
     28 N         -39.3350  -14.9680    3.9930 N.am     10 SEL2        0.0000 
     29 CA        -45.9125  -13.5185    5.0930 C.3       4 GLC5        0.0000 
     30 CA        -44.3210  -15.0860    4.9900 C.3      12 GLL5        0.0000 
     31 CA        -47.5040  -11.9510    5.1960 C.3       8 GLP5        0.0000 
     32 CA        -43.6430  -12.3325    5.7040 C.3       4 GLC5        0.0000 
     33 CA        -43.6080  -14.1090    4.4770 C.3      12 GLL5        0.0000 
     34 CA        -43.6780  -10.5560    6.9310 C.3       8 GLP5        0.0000 
     35 CA        -41.9745  -13.8060    5.8340 C.3       4 GLC5        0.0000 
     36 CA        -40.3410  -13.5030    7.1910 C.3       8 GLP5        0.0000 
     37 CA        -42.2970  -17.6790    2.3905 C.3       4 GLC5        0.0000 
     38 CA        -41.3860  -15.7230    3.0080 C.3      12 GLL5        0.0000 
     39 CA        -43.2080  -19.6350    1.7730 C.3       8 GLP5        0.0000 
     40 CA        -46.8135  -13.6565    5.9325 C.3       4 GLC5        0.0000 
     41 CA        -46.1230  -15.3620    6.6690 C.3      12 GLL5        0.0000 
     42 CA        -46.9295  -15.7025    4.8585 C.3       4 GLC5        0.0000 
     43 CA        -47.7360  -16.0430    3.0480 C.3       8 GLP5        0.0000 
     44 CA        -45.2115  -17.9440    7.1730 C.3       4 GLC5        0.0000 
     45 CA        -43.9700  -16.6250    6.8650 C.3      12 GLL5        0.0000 
     46 CA        -46.4530  -19.2630    7.4810 C.3       8 GLP5        0.0000 
     47 CA        -45.0530  -13.3560    9.1875 C.3       4 GLC5        0.0000 
     48 CA        -44.0910  -14.1760    7.3870 C.3      12 GLL5        0.0000 
     49 CA        -46.0150  -12.5360   10.9880 C.3       8 GLP5        0.0000 
     50 CA        -43.8845  -12.3660    7.1590 C.3       4 GLC5        0.0000 
     51 CA        -42.2160  -13.8395    7.2890 C.3       4 GLC5        0.0000 
     52 CA        -41.6470  -20.0860    2.5190 C.3       4 GLC5        0.0000 
     53 CA        -40.0860  -20.5370    3.2650 C.3      12 GLL5        0.0000 
     54 CA        -37.2955  -14.1465    5.7360 C.3       4 GLC5        0.0000 
     55 CA        -37.9320  -14.8470    3.9070 C.3      12 GLL5        0.0000 
     56 CA        -36.6590  -13.4460    7.5650 C.3       8 GLP5        0.0000 
     57 CA        -39.1365  -14.1750    5.5490 C.3       4 GLC5        0.0000 
     58 CA        -36.2925  -15.8875    4.6370 C.3       4 GLC5        0.0000 
     59 CA        -34.6530  -16.9280    5.3670 C.3       8 GLP5        0.0000 
     60 CA        -36.1375  -14.0885    4.0275 C.3       4 GLC5        0.0000 
     61 CA        -34.3430  -13.3300    4.1480 C.3       8 GLP5        0.0000 
     62 CA        -43.2840  -21.1785    3.5535 C.3       4 GLC5        0.0000 
     63 CA        -42.4610  -21.7450    5.1730 C.3      12 GLL5        0.0000 
     64 CA        -44.1070  -20.6120    1.9340 C.3       8 GLP5        0.0000 
     65 CA        -45.4400  -25.2975    2.9400 C.3       4 GLC5        0.0000 
     66 CA        -43.3880  -25.9940    2.6550 C.3      12 GLL5        0.0000 
     67 CA        -47.4920  -24.6010    3.2250 C.3       8 GLP5        0.0000 
     68 CA        -44.4385  -26.9925    1.7200 C.3       4 GLC5        0.0000 
     69 CA        -45.4890  -27.9910    0.7850 C.3       8 GLP5        0.0000 
     70 CA        -42.8935  -26.5785    0.7040 C.3       4 GLC5        0.0000 
     71 CA        -42.3990  -27.1630   -1.2470 C.3       8 GLP5        0.0000 
     72 CA        -37.9250  -24.7575    0.9070 C.3       4 GLC5        0.0000 
     73 CA        -38.9080  -23.6480    2.1840 C.3      12 GLL5        0.0000 
     74 CA        -36.9420  -25.8670   -0.3700 C.3       8 GLP5        0.0000 
     75 CA        -46.3462  -16.8215    7.2237 C.3       4 GLC5        0.0000 
     76 CA        -44.6040  -15.2820    6.4780 C.3      12 GLL5        0.0000 
     77 CA        -47.3290  -18.3210    7.8740 C.3       8 GLP5        0.0000 
     78 CA        -45.1631  -14.8784    3.0919 C.3       4 GLC5        0.0000 
     79 CA        -46.7320  -15.4120    2.2990 C.3       8 GLP5        0.0000 
     80 CA        -43.9525  -15.8109    8.8606 C.3       4 GLC5        0.0000 
     81 CA        -43.7160  -16.5570   10.6920 C.3       8 GLP5        0.0000 
     82 CA        -42.7955  -22.4045    2.6482 C.3       4 GLC5        0.0000 
     83 CA        -42.0280  -22.8220    4.1890 C.3      12 GLL5        0.0000 
     84 CA        -44.1860  -22.0040    1.3810 C.3       8 GLP5        0.0000 
     85 CA        -42.4820  -23.1385    1.9850 C.3       4 GLC5        0.0000 
     86 CA        -41.2250  -24.7930    2.4350 C.3      12 GLL5        0.0000 
     87 CA        -43.6049  -23.5860    2.2117 C.3       4 GLC5        0.0000 
     88 CA        -42.8470  -23.8510    3.8600 C.3      12 GLL5        0.0000 
@<TRIPOS>BOND
@<TRIPOS>SUBSTRUCTURE
     1 ALC1        1 GROUP        1 X    ALC  0     ROOT ALC X 1
     2 SEC2       13 GROUP        1 X    SEC  0     **** SEC X 2
     3 ZIC7        4 GROUP        1 X    ZIC  0     **** ZIC X 5
     4 GLC5       29 GROUP        1 X    GLC  0     **** GLC X 6
     5 ALP1        3 GROUP        1 Y    ALP  0     ROOT ALP Y 8
     6 SEP2       15 GROUP        1 Y    SEP  0     **** SEP Y 9
     7 ZIP7        6 GROUP        1 Y    ZIP  0     **** ZIP Y 12
     8 GLP5       31 GROUP        1 Y    GLP  0     **** GLP Y 13
     9 ALL1        2 GROUP        1 Z    ALL  0     ROOT ALL Z 15
    10 SEL2       14 GROUP        1 Z    SEL  0     **** SEL Z 16
    11 ZIL7        5 GROUP        1 Z    ZIL  0     **** ZIL Z 19
    12 GLL5       30 GROUP        1 Z    GLL  0     **** GLL Z 20
@<TRIPOS>SET

