#    Name: 3pka_Y02_1_ligand
#    Modification time : Tue Mar 25 06:44:56 2014

@<TRIPOS>MOLECULE
3pka_Y02_1_ligand
   66    66     1     0     0
SMALL
NO_CHARGES


@<TRIPOS>ATOM
      1 N         -39.0750  -18.3020    3.0920 N.am      1 Y02288      0.0000 
      2 O1        -43.5630  -12.7910    2.4480 O.3       1 Y02288      0.0000 
      3 O2        -41.8820  -16.4960    1.8670 O.3       1 Y02288      0.0000 
      4 O3        -41.4110  -13.9150    1.4100 O.3       1 Y02288      0.0000 
      5 O4        -40.0680  -17.4710    4.9850 O.2       1 Y02288      0.0000 
      6 O5        -39.3350  -14.9680    3.9930 O.3       1 Y02288      0.0000 
      7 O6        -39.8790  -21.7280    3.9970 O.3       1 Y02288      0.0000 
      8 C01       -44.6040  -15.2820    6.4780 C.3       1 Y02288      0.0000 
      9 C02       -44.3210  -15.0860    4.9900 C.2       1 Y02288      0.0000 
     10 C03       -43.6080  -14.1090    4.4770 C.2       1 Y02288      0.0000 
     11 C04       -43.2240  -14.0920    3.0360 C.3       1 Y02288      0.0000 
     12 C05       -41.7400  -14.2610    2.7640 C.3       1 Y02288      0.0000 
     13 C06       -41.3860  -15.7230    3.0080 C.3       1 Y02288      0.0000 
     14 C07       -39.8790  -16.0130    3.1530 C.3       1 Y02288      0.0000 
     15 C08       -46.1230  -15.3620    6.6690 C.3       1 Y02288      0.0000 
     16 C09       -43.9700  -16.6250    6.8650 C.3       1 Y02288      0.0000 
     17 C10       -44.0910  -14.1760    7.3870 C.3       1 Y02288      0.0000 
     18 C11       -39.6900  -17.3190    3.7900 C.2       1 Y02288      0.0000 
     19 C19       -38.8800  -19.6570    3.6050 C.3       1 Y02288      0.0000 
     20 C20       -40.0860  -20.5370    3.2650 C.3       1 Y02288      0.0000 
     21 C21       -37.9320  -14.8470    3.9070 C.3       1 Y02288      0.0000 
     22 C22       -40.7820  -22.7880    3.6420 C.ar      1 Y02288      0.0000 
     23 C23       -42.0280  -22.8220    4.1890 C.ar      1 Y02288      0.0000 
     24 C24       -42.8470  -23.8510    3.8600 C.ar      1 Y02288      0.0000 
     25 C25       -42.4720  -24.8330    3.0000 C.ar      1 Y02288      0.0000 
     26 C26       -41.2250  -24.7930    2.4350 C.ar      1 Y02288      0.0000 
     27 C27       -40.3310  -23.7530    2.7430 C.ar      1 Y02288      0.0000 
     28 C28       -42.4610  -21.7450    5.1730 C.3       1 Y02288      0.0000 
     29 C29       -43.3880  -25.9940    2.6550 C.3       1 Y02288      0.0000 
     30 C30       -38.9080  -23.6480    2.1840 C.3       1 Y02288      0.0000 
     31 H         -38.7026  -18.1265    2.1270 H         1 Y02288      0.0000 
     32 H         -44.7704  -15.8390    4.3945 H         1 Y02288      0.0000 
     33 H         -43.2667  -13.2945    5.0249 H         1 Y02288      0.0000 
     34 H         -43.7566  -14.8603    2.4933 H         1 Y02288      0.0000 
     35 H         -41.1916  -13.6667    3.4715 H         1 Y02288      0.0000 
     36 H         -41.8882  -16.0621    3.9044 H         1 Y02288      0.0000 
     37 H         -39.4462  -15.9891    2.1823 H         1 Y02288      0.0000 
     38 H         -38.7590  -19.6497    4.6928 H         1 Y02288      0.0000 
     39 H         -37.9883  -20.1164    3.1670 H         1 Y02288      0.0000 
     40 H         -40.9757  -20.0107    3.5698 H         1 Y02288      0.0000 
     41 H         -40.0875  -20.6985    2.1994 H         1 Y02288      0.0000 
     42 H         -43.8118  -23.8914    4.2873 H         1 Y02288      0.0000 
     43 H         -40.9231  -25.5280    1.7731 H         1 Y02288      0.0000 
     44 H         -46.3704  -15.4870    7.6298 H         1 Y02288      0.0000 
     45 H         -46.5812  -14.5308    6.3541 H         1 Y02288      0.0000 
     46 H         -46.5213  -16.1263    6.1619 H         1 Y02288      0.0000 
     47 H         -42.9833  -16.6305    6.7024 H         1 Y02288      0.0000 
     48 H         -44.1087  -16.8361    7.8326 H         1 Y02288      0.0000 
     49 H         -44.3577  -17.3834    6.3410 H         1 Y02288      0.0000 
     50 H         -43.0989  -14.0699    7.3194 H         1 Y02288      0.0000 
     51 H         -44.4966  -13.2906    7.1600 H         1 Y02288      0.0000 
     52 H         -44.3016  -14.3572    8.3476 H         1 Y02288      0.0000 
     53 H         -37.4690  -15.6899    4.1812 H         1 Y02288      0.0000 
     54 H         -37.6336  -14.6384    2.9756 H         1 Y02288      0.0000 
     55 H         -37.5854  -14.1172    4.4962 H         1 Y02288      0.0000 
     56 H         -41.8750  -21.7248    5.9831 H         1 Y02288      0.0000 
     57 H         -42.4273  -20.8331    4.7640 H         1 Y02288      0.0000 
     58 H         -43.3977  -21.8886    5.4924 H         1 Y02288      0.0000 
     59 H         -42.9589  -26.6268    2.0104 H         1 Y02288      0.0000 
     60 H         -43.6363  -26.5247    3.4654 H         1 Y02288      0.0000 
     61 H         -44.2409  -25.6824    2.2360 H         1 Y02288      0.0000 
     62 H         -38.2206  -23.6798    2.9096 H         1 Y02288      0.0000 
     63 H         -38.7014  -24.3946    1.5516 H         1 Y02288      0.0000 
     64 H         -38.7674  -22.7933    1.6844 H         1 Y02288      0.0000 
     65 H         -42.8263  -12.1781    2.7337 H         1 Y02288      0.0000 
     66 H         -40.5516  -14.3907    1.2230 H         1 Y02288      0.0000 
@<TRIPOS>BOND
     1   18    1 am   
     2   19    1 1    
     3   31    1 1    
     4   11    2 1    
     5   65    2 1    
     6   13    3 1    
     7   12    4 1    
     8   66    4 1    
     9   18    5 2    
    10   14    6 1    
    11   21    6 1    
    12   20    7 1    
    13   22    7 1    
    14    9    8 1    
    15   15    8 1    
    16   16    8 1    
    17   17    8 1    
    18   10    9 2    
    19   32    9 1    
    20   11   10 1    
    21   33   10 1    
    22   12   11 1    
    23   34   11 1    
    24   13   12 1    
    25   35   12 1    
    26   14   13 1    
    27   36   13 1    
    28   18   14 1    
    29   37   14 1    
    30   44   15 1    
    31   45   15 1    
    32   46   15 1    
    33   47   16 1    
    34   48   16 1    
    35   49   16 1    
    36   50   17 1    
    37   51   17 1    
    38   52   17 1    
    39   20   19 1    
    40   38   19 1    
    41   39   19 1    
    42   40   20 1    
    43   41   20 1    
    44   53   21 1    
    45   54   21 1    
    46   55   21 1    
    47   23   22 ar   
    48   27   22 ar   
    49   24   23 ar   
    50   28   23 1    
    51   25   24 ar   
    52   42   24 1    
    53   26   25 ar   
    54   29   25 1    
    55   27   26 ar   
    56   43   26 1    
    57   30   27 1    
    58   56   28 1    
    59   57   28 1    
    60   58   28 1    
    61   59   29 1    
    62   60   29 1    
    63   61   29 1    
    64   62   30 1    
    65   63   30 1    
    66   64   30 1    
@<TRIPOS>SUBSTRUCTURE
     1 Y02288      1 GROUP   
@<TRIPOS>SET

