#    Name: 4bbp_YU7_1_INTS_M
#    Modification time : Tue Mar 25 07:16:04 2014

@<TRIPOS>MOLECULE
4bbp_YU7_1_INTS_M
   52     0     6     0     0
SMALL
NO_CHARGES


@<TRIPOS>ATOM
      1 CA         50.5560  -12.0620   -8.3040 C.3       2 GLC5        0.0000 
      2 CA         49.9640  -13.8220   -8.3030 C.3       6 GLL5        0.0000 
      3 CA         51.1480  -10.3020   -8.3050 C.3       4 GLP5        0.0000 
      4 CA         50.6020  -13.3595   -6.4155 C.3       2 GLC5        0.0000 
      5 CA         51.2400  -12.8970   -4.5280 C.3       4 GLP5        0.0000 
      6 CA         48.3720  -16.0785  -10.7140 C.3       2 GLC5        0.0000 
      7 CA         48.0350  -13.9470  -10.2810 C.3       6 GLL5        0.0000 
      8 CA         48.7090  -18.2100  -11.1470 C.3       4 GLP5        0.0000 
      9 CA         48.8695  -13.5945   -5.0795 C.3       2 GLC5        0.0000 
     10 CA         47.4870  -13.5690   -6.5190 C.3       6 GLL5        0.0000 
     11 CA         50.2520  -13.6200   -3.6400 C.3       4 GLP5        0.0000 
     12 CA         48.1360  -13.6895   -4.0830 C.3       2 GLC5        0.0000 
     13 CA         46.0200  -13.7590   -4.5260 C.3       6 GLL5        0.0000 
     14 Zn         43.3445  -13.7430   -0.9040 Zn        1 ZIC7        0.0000 
     15 Zn         42.6230  -13.2700   -1.7580 Zn        5 ZIL7        0.0000 
     16 Zn         44.0660  -14.2160   -0.0500 Zn        3 ZIP7        0.0000 
     17 Zn         44.3915  -14.6965   -0.8625 Zn        1 ZIC7        0.0000 
     18 Zn         44.7170  -15.1770   -1.6750 Zn        5 ZIL7        0.0000 
     19 CA         43.2040  -19.2370   -1.4290 C.3       2 GLC5        0.0000 
     20 CA         43.0060  -18.4950   -3.2840 C.3       6 GLL5        0.0000 
     21 CA         43.4020  -19.9790    0.4260 C.3       4 GLP5        0.0000 
     22 CA         43.9465  -20.7135   -6.9015 C.3       2 GLC5        0.0000 
     23 CA         44.0150  -19.3230   -5.3060 C.3       6 GLL5        0.0000 
     24 CA         43.8780  -22.1040   -8.4970 C.3       4 GLP5        0.0000 
     25 CA         46.6785  -17.7200   -6.3135 C.3       2 GLC5        0.0000 
     26 CA         44.6920  -18.1140   -5.4780 C.3       6 GLL5        0.0000 
     27 CA         48.6650  -17.3260   -7.1490 C.3       4 GLP5        0.0000 
     28 CA         48.8907  -15.5742   -7.8768 C.3       2 GLC5        0.0000 
     29 CA         48.2690  -13.8230   -8.9060 C.3       6 GLL5        0.0000 
     30 CA         50.1624  -14.9859   -9.9409 C.3       2 GLC5        0.0000 
     31 CA         51.7490  -16.0870  -10.4390 C.3       4 GLP5        0.0000 
     32 CA         45.3690  -15.2927  -11.1605 C.3       2 GLC5        0.0000 
     33 CA         46.7300  -13.9500  -10.7670 C.3       6 GLL5        0.0000 
     34 CA         44.5430  -16.6970  -11.9990 C.3       4 GLP5        0.0000 
     35 CA         46.2381  -12.0119  -10.4367 C.3       2 GLC5        0.0000 
     36 CA         45.6600  -13.8270   -9.8770 C.3       6 GLL5        0.0000 
     37 CA         45.9550  -10.1360  -10.6730 C.3       4 GLP5        0.0000 
     38 CA         45.9665  -11.7820   -8.7602 C.3       2 GLC5        0.0000 
     39 CA         45.8930  -13.7070   -8.5050 C.3       6 GLL5        0.0000 
     40 CA         45.3850   -9.8550   -9.2630 C.3       4 GLP5        0.0000 
     41 CA         48.0050  -15.4830   -7.2067 C.3       2 GLC5        0.0000 
     42 CA         47.2030  -13.7110   -8.0100 C.3       6 GLL5        0.0000 
     43 CA         47.1585  -16.5120   -6.2060 C.3       2 GLC5        0.0000 
     44 CA         46.0850  -15.5380   -5.7840 C.3       6 GLL5        0.0000 
     45 CA         41.8477  -18.6633   -5.1785 C.3       2 GLC5        0.0000 
     46 CA         43.1750  -19.5220   -4.2100 C.3       6 GLL5        0.0000 
     47 CA         40.6050  -18.3180   -6.6100 C.3       4 GLP5        0.0000 
     48 CA         41.1602  -19.3277   -3.0360 C.3       2 GLC5        0.0000 
     49 CA         39.2300  -19.6470   -2.3250 C.3       4 GLP5        0.0000 
     50 CA         42.4793  -18.5183   -6.0010 C.3       2 GLC5        0.0000 
     51 CA         45.0072  -20.4091   -4.9815 C.3       2 GLC5        0.0000 
     52 CA         45.8710  -22.0500   -4.8450 C.3       4 GLP5        0.0000 
@<TRIPOS>BOND
@<TRIPOS>SUBSTRUCTURE
     1 ZIC7       14 GROUP        1 X    ZIC  0     ROOT ZIC X 5
     2 GLC5        1 GROUP        1 X    GLC  0     **** GLC X 6
     3 ZIP7       16 GROUP        1 Y    ZIP  0     ROOT ZIP Y 12
     4 GLP5        3 GROUP        1 Y    GLP  0     **** GLP Y 13
     5 ZIL7       15 GROUP        1 Z    ZIL  0     ROOT ZIL Z 19
     6 GLL5        2 GROUP        1 Z    GLL  0     **** GLL Z 20
@<TRIPOS>SET

