#    Name: 4bbp_YU7_1_ligand
#    Modification time : Tue Mar 25 07:16:04 2014

@<TRIPOS>MOLECULE
4bbp_YU7_1_ligand
   37    39     1     0     0
SMALL
NO_CHARGES


@<TRIPOS>ATOM
      1 CL         49.9640  -13.8220   -8.3030 Cl        1 YU71315     0.0000 
      2 C10        48.2690  -13.8230   -8.9060 C.ar      1 YU71315     0.0000 
      3 C9         48.0350  -13.9470  -10.2810 C.ar      1 YU71315     0.0000 
      4 C8         46.7300  -13.9500  -10.7670 C.ar      1 YU71315     0.0000 
      5 C7         45.6600  -13.8270   -9.8770 C.ar      1 YU71315     0.0000 
      6 C6         45.8930  -13.7070   -8.5050 C.ar      1 YU71315     0.0000 
      7 C5         47.2030  -13.7110   -8.0100 C.ar      1 YU71315     0.0000 
      8 C4         47.4870  -13.5690   -6.5190 C.3       1 YU71315     0.0000 
      9 N2         46.5470  -14.2810   -5.6380 N.pl3     1 YU71315     0.0000 
     10 C3         46.0200  -13.7590   -4.5260 C.2       1 YU71315     0.0000 
     11 C11        46.0850  -15.5380   -5.7840 C.2       1 YU71315     0.0000 
     12 C12        45.2190  -15.8580   -4.7420 C.2       1 YU71315     0.0000 
     13 C2         45.2010  -14.7150   -3.9510 C.2       1 YU71315     0.0000 
     14 C1         44.3750  -14.6050   -2.7150 C.2       1 YU71315     0.0000 
     15 N1         43.2690  -13.8640   -2.8390 N.am      1 YU71315     0.0000 
     16 O2         42.6230  -13.2700   -1.7580 O.3       1 YU71315     0.0000 
     17 O1         44.7170  -15.1770   -1.6750 O.2       1 YU71315     0.0000 
     18 C13        44.5340  -17.0760   -4.5560 C.ar      1 YU71315     0.0000 
     19 C18        43.6820  -17.2890   -3.4650 C.ar      1 YU71315     0.0000 
     20 C17        43.0060  -18.4950   -3.2840 C.ar      1 YU71315     0.0000 
     21 C16        43.1750  -19.5220   -4.2100 C.ar      1 YU71315     0.0000 
     22 C15        44.0150  -19.3230   -5.3060 C.ar      1 YU71315     0.0000 
     23 C14        44.6920  -18.1140   -5.4780 C.ar      1 YU71315     0.0000 
     24 H          48.8270  -14.0354  -10.9274 H         1 YU71315     0.0000 
     25 H          46.5531  -14.0419  -11.7720 H         1 YU71315     0.0000 
     26 H          44.6953  -13.8248  -10.2343 H         1 YU71315     0.0000 
     27 H          45.1023  -13.6155   -7.8560 H         1 YU71315     0.0000 
     28 H          47.4929  -12.4834   -6.2724 H         1 YU71315     0.0000 
     29 H          48.5262  -13.9217   -6.3323 H         1 YU71315     0.0000 
     30 H          46.1659  -12.8816   -4.1671 H         1 YU71315     0.0000 
     31 H          46.3082  -16.1511   -6.5020 H         1 YU71315     0.0000 
     32 H          42.8453  -13.7074   -3.7976 H         1 YU71315     0.0000 
     33 H          43.5518  -16.5253   -2.7726 H         1 YU71315     0.0000 
     34 H          42.3902  -18.6243   -2.4765 H         1 YU71315     0.0000 
     35 H          42.6886  -20.4132   -4.0884 H         1 YU71315     0.0000 
     36 H          44.1379  -20.0785   -5.9986 H         1 YU71315     0.0000 
     37 H          45.3121  -17.9860   -6.2898 H         1 YU71315     0.0000 
@<TRIPOS>BOND
     1    2    1 1    
     2    3    2 ar   
     3    7    2 ar   
     4    4    3 ar   
     5   24    3 1    
     6    5    4 ar   
     7   25    4 1    
     8    6    5 ar   
     9   26    5 1    
    10    7    6 ar   
    11   27    6 1    
    12    8    7 1    
    13    9    8 1    
    14   28    8 1    
    15   29    8 1    
    16   10    9 1    
    17   11    9 1    
    18   13   10 2    
    19   30   10 1    
    20   12   11 2    
    21   31   11 1    
    22   13   12 1    
    23   18   12 1    
    24   14   13 1    
    25   15   14 am   
    26   17   14 2    
    27   16   15 1    
    28   32   15 1    
    29   19   18 ar   
    30   23   18 ar   
    31   20   19 ar   
    32   33   19 1    
    33   21   20 ar   
    34   34   20 1    
    35   22   21 ar   
    36   35   21 1    
    37   23   22 ar   
    38   36   22 1    
    39   37   23 1    
@<TRIPOS>SUBSTRUCTURE
     1 YU71315     1 GROUP   
@<TRIPOS>SET

