#    Name: 4b7s_QLE_1_INTS_M
#    Modification time : Tue Mar 25 06:56:10 2014

@<TRIPOS>MOLECULE
4b7s_QLE_1_INTS_M
   65     0    12     0     0
SMALL
NO_CHARGES


@<TRIPOS>ATOM
      1 CA        -19.4905   -6.8605    4.8245 C.3       4 GLC5        0.0000 
      2 CA        -20.6210   -5.9480    5.8080 C.3      12 GLL5        0.0000 
      3 CA        -18.3600   -7.7730    3.8410 C.3       8 GLP5        0.0000 
      4 N         -18.5240   -4.8015    9.0355 N.am      2 SEC2        0.0000 
      5 N         -19.8170   -5.3490    9.3410 N.am     10 SEL2        0.0000 
      6 N         -17.2310   -4.2540    8.7300 N.am      6 SEP2        0.0000 
      7 OD1       -20.3800   -6.1505   13.2395 O.co2     3 ASC3        0.0000 
      8 OD1       -20.1940   -7.6140   12.7360 O.co2    11 ASL3        0.0000 
      9 OD1       -20.5660   -4.6870   13.7430 O.co2     7 ASP3        0.0000 
     10 OD1       -21.1820   -6.9065   13.2970 O.co2     3 ASC3        0.0000 
     11 OD1       -22.1700   -6.1990   13.8580 O.co2     7 ASP3        0.0000 
     12 O         -20.3800   -6.1505   13.2395 O.2       1 ALC1        0.0000 
     13 O         -20.1940   -7.6140   12.7360 O.2       9 ALL1        0.0000 
     14 O         -20.5660   -4.6870   13.7430 O.2       5 ALP1        0.0000 
     15 O         -21.1820   -6.9065   13.2970 O.2       1 ALC1        0.0000 
     16 O         -22.1700   -6.1990   13.8580 O.2       5 ALP1        0.0000 
     17 CA        -19.4140   -8.9120   15.0505 C.3       4 GLC5        0.0000 
     18 CA        -19.0050   -7.6910   13.5680 C.3      12 GLL5        0.0000 
     19 CA        -19.8230  -10.1330   16.5330 C.3       8 GLP5        0.0000 
     20 CA        -18.3160   -9.5100   13.6170 C.3       4 GLC5        0.0000 
     21 CA        -17.6270  -11.3290   13.6660 C.3       8 GLP5        0.0000 
     22 CA        -17.0825   -6.7520   13.0900 C.3       4 GLC5        0.0000 
     23 CA        -15.1600   -5.8130   12.6120 C.3       8 GLP5        0.0000 
     24 CA        -18.8160   -6.8960   15.2335 C.3       4 GLC5        0.0000 
     25 CA        -18.6270   -6.1010   16.8990 C.3       8 GLP5        0.0000 
     26 CA        -22.0665   -9.4300   13.7065 C.3       4 GLC5        0.0000 
     27 CA        -20.6700   -8.9920   12.5680 C.3      12 GLL5        0.0000 
     28 CA        -23.4630   -9.8680   14.8450 C.3       8 GLP5        0.0000 
     29 CA        -20.2465   -9.5625   14.5505 C.3       4 GLC5        0.0000 
     30 CA        -19.4030  -10.4750   12.4625 C.3       4 GLC5        0.0000 
     31 CA        -18.1360  -11.9580   12.3570 C.3       8 GLP5        0.0000 
     32 CA        -24.0570   -1.9245    9.9395 C.3       4 GLC5        0.0000 
     33 CA        -22.9190   -3.5040    9.5520 C.3      12 GLL5        0.0000 
     34 CA        -25.1950   -0.3450   10.3270 C.3       8 GLP5        0.0000 
     35 CA        -21.7740   -2.1115    9.8920 C.3       4 GLC5        0.0000 
     36 CA        -20.6290   -0.7190   10.2320 C.3       8 GLP5        0.0000 
     37 CA        -28.1990   -0.8495    4.6820 C.3       4 GLC5        0.0000 
     38 CA        -26.8700   -0.8330    6.2760 C.3      12 GLL5        0.0000 
     39 CA        -29.5280   -0.8660    3.0880 C.3       8 GLP5        0.0000 
     40 CA        -27.0655   -3.6000    7.0100 C.3       4 GLC5        0.0000 
     41 CA        -27.0820   -3.5130    4.9630 C.3      12 GLL5        0.0000 
     42 CA        -27.0490   -3.6870    9.0570 C.3       8 GLP5        0.0000 
     43 CA        -27.0760   -5.0050    5.8460 C.3       4 GLC5        0.0000 
     44 CA        -27.0700   -6.4970    6.7290 C.3       8 GLP5        0.0000 
     45 CA        -25.2063   -6.7885    5.9855 C.3       4 GLC5        0.0000 
     46 CA        -23.1950   -6.9980    4.5370 C.3      12 GLL5        0.0000 
     47 CA        -20.4906   -4.2736    5.7908 C.3       4 GLC5        0.0000 
     48 CA        -21.9940   -5.4310    6.2240 C.3      12 GLL5        0.0000 
     49 CA        -19.3600   -3.2410    4.7360 C.3       8 GLP5        0.0000 
     50 CA        -25.0375   -3.7438    8.9552 C.3       4 GLC5        0.0000 
     51 CA        -23.1330   -4.0970    8.1550 C.3      12 GLL5        0.0000 
     52 CA        -23.5480   -0.4160    5.6043 C.3       4 GLC5        0.0000 
     53 CA        -24.9560   -2.0550    5.4960 C.3      12 GLL5        0.0000 
     54 CA        -21.9030    0.5580    5.4020 C.3       8 GLP5        0.0000 
     55 CA        -25.8443   -1.2378    3.3438 C.3       4 GLC5        0.0000 
     56 CA        -26.3000   -0.0530    1.7090 C.3       8 GLP5        0.0000 
     57 CA        -25.6725   -0.5620    8.2617 C.3       4 GLC5        0.0000 
     58 CA        -26.5403   -2.3992    7.5491 C.3       4 GLC5        0.0000 
     59 CA        -27.9898   -2.0088    3.9000 C.3       4 GLC5        0.0000 
     60 CA        -26.5688   -4.2722    2.9450 C.3       4 GLC5        0.0000 
     61 CA        -26.6860   -5.3930    1.1780 C.3       8 GLP5        0.0000 
     62 CA        -25.9355   -5.4575    5.4190 C.3       4 GLC5        0.0000 
     63 CA        -24.7890   -3.7750    4.0010 C.3      12 GLL5        0.0000 
     64 CA        -25.7435   -4.9055    2.6435 C.3       4 GLC5        0.0000 
     65 CA        -24.8130   -5.0610    4.2170 C.3      12 GLL5        0.0000 
@<TRIPOS>BOND
@<TRIPOS>SUBSTRUCTURE
     1 ALC1       12 GROUP        1 X    ALC  0     ROOT ALC X 1
     2 SEC2        4 GROUP        1 X    SEC  0     **** SEC X 2
     3 ASC3        7 GROUP        1 X    ASC  0     **** ASC X 3
     4 GLC5        1 GROUP        1 X    GLC  0     **** GLC X 6
     5 ALP1       14 GROUP        1 Y    ALP  0     ROOT ALP Y 8
     6 SEP2        6 GROUP        1 Y    SEP  0     **** SEP Y 9
     7 ASP3        9 GROUP        1 Y    ASP  0     **** ASP Y 10
     8 GLP5        3 GROUP        1 Y    GLP  0     **** GLP Y 13
     9 ALL1       13 GROUP        1 Z    ALL  0     ROOT ALL Z 15
    10 SEL2        5 GROUP        1 Z    SEL  0     **** SEL Z 16
    11 ASL3        8 GROUP        1 Z    ASL  0     **** ASL Z 17
    12 GLL5        2 GROUP        1 Z    GLL  0     **** GLL Z 20
@<TRIPOS>SET

