#    Name: 4b7s_QLE_1_ligand
#    Modification time : Tue Mar 25 06:56:10 2014

@<TRIPOS>MOLECULE
4b7s_QLE_1_ligand
   66    66     1     0     0
SMALL
NO_CHARGES


@<TRIPOS>ATOM
      1 O5        -22.9760   -5.3610    2.7340 O.2       1 QLE1408     0.0000 
      2 C22       -23.6190   -5.7840    3.7200 C.2       1 QLE1408     0.0000 
      3 C20       -23.1950   -6.9980    4.5370 C.3       1 QLE1408     0.0000 
      4 C21       -24.2070   -8.1340    4.3950 C.3       1 QLE1408     0.0000 
      5 C19       -22.9840   -6.5940    6.0180 C.3       1 QLE1408     0.0000 
      6 C17       -21.9940   -5.4310    6.2240 C.3       1 QLE1408     0.0000 
      7 C18       -20.6210   -5.9480    5.8080 C.3       1 QLE1408     0.0000 
      8 C11       -21.9350   -4.9230    7.6750 C.3       1 QLE1408     0.0000 
      9 O3        -21.8340   -6.0780    8.4880 O.3       1 QLE1408     0.0000 
     10 C12       -20.7640   -6.1000    9.4450 C.2       1 QLE1408     0.0000 
     11 O4        -19.8170   -5.3490    9.3410 O.2       1 QLE1408     0.0000 
     12 C13       -20.9390   -7.0610   10.5750 C.3       1 QLE1408     0.0000 
     13 C14       -19.7170   -7.0960   11.4660 C.3       1 QLE1408     0.0000 
     14 N         -20.1940   -7.6140   12.7360 N.4       1 QLE1408     0.0000 
     15 C16       -19.0050   -7.6910   13.5680 C.3       1 QLE1408     0.0000 
     16 C15       -20.6700   -8.9920   12.5680 C.3       1 QLE1408     0.0000 
     17 C9        -23.1330   -4.0970    8.1550 C.3       1 QLE1408     0.0000 
     18 C10       -22.9190   -3.5040    9.5520 C.3       1 QLE1408     0.0000 
     19 C8        -23.3710   -2.9800    7.1800 C.2       1 QLE1408     0.0000 
     20 O2        -22.4850   -2.1400    6.9440 O.2       1 QLE1408     0.0000 
     21 O1        -24.6720   -3.0130    6.5320 O.3       1 QLE1408     0.0000 
     22 C5        -24.9560   -2.0550    5.4960 C.3       1 QLE1408     0.0000 
     23 C6        -25.4300   -0.7250    6.1170 C.3       1 QLE1408     0.0000 
     24 C7        -26.8700   -0.8330    6.2760 C.3       1 QLE1408     0.0000 
     25 C3        -25.8210   -2.7900    4.4610 C.3       1 QLE1408     0.0000 
     26 C4        -27.0820   -3.5130    4.9630 C.3       1 QLE1408     0.0000 
     27 C2        -24.7890   -3.7750    4.0010 C.2       1 QLE1408     0.0000 
     28 C1        -24.8130   -5.0610    4.2170 C.2       1 QLE1408     0.0000 
     29 H         -22.2330   -7.3442    4.1519 H         1 QLE1408     0.0000 
     30 H         -22.6227   -7.4725    6.5731 H         1 QLE1408     0.0000 
     31 H         -23.9576   -6.3139    6.4472 H         1 QLE1408     0.0000 
     32 H         -22.2626   -4.6269    5.5683 H         1 QLE1408     0.0000 
     33 H         -21.0334   -4.3242    7.7822 H         1 QLE1408     0.0000 
     34 H         -21.1225   -8.0680   10.1806 H         1 QLE1408     0.0000 
     35 H         -21.8107   -6.7730   11.1753 H         1 QLE1408     0.0000 
     36 H         -19.3315   -6.0974   11.5690 H         1 QLE1408     0.0000 
     37 H         -18.9832   -7.7480   11.0266 H         1 QLE1408     0.0000 
     38 H         -20.9136   -6.9998   13.1657 H         1 QLE1408     0.0000 
     39 H         -24.0058   -4.7307    8.1754 H         1 QLE1408     0.0000 
     40 H         -23.9708   -1.8460    4.9865 H         1 QLE1408     0.0000 
     41 H         -25.1614    0.0734    5.4435 H         1 QLE1408     0.0000 
     42 H         -24.9316   -0.6021    7.0655 H         1 QLE1408     0.0000 
     43 H         -26.0230   -2.1311    3.6589 H         1 QLE1408     0.0000 
     44 H         -23.9958   -3.3094    3.4557 H         1 QLE1408     0.0000 
     45 H         -25.5213   -5.5912    4.6638 H         1 QLE1408     0.0000 
     46 H         -24.3012   -8.4309    3.4447 H         1 QLE1408     0.0000 
     47 H         -23.9409   -8.9372    4.9280 H         1 QLE1408     0.0000 
     48 H         -25.1168   -7.8623    4.7087 H         1 QLE1408     0.0000 
     49 H         -19.9130   -5.2500    5.9157 H         1 QLE1408     0.0000 
     50 H         -20.3401   -6.7371    6.3543 H         1 QLE1408     0.0000 
     51 H         -20.6067   -6.2347    4.8501 H         1 QLE1408     0.0000 
     52 H         -18.3145   -8.2974   13.1738 H         1 QLE1408     0.0000 
     53 H         -18.5757   -6.7956   13.6861 H         1 QLE1408     0.0000 
     54 H         -19.2132   -8.0390   14.4821 H         1 QLE1408     0.0000 
     55 H         -19.9466   -9.5968   12.2351 H         1 QLE1408     0.0000 
     56 H         -21.0016   -9.3779   13.4289 H         1 QLE1408     0.0000 
     57 H         -21.4232   -9.0474   11.9125 H         1 QLE1408     0.0000 
     58 H         -22.7662   -4.2154   10.2380 H         1 QLE1408     0.0000 
     59 H         -22.1262   -2.8951    9.5796 H         1 QLE1408     0.0000 
     60 H         -23.7090   -2.9704    9.8540 H         1 QLE1408     0.0000 
     61 H         -27.1215   -1.5935    6.8746 H         1 QLE1408     0.0000 
     62 H         -27.2629   -0.0041    6.6743 H         1 QLE1408     0.0000 
     63 H         -27.3300   -0.9842    5.4010 H         1 QLE1408     0.0000 
     64 H         -26.8618   -4.2211    5.6339 H         1 QLE1408     0.0000 
     65 H         -27.7219   -2.8822    5.4019 H         1 QLE1408     0.0000 
     66 H         -27.5759   -3.9595    4.2169 H         1 QLE1408     0.0000 
@<TRIPOS>BOND
     1    2    1 2    
     2    3    2 1    
     3   28    2 1    
     4    4    3 1    
     5    5    3 1    
     6   29    3 1    
     7   46    4 1    
     8   47    4 1    
     9   48    4 1    
    10    6    5 1    
    11   30    5 1    
    12   31    5 1    
    13    7    6 1    
    14    8    6 1    
    15   32    6 1    
    16   49    7 1    
    17   50    7 1    
    18   51    7 1    
    19    9    8 1    
    20   17    8 1    
    21   33    8 1    
    22   10    9 1    
    23   11   10 2    
    24   12   10 1    
    25   13   12 1    
    26   34   12 1    
    27   35   12 1    
    28   14   13 1    
    29   36   13 1    
    30   37   13 1    
    31   15   14 1    
    32   16   14 1    
    33   38   14 1    
    34   52   15 1    
    35   53   15 1    
    36   54   15 1    
    37   55   16 1    
    38   56   16 1    
    39   57   16 1    
    40   18   17 1    
    41   19   17 1    
    42   39   17 1    
    43   58   18 1    
    44   59   18 1    
    45   60   18 1    
    46   20   19 2    
    47   21   19 1    
    48   22   21 1    
    49   23   22 1    
    50   25   22 1    
    51   40   22 1    
    52   24   23 1    
    53   41   23 1    
    54   42   23 1    
    55   61   24 1    
    56   62   24 1    
    57   63   24 1    
    58   26   25 1    
    59   27   25 1    
    60   43   25 1    
    61   64   26 1    
    62   65   26 1    
    63   66   26 1    
    64   28   27 2    
    65   44   27 1    
    66   45   28 1    
@<TRIPOS>SUBSTRUCTURE
     1 QLE1408     1 GROUP   
@<TRIPOS>SET

