#    Name: 3vdq_NAD_4_INTS_M
#    Modification time : Tue Mar 25 00:40:58 2014

@<TRIPOS>MOLECULE
3vdq_NAD_4_INTS_M
   93     0     9     0     0
SMALL
NO_CHARGES


@<TRIPOS>ATOM
      1 CA         22.4575   39.3740   21.1205 C.3       3 GLC5        0.0000 
      2 CA         21.7010   37.6810   20.6910 C.3       9 GLL5        0.0000 
      3 CA         23.2140   41.0670   21.5500 C.3       6 GLP5        0.0000 
      4 N          24.2780   35.6275   20.7550 N.am      2 SEC2        0.0000 
      5 N          23.9000   37.0330   21.4100 N.am      8 SEL2        0.0000 
      6 N          24.6560   34.2220   20.1000 N.am      5 SEP2        0.0000 
      7 O          25.0995   36.8925   22.2660 O.2       1 ALC1        0.0000 
      8 O          23.9000   37.0330   21.4100 O.2       7 ALL1        0.0000 
      9 O          26.2990   36.7520   23.1220 O.2       4 ALP1        0.0000 
     10 CA         22.4510   39.5340   22.3560 C.3       3 GLC5        0.0000 
     11 CA         21.6880   38.0010   23.1620 C.3       9 GLL5        0.0000 
     12 CA         23.3525   38.8265   24.2460 C.3       3 GLC5        0.0000 
     13 CA         25.0170   39.6520   25.3300 C.3       6 GLP5        0.0000 
     14 CA         17.8315   39.9340   24.9200 C.3       3 GLC5        0.0000 
     15 CA         19.5300   39.3560   25.7570 C.3       9 GLL5        0.0000 
     16 CA         16.1330   40.5120   24.0830 C.3       6 GLP5        0.0000 
     17 CA         19.8020   41.5275   28.4635 C.3       3 GLC5        0.0000 
     18 CA         19.2550   40.5080   26.5490 C.3       9 GLL5        0.0000 
     19 CA         20.3490   42.5470   30.3780 C.3       6 GLP5        0.0000 
     20 CA         17.9935   41.6950   25.5805 C.3       3 GLC5        0.0000 
     21 CA         16.7320   42.8820   24.6120 C.3       6 GLP5        0.0000 
     22 O          18.0560   41.0100   28.8075 O.2       1 ALC1        0.0000 
     23 O          18.3080   40.4810   27.5800 O.2       7 ALL1        0.0000 
     24 O          17.8040   41.5390   30.0350 O.2       4 ALP1        0.0000 
     25 N          19.7465   42.7795   27.4225 N.am      2 SEC2        0.0000 
     26 N          19.9850   41.6450   26.2840 N.am      8 SEL2        0.0000 
     27 N          19.5080   43.9140   28.5610 N.am      5 SEP2        0.0000 
     28 CA         22.0710   41.3850   23.4325 C.3       3 GLC5        0.0000 
     29 CA         20.9280   41.7030   25.3150 C.3       9 GLL5        0.0000 
     30 CA         20.8855   43.4440   24.9725 C.3       3 GLC5        0.0000 
     31 CA         20.8430   45.1850   24.6300 C.3       6 GLP5        0.0000 
     32 CA         20.2230   42.1535   23.7290 C.3       3 GLC5        0.0000 
     33 CA         19.5180   42.6040   22.1430 C.3       6 GLP5        0.0000 
     34 CA         18.8300   42.2925   24.9635 C.3       3 GLC5        0.0000 
     35 CA         21.8555   40.2845   23.1495 C.3       3 GLC5        0.0000 
     36 CA         20.4970   39.5020   24.7490 C.3       9 GLL5        0.0000 
     37 CA         20.0075   41.0530   23.4460 C.3       3 GLC5        0.0000 
     38 N          19.0880   34.2190   14.7075 N.am      2 SEC2        0.0000 
     39 N          18.7840   35.4220   15.1490 N.am      8 SEL2        0.0000 
     40 N          19.3920   33.0160   14.2660 N.am      5 SEP2        0.0000 
     41 N          22.1015   36.7140   15.1815 N.am      2 SEC2        0.0000 
     42 N          20.7880   36.4440   15.9780 N.am      8 SEL2        0.0000 
     43 N          23.4150   36.9840   14.3850 N.am      5 SEP2        0.0000 
     44 CA         20.7510   38.7795   14.7495 C.3       3 GLC5        0.0000 
     45 CA         19.4060   38.8400   16.2700 C.3       9 GLL5        0.0000 
     46 CA         22.0960   38.7190   13.2290 C.3       6 GLP5        0.0000 
     47 CA         19.1870   39.0175   13.9040 C.3       3 GLC5        0.0000 
     48 CA         18.4800   39.9420   15.7090 C.3       9 GLL5        0.0000 
     49 CA         19.8940   38.0930   12.0990 C.3       6 GLP5        0.0000 
     50 CA         18.4005   41.4100   14.4695 C.3       3 GLC5        0.0000 
     51 CA         18.3210   42.8780   13.2300 C.3       6 GLP5        0.0000 
     52 CA         16.6575   40.0445   18.3940 C.3       3 GLC5        0.0000 
     53 CA         17.1810   40.0150   16.5290 C.3       9 GLL5        0.0000 
     54 CA         16.1340   40.0740   20.2590 C.3       6 GLP5        0.0000 
     55 N          15.2835   41.7815   16.4705 N.am      2 SEC2        0.0000 
     56 N          16.4730   41.1270   17.1920 N.am      8 SEL2        0.0000 
     57 N          14.0940   42.4360   15.7490 N.am      5 SEP2        0.0000 
     58 O          17.6215   41.6445   17.6125 O.2       1 ALC1        0.0000 
     59 O          16.4730   41.1270   17.1920 O.2       7 ALL1        0.0000 
     60 O          18.7700   42.1620   18.0330 O.2       4 ALP1        0.0000 
     61 CA         14.4600   40.4890   15.6085 C.3       3 GLC5        0.0000 
     62 CA         16.1680   39.1490   15.7280 C.3       9 GLL5        0.0000 
     63 CA         12.7520   41.8290   15.4890 C.3       6 GLP5        0.0000 
     64 CA         15.9495   37.0665   16.5470 C.3       3 GLC5        0.0000 
     65 CA         15.7310   34.9840   17.3660 C.3       6 GLP5        0.0000 
     66 N          14.5420   41.2000   15.6315 N.am      2 SEC2        0.0000 
     67 N          14.9900   39.9640   15.5140 N.am      8 SEL2        0.0000 
     68 O          13.9385   39.2865   15.0260 O.2       1 ALC1        0.0000 
     69 O          14.9900   39.9640   15.5140 O.2       7 ALL1        0.0000 
     70 O          12.8870   38.6090   14.5380 O.2       4 ALP1        0.0000 
     71 CA         18.2865   38.7890   13.2310 C.3       3 GLC5        0.0000 
     72 CA         16.6790   39.4850   14.3630 C.3       9 GLL5        0.0000 
     73 CA         17.5000   41.1815   13.7965 C.3       3 GLC5        0.0000 
     74 CA         17.7510   35.8420   10.7150 C.3       3 GLC5        0.0000 
     75 CA         16.1670   36.6110   11.9810 C.3       9 GLL5        0.0000 
     76 CA         19.3350   35.0730    9.4490 C.3       6 GLP5        0.0000 
     77 N          16.7195   34.2085    9.6560 N.am      2 SEC2        0.0000 
     78 N          16.0930   34.5630   10.7530 N.am      8 SEL2        0.0000 
     79 N          17.3460   33.8540    8.5590 N.am      5 SEP2        0.0000 
     80 O          17.8110   33.5305   11.6445 O.2       1 ALC1        0.0000 
     81 O          17.3520   34.5780   12.6600 O.2       7 ALL1        0.0000 
     82 O          18.2700   32.4830   10.6290 O.2       4 ALP1        0.0000 
     83 CA         15.7920   40.5825   10.7220 C.3       3 GLC5        0.0000 
     84 CA         15.3660   39.3790   12.2850 C.3       9 GLL5        0.0000 
     85 CA         16.2180   41.7860    9.1590 C.3       6 GLP5        0.0000 
     86 CA         18.1390   37.5363   12.3115 C.3       3 GLC5        0.0000 
     87 CA         16.6010   37.3480   13.0670 C.3       9 GLL5        0.0000 
     88 CA         16.1242   38.9057    9.6068 C.3       3 GLC5        0.0000 
     89 CA         15.3080   37.2220   10.9890 C.3       9 GLL5        0.0000 
     90 CA         17.1380   39.8860    8.1400 C.3       6 GLP5        0.0000 
     91 CA         13.6092   40.0325   11.6252 C.3       3 GLC5        0.0000 
     92 CA         14.9130   38.6290   11.1580 C.3       9 GLL5        0.0000 
     93 CA         12.0790   41.0610   11.5290 C.3       6 GLP5        0.0000 
@<TRIPOS>BOND
@<TRIPOS>SUBSTRUCTURE
     1 ALC1        7 GROUP        1 X    ALC  0     ROOT ALC X 1
     2 SEC2        4 GROUP        1 X    SEC  0     **** SEC X 2
     3 GLC5        1 GROUP        1 X    GLC  0     **** GLC X 6
     4 ALP1        9 GROUP        1 Y    ALP  0     ROOT ALP Y 8
     5 SEP2        6 GROUP        1 Y    SEP  0     **** SEP Y 9
     6 GLP5        3 GROUP        1 Y    GLP  0     **** GLP Y 13
     7 ALL1        8 GROUP        1 Z    ALL  0     ROOT ALL Z 15
     8 SEL2        5 GROUP        1 Z    SEL  0     **** SEL Z 16
     9 GLL5        2 GROUP        1 Z    GLL  0     **** GLL Z 20
@<TRIPOS>SET

