#    Name: 3vdq_NAD_4_ligand
#    Modification time : Tue Mar 25 00:40:58 2014

@<TRIPOS>MOLECULE
3vdq_NAD_4_ligand
   70    74     1     0     0
SMALL
NO_CHARGES


@<TRIPOS>ATOM
      1 PA         20.3650   34.8350   18.4050 P.3       1 NAD303      0.0000 
      2 O1A        19.7090   33.9600   19.3410 O.co2     1 NAD303      0.0000 
      3 O2A        21.2140   34.0560   17.4590 O.co2     1 NAD303      0.0000 
      4 O5B        21.0280   36.1120   19.0280 O.3       1 NAD303      0.0000 
      5 C5B        20.4510   36.9020   20.1330 C.3       1 NAD303      0.0000 
      6 C4B        21.7010   37.6810   20.6910 C.3       1 NAD303      0.0000 
      7 O4B        21.1600   38.4980   21.8310 O.3       1 NAD303      0.0000 
      8 C3B        22.5150   36.6250   21.3600 C.3       1 NAD303      0.0000 
      9 O3B        23.9000   37.0330   21.4100 O.3       1 NAD303      0.0000 
     10 C2B        21.8760   36.5630   22.7250 C.3       1 NAD303      0.0000 
     11 O2B        22.5800   35.8030   23.7500 O.3       1 NAD303      0.0000 
     12 C1B        21.6880   38.0010   23.1620 C.3       1 NAD303      0.0000 
     13 N9A        20.6100   38.3000   24.0600 N.pl3     1 NAD303      0.0000 
     14 C8A        19.8030   37.4340   24.8540 C.2       1 NAD303      0.0000 
     15 N7A        19.0780   38.0730   25.7720 N.2       1 NAD303      0.0000 
     16 C5A        19.5300   39.3560   25.7570 C.ar      1 NAD303      0.0000 
     17 C6A        19.2550   40.5080   26.5490 C.ar      1 NAD303      0.0000 
     18 N6A        18.3080   40.4810   27.5800 N.pl3     1 NAD303      0.0000 
     19 N1A        19.9850   41.6450   26.2840 N.ar      1 NAD303      0.0000 
     20 C2A        20.9280   41.7030   25.3150 C.ar      1 NAD303      0.0000 
     21 N3A        21.2350   40.6340   24.4810 N.ar      1 NAD303      0.0000 
     22 C4A        20.4970   39.5020   24.7490 C.ar      1 NAD303      0.0000 
     23 O3         19.1110   35.4170   17.5690 O.3       1 NAD303      0.0000 
     24 PN         19.3700   36.2240   16.2160 P.3       1 NAD303      0.0000 
     25 O1N        18.7840   35.4220   15.1490 O.co2     1 NAD303      0.0000 
     26 O2N        20.7880   36.4440   15.9780 O.co2     1 NAD303      0.0000 
     27 O5D        18.6070   37.6320   16.3000 O.3       1 NAD303      0.0000 
     28 C5D        19.4060   38.8400   16.2700 C.3       1 NAD303      0.0000 
     29 C4D        18.4800   39.9420   15.7090 C.3       1 NAD303      0.0000 
     30 O4D        18.0970   39.4970   14.3450 O.3       1 NAD303      0.0000 
     31 C3D        17.1810   40.0150   16.5290 C.3       1 NAD303      0.0000 
     32 O3D        16.4730   41.1270   17.1920 O.3       1 NAD303      0.0000 
     33 C2D        16.1680   39.1490   15.7280 C.3       1 NAD303      0.0000 
     34 O2D        14.9900   39.9640   15.5140 O.3       1 NAD303      0.0000 
     35 C1D        16.6790   39.4850   14.3630 C.3       1 NAD303      0.0000 
     36 N1N        16.2020   38.6960   13.2060 N.pl3     1 NAD303      0.0000 
     37 C2N        16.6010   37.3480   13.0670 C.ar      1 NAD303      0.0000 
     38 C3N        16.1670   36.6110   11.9810 C.ar      1 NAD303      0.0000 
     39 C7N        16.5460   35.1890   11.7750 C.2       1 NAD303      0.0000 
     40 O7N        16.0930   34.5630   10.7530 O.2       1 NAD303      0.0000 
     41 N7N        17.3520   34.5780   12.6600 N.am      1 NAD303      0.0000 
     42 C4N        15.3080   37.2220   10.9890 C.ar      1 NAD303      0.0000 
     43 C5N        14.9130   38.6290   11.1580 C.ar      1 NAD303      0.0000 
     44 C6N        15.3660   39.3790   12.2850 C.ar      1 NAD303      0.0000 
     45 H          20.0809   36.2851   20.9081 H         1 NAD303      0.0000 
     46 H          19.7528   37.6160   19.7852 H         1 NAD303      0.0000 
     47 H          22.1621   38.1896   19.9977 H         1 NAD303      0.0000 
     48 H          22.3600   35.7080   20.8635 H         1 NAD303      0.0000 
     49 H          20.8530   36.1602   22.5889 H         1 NAD303      0.0000 
     50 H          22.5797   38.4639   23.3324 H         1 NAD303      0.0000 
     51 H          19.8136   36.4567   24.7008 H         1 NAD303      0.0000 
     52 H          17.5328   39.8629   27.4493 H         1 NAD303      0.0000 
     53 H          18.4880   41.0821   28.3586 H         1 NAD303      0.0000 
     54 H          21.4681   42.6020   25.1727 H         1 NAD303      0.0000 
     55 H          20.2504   38.7471   15.6099 H         1 NAD303      0.0000 
     56 H          19.7200   39.1388   17.2546 H         1 NAD303      0.0000 
     57 H          18.9637   40.8538   15.6925 H         1 NAD303      0.0000 
     58 H          17.3964   39.2077   17.4146 H         1 NAD303      0.0000 
     59 H          16.1061   38.2670   15.9187 H         1 NAD303      0.0000 
     60 H          16.3578   40.5655   14.1614 H         1 NAD303      0.0000 
     61 H          17.2108   36.9300   13.7767 H         1 NAD303      0.0000 
     62 H          17.5920   33.6292   12.4546 H         1 NAD303      0.0000 
     63 H          17.6397   35.1267   13.4450 H         1 NAD303      0.0000 
     64 H          14.9832   36.7059   10.1991 H         1 NAD303      0.0000 
     65 H          14.3145   39.0517   10.4589 H         1 NAD303      0.0000 
     66 H          15.1074   40.3286   12.4140 H         1 NAD303      0.0000 
     67 H          24.2369   36.6977   22.2899 H         1 NAD303      0.0000 
     68 H          23.5437   36.0437   23.6344 H         1 NAD303      0.0000 
     69 H          17.1943   41.6840   17.6037 H         1 NAD303      0.0000 
     70 H          14.2310   39.3146   15.4685 H         1 NAD303      0.0000 
@<TRIPOS>BOND
     1    2    1 ar   
     2    3    1 ar   
     3    4    1 1    
     4   23    1 1    
     5    5    4 1    
     6    6    5 1    
     7   45    5 1    
     8   46    5 1    
     9    7    6 1    
    10    8    6 1    
    11   47    6 1    
    12   12    7 1    
    13    9    8 1    
    14   10    8 1    
    15   48    8 1    
    16   67    9 1    
    17   11   10 1    
    18   12   10 1    
    19   49   10 1    
    20   68   11 1    
    21   13   12 1    
    22   50   12 1    
    23   14   13 1    
    24   22   13 1    
    25   15   14 2    
    26   51   14 1    
    27   16   15 1    
    28   17   16 ar   
    29   22   16 ar   
    30   18   17 1    
    31   19   17 ar   
    32   52   18 1    
    33   53   18 1    
    34   20   19 ar   
    35   21   20 ar   
    36   54   20 1    
    37   22   21 ar   
    38   24   23 1    
    39   25   24 ar   
    40   26   24 ar   
    41   27   24 1    
    42   28   27 1    
    43   29   28 1    
    44   55   28 1    
    45   56   28 1    
    46   30   29 1    
    47   31   29 1    
    48   57   29 1    
    49   35   30 1    
    50   32   31 1    
    51   33   31 1    
    52   58   31 1    
    53   69   32 1    
    54   34   33 1    
    55   35   33 1    
    56   59   33 1    
    57   70   34 1    
    58   36   35 1    
    59   60   35 1    
    60   37   36 ar   
    61   44   36 ar   
    62   38   37 ar   
    63   61   37 1    
    64   39   38 1    
    65   42   38 ar   
    66   40   39 2    
    67   41   39 am   
    68   62   41 1    
    69   63   41 1    
    70   43   42 ar   
    71   64   42 1    
    72   44   43 ar   
    73   65   43 1    
    74   66   44 1    
@<TRIPOS>SUBSTRUCTURE
     1 NAD303      1 GROUP   
@<TRIPOS>SET

