#    Name: 1zg3_2HI_1_INTS_M
#    Modification time : Tue Mar 25 11:44:10 2014

@<TRIPOS>MOLECULE
1zg3_2HI_1_INTS_M
   36     0     3     0     0
SMALL
NO_CHARGES


@<TRIPOS>ATOM
      1 CA        103.5010   72.5715   35.0585 C.3       1 GLC5        0.0000 
      2 CA        103.2510   74.4330   34.2800 C.3       3 GLL5        0.0000 
      3 CA        103.7510   70.7100   35.8370 C.3       2 GLP5        0.0000 
      4 CA        101.9370   72.9360   34.6235 C.3       1 GLC5        0.0000 
      5 CA        100.6230   71.4390   34.9670 C.3       2 GLP5        0.0000 
      6 CA        102.5720   76.1275   28.5785 C.3       1 GLC5        0.0000 
      7 CA        103.0300   74.0780   29.0310 C.3       3 GLL5        0.0000 
      8 CA        102.1140   78.1770   28.1260 C.3       2 GLP5        0.0000 
      9 CA        100.7255   79.2625   35.5270 C.3       1 GLC5        0.0000 
     10 CA        101.8750   78.4070   33.7060 C.3       3 GLL5        0.0000 
     11 CA        100.2240   79.9510   37.1330 C.3       2 GLP5        0.0000 
     12 CA        101.5555   80.1795   33.0780 C.3       1 GLC5        0.0000 
     13 CA        100.5790   78.7410   34.1360 C.3       3 GLL5        0.0000 
     14 CA        101.8840   81.7850   32.2350 C.3       2 GLP5        0.0000 
     15 CA        102.4022   77.4537   35.7887 C.3       1 GLC5        0.0000 
     16 CA        102.7220   77.1760   37.8580 C.3       2 GLP5        0.0000 
     17 CA        102.2802   78.1308   31.8027 C.3       1 GLC5        0.0000 
     18 CA        102.2900   77.0560   33.7330 C.3       3 GLL5        0.0000 
     19 CA        102.4780   78.5300   29.8860 C.3       2 GLP5        0.0000 
     20 CA         99.9888   74.3015   34.4653 C.3       1 GLC5        0.0000 
     21 CA        101.4150   76.0120   34.2140 C.3       3 GLL5        0.0000 
     22 CA         99.2090   72.4030   34.5020 C.3       2 GLP5        0.0000 
     23 CA        100.0653   78.5092   35.8778 C.3       1 GLC5        0.0000 
     24 CA        100.1220   76.3880   34.6430 C.3       3 GLL5        0.0000 
     25 CA        101.4759   77.0747   36.1866 C.3       1 GLC5        0.0000 
     26 CA         99.6910   77.7470   34.6020 C.3       3 GLL5        0.0000 
     27 CA        104.0367   72.9103   32.8180 C.3       1 GLC5        0.0000 
     28 CA        104.4420   70.9940   31.8940 C.3       2 GLP5        0.0000 
     29 CA        103.7172   72.7965   31.7267 C.3       1 GLC5        0.0000 
     30 CA        103.6600   74.7960   31.7560 C.3       3 GLL5        0.0000 
     31 CA        103.4847   72.5293   30.7105 C.3       1 GLC5        0.0000 
     32 CA        102.0250   74.0510   30.0230 C.3       3 GLL5        0.0000 
     33 CA        104.4750   72.8170   30.9862 C.3       1 GLC5        0.0000 
     34 CA        104.3520   74.4620   29.4060 C.3       3 GLL5        0.0000 
     35 CA        103.1531   76.6193   30.5206 C.3       1 GLC5        0.0000 
     36 CA        104.6640   74.8180   30.7510 C.3       3 GLL5        0.0000 
@<TRIPOS>BOND
@<TRIPOS>SUBSTRUCTURE
     1 GLC5        1 GROUP        1 X    GLC  0     ROOT GLC X 6
     2 GLP5        3 GROUP        1 Y    GLP  0     ROOT GLP Y 13
     3 GLL5        2 GROUP        1 Z    GLL  0     ROOT GLL Z 20
@<TRIPOS>SET

