#    Name: 1zg3_2HI_1_ligand
#    Modification time : Tue Mar 25 11:44:10 2014

@<TRIPOS>MOLECULE
1zg3_2HI_1_ligand
   32    34     1     0     0
SMALL
NO_CHARGES


@<TRIPOS>ATOM
      1 C1        100.5790   78.7410   34.1360 C.ar      1 2HI365      0.0000 
      2 C2        101.8750   78.4070   33.7060 C.ar      1 2HI365      0.0000 
      3 C3        102.2900   77.0560   33.7330 C.ar      1 2HI365      0.0000 
      4 C4        101.4150   76.0120   34.2140 C.ar      1 2HI365      0.0000 
      5 C5        100.1220   76.3880   34.6430 C.ar      1 2HI365      0.0000 
      6 C6         99.6910   77.7470   34.6020 C.ar      1 2HI365      0.0000 
      7 O1        101.8160   74.6720   34.2640 O.3       1 2HI365      0.0000 
      8 C7        103.6580   76.7150   33.2410 C.2       1 2HI365      0.0000 
      9 O2        104.4420   77.5680   32.8360 O.2       1 2HI365      0.0000 
     10 C8        104.0120   75.2200   33.2040 C.3       1 2HI365      0.0000 
     11 C9        103.2510   74.4330   34.2800 C.3       1 2HI365      0.0000 
     12 O3        103.6170   74.8180   35.6010 O.3       1 2HI365      0.0000 
     13 C10       103.6600   74.7960   31.7560 C.ar      1 2HI365      0.0000 
     14 C11       102.3250   74.4020   31.3630 C.ar      1 2HI365      0.0000 
     15 C12       102.0250   74.0510   30.0230 C.ar      1 2HI365      0.0000 
     16 C13       103.0300   74.0780   29.0310 C.ar      1 2HI365      0.0000 
     17 C14       104.3520   74.4620   29.4060 C.ar      1 2HI365      0.0000 
     18 C15       104.6640   74.8180   30.7510 C.ar      1 2HI365      0.0000 
     19 O4        102.7420   73.7480   27.7510 O.3       1 2HI365      0.0000 
     20 O5         98.4550   78.0890   35.0030 O.3       1 2HI365      0.0000 
     21 H         100.2708   79.7220   34.1119 H         1 2HI365      0.0000 
     22 H         102.5123   79.1297   33.3771 H         1 2HI365      0.0000 
     23 H          99.4736   75.6703   34.9933 H         1 2HI365      0.0000 
     24 H         105.0663   75.1261   33.3334 H         1 2HI365      0.0000 
     25 H         103.4346   73.3765   34.1418 H         1 2HI365      0.0000 
     26 H         101.5905   74.3801   32.0763 H         1 2HI365      0.0000 
     27 H         101.0703   73.7756   29.7740 H         1 2HI365      0.0000 
     28 H         105.0904   74.4822   28.6955 H         1 2HI365      0.0000 
     29 H         105.6185   75.0909   30.9918 H         1 2HI365      0.0000 
     30 H         103.2498   74.0990   36.1911 H         1 2HI365      0.0000 
     31 H         103.0631   73.3890   28.6275 H         1 2HI365      0.0000 
     32 H          98.0754   77.2576   35.4088 H         1 2HI365      0.0000 
@<TRIPOS>BOND
     1    2    1 ar   
     2    6    1 ar   
     3   21    1 1    
     4    3    2 ar   
     5   22    2 1    
     6    4    3 ar   
     7    8    3 1    
     8    5    4 ar   
     9    7    4 1    
    10    6    5 ar   
    11   23    5 1    
    12   20    6 1    
    13   11    7 1    
    14    9    8 2    
    15   10    8 1    
    16   11   10 1    
    17   13   10 1    
    18   24   10 1    
    19   12   11 1    
    20   25   11 1    
    21   30   12 1    
    22   14   13 ar   
    23   18   13 ar   
    24   15   14 ar   
    25   26   14 1    
    26   16   15 ar   
    27   27   15 1    
    28   17   16 ar   
    29   19   16 1    
    30   18   17 ar   
    31   28   17 1    
    32   29   18 1    
    33   31   19 1    
    34   32   20 1    
@<TRIPOS>SUBSTRUCTURE
     1 2HI365      1 GROUP   
@<TRIPOS>SET

