#    Name: 2hog_710_1_INTS_M
#    Modification time : Tue Mar 25 16:51:44 2014

@<TRIPOS>MOLECULE
2hog_710_1_INTS_M
   70     0     9     0     0
SMALL
NO_CHARGES


@<TRIPOS>ATOM
      1 CA         13.4095   -4.3295   10.8845 C.3       3 GLC5        0.0000 
      2 CA         14.1590   -2.6780   11.8960 C.3       9 GLL5        0.0000 
      3 CA         12.6600   -5.9810    9.8730 C.3       6 GLP5        0.0000 
      4 CA         13.3130   -3.1755    9.9540 C.3       3 GLC5        0.0000 
      5 CA         12.9890   -1.8780   11.7570 C.3       9 GLL5        0.0000 
      6 CA         13.6370   -4.4730    8.1510 C.3       6 GLP5        0.0000 
      7 CA         12.1725    1.3025   11.2185 C.3       3 GLC5        0.0000 
      8 CA         13.0200   -0.7140   10.9040 C.3       9 GLL5        0.0000 
      9 CA         11.3250    3.3190   11.5330 C.3       6 GLP5        0.0000 
     10 CA         10.9940   -1.0365   10.3410 C.3       3 GLC5        0.0000 
     11 CA          8.9680   -1.3590    9.7780 C.3       6 GLP5        0.0000 
     12 O          13.8775    1.7325    8.8700 O.2       1 ALC1        0.0000 
     13 O          14.5730    0.6110    9.3930 O.2       7 ALL1        0.0000 
     14 O          13.1820    2.8540    8.3470 O.2       4 ALP1        0.0000 
     15 N          16.2805    1.9790    8.4550 N.am      2 SEC2        0.0000 
     16 N          15.8420    0.5770    8.9690 N.am      8 SEL2        0.0000 
     17 N          16.7190    3.3810    7.9410 N.am      5 SEP2        0.0000 
     18 CA         17.2175   -1.7500    7.6525 C.3       3 GLC5        0.0000 
     19 CA         17.7760   -0.8610    9.3190 C.3       9 GLL5        0.0000 
     20 CA         16.6590   -2.6390    5.9860 C.3       6 GLP5        0.0000 
     21 CA         16.8550    0.0625   11.1185 C.3       3 GLC5        0.0000 
     22 CA         15.9340    0.9860   12.9180 C.3       6 GLP5        0.0000 
     23 O          19.1045    1.1925    8.6710 O.2       1 ALC1        0.0000 
     24 O          18.6860   -0.0870    8.6610 O.2       7 ALL1        0.0000 
     25 O          19.5230    2.4720    8.6810 O.2       4 ALP1        0.0000 
     26 CA         19.4455   -2.0590    7.0430 C.3       3 GLC5        0.0000 
     27 CA         19.9020   -0.7210    8.6150 C.3       9 GLL5        0.0000 
     28 CA         18.9890   -3.3970    5.4710 C.3       6 GLP5        0.0000 
     29 CA         21.0690    1.7000    7.3485 C.3       3 GLC5        0.0000 
     30 CA         21.1360   -0.3100    8.0400 C.3       9 GLL5        0.0000 
     31 CA         21.0020    3.7100    6.6570 C.3       6 GLP5        0.0000 
     32 CA         21.4760   -5.3355    3.6475 C.3       3 GLC5        0.0000 
     33 CA         22.7200   -5.3410    5.5140 C.3       9 GLL5        0.0000 
     34 CA         20.2320   -5.3300    1.7810 C.3       6 GLP5        0.0000 
     35 O           9.4975   -4.4775   13.6915 O.2       1 ALC1        0.0000 
     36 O          10.3510   -3.4310   13.4570 O.2       7 ALL1        0.0000 
     37 O           8.6440   -5.5240   13.9260 O.2       4 ALP1        0.0000 
     38 CA         10.8940    1.6770   12.2680 C.3       3 GLC5        0.0000 
     39 CA         10.4630    0.0350   13.0030 C.3       9 GLL5        0.0000 
     40 CA          9.7155   -0.6620   11.3905 C.3       3 GLC5        0.0000 
     41 CA         11.8030    0.5000   14.1605 C.3       3 GLC5        0.0000 
     42 CA         13.1430    0.9650   15.3180 C.3       6 GLP5        0.0000 
     43 CA         10.3650   -0.9015   14.9430 C.3       3 GLC5        0.0000 
     44 CA         10.2670   -1.8380   16.8830 C.3       6 GLP5        0.0000 
     45 N          10.3855   -0.0405   15.3340 N.am      2 SEC2        0.0000 
     46 N           9.8800    0.5140   14.2080 N.am      8 SEL2        0.0000 
     47 N          10.8910   -0.5950   16.4600 N.am      5 SEP2        0.0000 
     48 O           9.0765    1.4985   13.8525 O.2       1 ALC1        0.0000 
     49 O           9.8800    0.5140   14.2080 O.2       7 ALL1        0.0000 
     50 O           8.2730    2.4830   13.4970 O.2       4 ALP1        0.0000 
     51 CA         14.7540   -0.6460   12.3722 C.3       3 GLC5        0.0000 
     52 CA         13.3373   -0.6210    8.5665 C.3       3 GLC5        0.0000 
     53 CA         14.2370   -0.4080   10.2400 C.3       9 GLL5        0.0000 
     54 CA         13.0460   -0.6810    6.5610 C.3       6 GLP5        0.0000 
     55 CA         14.7812    0.2125   11.7450 C.3       3 GLC5        0.0000 
     56 CA         14.5107   -3.1202    9.4733 C.3       3 GLC5        0.0000 
     57 CA         15.4060   -1.1850   10.3740 C.3       9 GLL5        0.0000 
     58 CA         15.6593   -0.3908   11.8567 C.3       3 GLC5        0.0000 
     59 CA         15.3630   -2.3500   11.2170 C.3       9 GLL5        0.0000 
     60 CA         20.9715   -0.2895   10.0948 C.3       3 GLC5        0.0000 
     61 CA         19.7480   -1.9530    9.2840 C.3       9 GLL5        0.0000 
     62 CA         22.1180    0.7580   11.2400 C.3       6 GLP5        0.0000 
     63 CA         21.9022    0.0010    9.6670 C.3       3 GLC5        0.0000 
     64 CA         21.8040   -0.9433   10.1692 C.3       3 GLC5        0.0000 
     65 CA         22.1150   -2.4550    8.8120 C.3       9 GLL5        0.0000 
     66 CA         18.8001   -3.5209    8.2929 C.3       3 GLC5        0.0000 
     67 CA         20.8650   -2.8340    9.3850 C.3       9 GLL5        0.0000 
     68 CA         17.6270   -4.6320    7.1440 C.3       6 GLP5        0.0000 
     69 CA         20.7650   -4.2032    5.8262 C.3       3 GLC5        0.0000 
     70 CA         22.3620   -4.6780    6.8490 C.3       9 GLL5        0.0000 
@<TRIPOS>BOND
@<TRIPOS>SUBSTRUCTURE
     1 ALC1       12 GROUP        1 X    ALC  0     ROOT ALC X 1
     2 SEC2       15 GROUP        1 X    SEC  0     **** SEC X 2
     3 GLC5        1 GROUP        1 X    GLC  0     **** GLC X 6
     4 ALP1       14 GROUP        1 Y    ALP  0     ROOT ALP Y 8
     5 SEP2       17 GROUP        1 Y    SEP  0     **** SEP Y 9
     6 GLP5        3 GROUP        1 Y    GLP  0     **** GLP Y 13
     7 ALL1       13 GROUP        1 Z    ALL  0     ROOT ALL Z 15
     8 SEL2       16 GROUP        1 Z    SEL  0     **** SEL Z 16
     9 GLL5        2 GROUP        1 Z    GLL  0     **** GLL Z 20
@<TRIPOS>SET

