#    Name: 2hog_710_1_ligand
#    Modification time : Tue Mar 25 16:51:45 2014

@<TRIPOS>MOLECULE
2hog_710_1_ligand
   58    63     1     0     0
SMALL
NO_CHARGES


@<TRIPOS>ATOM
      1 C          14.1590   -2.6780   11.8960 C.ar      1 710324      0.0000 
      2 C1         12.9890   -1.8780   11.7570 C.ar      1 710324      0.0000 
      3 C2         13.0200   -0.7140   10.9040 C.ar      1 710324      0.0000 
      4 C3         15.3630   -2.3500   11.2170 C.ar      1 710324      0.0000 
      5 C4         15.4060   -1.1850   10.3740 C.ar      1 710324      0.0000 
      6 C5         14.2370   -0.4080   10.2400 C.ar      1 710324      0.0000 
      7 N          14.5730    0.6110    9.3930 N.pl3     1 710324      0.0000 
      8 N6         15.8420    0.5770    8.9690 N.2       1 710324      0.0000 
      9 C7         16.3620   -0.5080    9.5570 C.2       1 710324      0.0000 
     10 C8         17.7760   -0.8610    9.3190 C.2       1 710324      0.0000 
     11 N9         18.6860   -0.0870    8.6610 N.pl3     1 710324      0.0000 
     12 C10        18.4150   -2.0180    9.7130 C.2       1 710324      0.0000 
     13 C11        19.7480   -1.9530    9.2840 C.ar      1 710324      0.0000 
     14 C12        19.9020   -0.7210    8.6150 C.ar      1 710324      0.0000 
     15 C13        21.1360   -0.3100    8.0400 C.ar      1 710324      0.0000 
     16 C14        22.2370   -1.2020    8.1480 C.ar      1 710324      0.0000 
     17 C15        22.1150   -2.4550    8.8120 C.ar      1 710324      0.0000 
     18 C16        20.8650   -2.8340    9.3850 C.ar      1 710324      0.0000 
     19 C17        23.2870   -3.3990    8.8850 C.3       1 710324      0.0000 
     20 N18        23.6250   -4.0830    7.5290 N.4       1 710324      0.0000 
     21 C19        24.6910   -5.1640    7.7260 C.3       1 710324      0.0000 
     22 C20        25.0370   -5.8460    6.3840 C.3       1 710324      0.0000 
     23 C21        23.7880   -6.4160    5.6990 C.3       1 710324      0.0000 
     24 C22        22.7200   -5.3410    5.5140 C.3       1 710324      0.0000 
     25 C23        22.3620   -4.6780    6.8490 C.3       1 710324      0.0000 
     26 C24        11.7680   -2.2430   12.4990 C.2       1 710324      0.0000 
     27 C25        10.6950   -1.4370   13.0310 C.2       1 710324      0.0000 
     28 N26         9.8060   -2.2310   13.6370 N.2       1 710324      0.0000 
     29 N27        10.3510   -3.4310   13.4570 N.pl3     1 710324      0.0000 
     30 N28        11.5060   -3.5230   12.7970 N.2       1 710324      0.0000 
     31 C29        10.4630    0.0350   13.0030 C.3       1 710324      0.0000 
     32 O           9.8800    0.5140   14.2080 O.3       1 710324      0.0000 
     33 H          14.1302   -3.5086   12.4997 H         1 710324      0.0000 
     34 H          12.2037   -0.1476   10.7914 H         1 710324      0.0000 
     35 H          16.1882   -2.9261   11.3202 H         1 710324      0.0000 
     36 H          13.9146    1.3162    9.1215 H         1 710324      0.0000 
     37 H          18.5044    0.7860    8.2791 H         1 710324      0.0000 
     38 H          18.0302   -2.7411   10.1923 H         1 710324      0.0000 
     39 H          21.2250    0.5718    7.5781 H         1 710324      0.0000 
     40 H          23.1418   -0.9373    7.7379 H         1 710324      0.0000 
     41 H          20.7713   -3.7238    9.8609 H         1 710324      0.0000 
     42 H          23.0852   -4.1903    9.6231 H         1 710324      0.0000 
     43 H          24.1833   -2.8578    9.2246 H         1 710324      0.0000 
     44 H          24.0339   -3.3208    6.8658 H         1 710324      0.0000 
     45 H          24.3206   -5.9157    8.4178 H         1 710324      0.0000 
     46 H          25.5917   -4.7139    8.1348 H         1 710324      0.0000 
     47 H          25.7451   -6.6532    6.5708 H         1 710324      0.0000 
     48 H          25.5055   -5.1137    5.7267 H         1 710324      0.0000 
     49 H          23.3852   -7.2241    6.3093 H         1 710324      0.0000 
     50 H          24.0684   -6.8179    4.7255 H         1 710324      0.0000 
     51 H          21.8235   -5.7924    5.0886 H         1 710324      0.0000 
     52 H          23.0891   -4.5802    4.8260 H         1 710324      0.0000 
     53 H          21.6487   -3.8776    6.6770 H         1 710324      0.0000 
     54 H          21.9224   -5.4152    7.5141 H         1 710324      0.0000 
     55 H           9.8845   -4.2856   13.8249 H         1 710324      0.0000 
     56 H           9.8185    0.2693   12.1281 H         1 710324      0.0000 
     57 H          11.4347    0.5369   12.8037 H         1 710324      0.0000 
     58 H           9.7432    1.4932   14.0578 H         1 710324      0.0000 
@<TRIPOS>BOND
     1    2    1 ar   
     2    4    1 ar   
     3   33    1 1    
     4    3    2 ar   
     5   26    2 1    
     6    6    3 ar   
     7   34    3 1    
     8    5    4 ar   
     9   35    4 1    
    10    6    5 ar   
    11    9    5 1    
    12    7    6 1    
    13    8    7 1    
    14   36    7 1    
    15    9    8 2    
    16   10    9 1    
    17   11   10 1    
    18   12   10 2    
    19   14   11 1    
    20   37   11 1    
    21   13   12 1    
    22   38   12 1    
    23   14   13 ar   
    24   18   13 ar   
    25   15   14 ar   
    26   16   15 ar   
    27   39   15 1    
    28   17   16 ar   
    29   40   16 1    
    30   18   17 ar   
    31   19   17 1    
    32   41   18 1    
    33   20   19 1    
    34   42   19 1    
    35   43   19 1    
    36   21   20 1    
    37   25   20 1    
    38   44   20 1    
    39   22   21 1    
    40   45   21 1    
    41   46   21 1    
    42   23   22 1    
    43   47   22 1    
    44   48   22 1    
    45   24   23 1    
    46   49   23 1    
    47   50   23 1    
    48   25   24 1    
    49   51   24 1    
    50   52   24 1    
    51   53   25 1    
    52   54   25 1    
    53   27   26 1    
    54   30   26 2    
    55   28   27 2    
    56   31   27 1    
    57   29   28 1    
    58   30   29 1    
    59   55   29 1    
    60   32   31 1    
    61   56   31 1    
    62   57   31 1    
    63   58   32 1    
@<TRIPOS>SUBSTRUCTURE
     1 710324      1 GROUP   
@<TRIPOS>SET

