#    Name: 2h6i_CYS_VAL_LEU_SER_GER_1_INTS_M
#    Modification time : Tue Mar 25 15:33:43 2014

@<TRIPOS>MOLECULE
2h6i_CYS_VAL_LEU_SER_GER_1_INTS_M
   93     0     6     0     0
SMALL
NO_CHARGES


@<TRIPOS>ATOM
      1 CA         20.5420  135.0735   -5.6800 C.3       2 GLC5        0.0000 
      2 CA         20.5130  136.6630   -4.3270 C.3       6 GLL5        0.0000 
      3 CA         20.5710  133.4840   -7.0330 C.3       4 GLP5        0.0000 
      4 N          17.4755  132.1460   -7.9045 N.am      1 SEC2        0.0000 
      5 N          17.1420  132.3960   -6.6780 N.am      5 SEL2        0.0000 
      6 N          17.8090  131.8960   -9.1310 N.am      3 SEP2        0.0000 
      7 CA         13.7755  130.1025   -1.6765 C.3       2 GLC5        0.0000 
      8 CA         13.6160  132.0940   -2.6270 C.3       6 GLL5        0.0000 
      9 CA         13.9350  128.1110   -0.7260 C.3       4 GLP5        0.0000 
     10 CA         14.9685  129.8995   -1.3730 C.3       2 GLC5        0.0000 
     11 CA         16.0020  131.6880   -2.0200 C.3       6 GLL5        0.0000 
     12 CA         18.7900  134.7195   -7.9170 C.3       2 GLC5        0.0000 
     13 CA         16.8420  134.9170   -7.8930 C.3       6 GLL5        0.0000 
     14 CA         20.7380  134.5220   -7.9410 C.3       4 GLP5        0.0000 
     15 CA         13.9240  133.9115   -9.1410 C.3       2 GLC5        0.0000 
     16 CA         15.4530  134.7220   -8.5040 C.3       6 GLL5        0.0000 
     17 CA         12.3950  133.1010   -9.7780 C.3       4 GLP5        0.0000 
     18 N          17.9735  137.1565  -10.5710 N.am      1 SEC2        0.0000 
     19 N          17.3270  136.6870   -9.4320 N.am      5 SEL2        0.0000 
     20 N          18.6200  137.6260  -11.7100 N.am      3 SEP2        0.0000 
     21 CA         20.7675  130.6330    3.4810 C.3       2 GLC5        0.0000 
     22 CA         20.5190  132.5810    2.7510 C.3       6 GLL5        0.0000 
     23 CA         21.0160  128.6850    4.2110 C.3       4 GLP5        0.0000 
     24 CA         18.5230  131.4315    3.0725 C.3       2 GLC5        0.0000 
     25 CA         19.7520  131.9360    1.6060 C.3       6 GLL5        0.0000 
     26 CA         17.2940  130.9270    4.5390 C.3       4 GLP5        0.0000 
     27 CA         17.6900  132.5355    2.0685 C.3       2 GLC5        0.0000 
     28 CA         15.6280  133.1350    2.5310 C.3       4 GLP5        0.0000 
     29 CA         20.2155  128.9770    0.9460 C.3       2 GLC5        0.0000 
     30 CA         19.5570  129.6220   -0.9810 C.3       6 GLL5        0.0000 
     31 CA         20.8740  128.3320    2.8730 C.3       4 GLP5        0.0000 
     32 CA         16.5305  128.3010   -0.6660 C.3       2 GLC5        0.0000 
     33 CA         18.2860  129.0380   -1.5810 C.3       6 GLL5        0.0000 
     34 CA         14.7750  127.5640    0.2490 C.3       4 GLP5        0.0000 
     35 CA         18.5925  129.1105   -5.9945 C.3       2 GLC5        0.0000 
     36 CA         19.0980  128.9300   -3.9840 C.3       6 GLL5        0.0000 
     37 CA         18.0870  129.2910   -8.0050 C.3       4 GLP5        0.0000 
     38 CA         20.1380  128.0415   -5.5190 C.3       2 GLC5        0.0000 
     39 CA         21.1780  127.1530   -7.0540 C.3       4 GLP5        0.0000 
     40 CA         15.3275  128.1505   -2.0245 C.3       2 GLC5        0.0000 
     41 CA         16.7200  128.1900   -3.3230 C.3       6 GLL5        0.0000 
     42 CA         17.1645  128.9830   -6.3525 C.3       2 GLC5        0.0000 
     43 CA         16.2420  128.6750   -4.7000 C.3       6 GLL5        0.0000 
     44 CA         15.0245  129.9075   -9.4040 C.3       2 GLC5        0.0000 
     45 CA         14.6960  129.2690   -7.3380 C.3       6 GLL5        0.0000 
     46 CA         15.3530  130.5460  -11.4700 C.3       4 GLP5        0.0000 
     47 CA         15.8020  128.3465   -8.2845 C.3       2 GLC5        0.0000 
     48 CA         16.9080  127.4240   -9.2310 C.3       4 GLP5        0.0000 
     49 CA         13.2565  128.5595   -8.8395 C.3       2 GLC5        0.0000 
     50 CA         11.8170  127.8500  -10.3410 C.3       4 GLP5        0.0000 
     51 CA         12.3710  125.9175   -6.7195 C.3       2 GLC5        0.0000 
     52 CA         12.8190  127.8800   -6.4570 C.3       6 GLL5        0.0000 
     53 CA         11.9230  123.9550   -6.9820 C.3       4 GLP5        0.0000 
     54 CA         12.3180  127.8650   -8.3990 C.3       2 GLC5        0.0000 
     55 CA         10.0250  128.2025   -5.5165 C.3       2 GLC5        0.0000 
     56 CA         11.8970  128.4780   -5.4440 C.3       6 GLL5        0.0000 
     57 CA          8.1530  127.9270   -5.5890 C.3       4 GLP5        0.0000 
     58 CA         12.6170  127.8625   -3.5250 C.3       2 GLC5        0.0000 
     59 CA         13.3370  127.2470   -1.6060 C.3       4 GLP5        0.0000 
     60 CA          8.4235  129.9980   -2.9140 C.3       2 GLC5        0.0000 
     61 CA         10.0800  130.2870   -3.7360 C.3       6 GLL5        0.0000 
     62 CA          6.7670  129.7090   -2.0920 C.3       4 GLP5        0.0000 
     63 CA          9.1165  129.1070   -4.6625 C.3       2 GLC5        0.0000 
     64 CA         10.3785  129.7875   -1.7660 C.3       2 GLC5        0.0000 
     65 CA         10.6770  129.2880    0.2040 C.3       4 GLP5        0.0000 
     66 CA          8.1975  132.3465   -6.3005 C.3       2 GLC5        0.0000 
     67 CA          9.9680  131.8710   -5.6790 C.3       6 GLL5        0.0000 
     68 CA          6.4270  132.8220   -6.9220 C.3       4 GLP5        0.0000 
     69 CA         17.4513  133.7862    2.6505 C.3       2 GLC5        0.0000 
     70 CA         18.9380  134.9170    2.0310 C.3       6 GLL5        0.0000 
     71 CA         18.6795  132.0983    3.8345 C.3       2 GLC5        0.0000 
     72 CA         19.6110  133.9580    3.5090 C.3       6 GLL5        0.0000 
     73 CA         12.8795  133.7178   -2.1625 C.3       2 GLC5        0.0000 
     74 CA         15.0340  132.6430   -2.6910 C.3       6 GLL5        0.0000 
     75 CA         11.4340  135.0670   -1.6660 C.3       4 GLP5        0.0000 
     76 CA         14.6197  132.1046   -0.6922 C.3       2 GLC5        0.0000 
     77 CA         14.0760  132.1810    0.9550 C.3       4 GLP5        0.0000 
     78 CA         20.4333  130.0975    1.9203 C.3       2 GLC5        0.0000 
     79 CA         18.1612  126.8491   -2.1572 C.3       2 GLC5        0.0000 
     80 CA         18.8750  125.1600   -1.5370 C.3       4 GLP5        0.0000 
     81 CA         15.6385  126.4860   -5.6342 C.3       2 GLC5        0.0000 
     82 CA         15.7150  124.5600   -6.3900 C.3       4 GLP5        0.0000 
     83 CA         14.4495  127.8295   -3.2423 C.3       2 GLC5        0.0000 
     84 CA         14.8820  128.1490   -5.0570 C.3       6 GLL5        0.0000 
     85 CA         16.2060  128.0275   -6.8628 C.3       2 GLC5        0.0000 
     86 CA         17.8710  127.7760   -8.0910 C.3       4 GLP5        0.0000 
     87 CA         14.6122  126.3522   -6.3622 C.3       2 GLC5        0.0000 
     88 CA         14.2000  128.4090   -6.2120 C.3       6 GLL5        0.0000 
     89 CA          9.9515  133.0353   -4.9438 C.3       2 GLC5        0.0000 
     90 CA         10.5420  130.6020   -5.1380 C.3       6 GLL5        0.0000 
     91 CA          9.6480  134.8340   -4.4790 C.3       4 GLP5        0.0000 
     92 CA          9.3711  129.7989   -6.2127 C.3       2 GLC5        0.0000 
     93 CA          8.2840  128.5590   -6.8320 C.3       4 GLP5        0.0000 
@<TRIPOS>BOND
@<TRIPOS>SUBSTRUCTURE
     1 SEC2        4 GROUP        1 X    SEC  0     ROOT SEC X 2
     2 GLC5        1 GROUP        1 X    GLC  0     **** GLC X 6
     3 SEP2        6 GROUP        1 Y    SEP  0     ROOT SEP Y 9
     4 GLP5        3 GROUP        1 Y    GLP  0     **** GLP Y 13
     5 SEL2        5 GROUP        1 Z    SEL  0     ROOT SEL Z 16
     6 GLL5        2 GROUP        1 Z    GLL  0     **** GLL Z 20
@<TRIPOS>SET

