#    Name: 2h6i_CYS_VAL_LEU_SER_GER_1_ligand
#    Modification time : Tue Mar 25 15:33:43 2014

@<TRIPOS>MOLECULE
2h6i_CYS_VAL_LEU_SER_GER_1_ligand
  113   112     5     0     0
SMALL
NO_CHARGES


@<TRIPOS>ATOM
      1 N          20.5840  136.7280    1.3360 N.4       1 CYS2006     0.0000
      2 CA         19.8910  135.4630    0.9120 C.3       1 CYS2006     0.0000
      3 C          19.0100  135.6960   -0.3320 C.2       1 CYS2006     0.0000
      4 O          17.7930  135.7350   -0.1880 O.2       1 CYS2006     0.0000
      5 CB         18.9380  134.9170    2.0310 C.3       1 CYS2006     0.0000
      6 SG         19.6110  133.9580    3.5090 S.3       1 CYS2006     0.0000
      7 HA         20.5977  134.6929    0.6837 H         1 CYS2006     0.0000
      8 HB2        18.1908  134.2026    1.6440 H         1 CYS2006     0.0000
      9 HB3        18.3774  135.7185    2.5426 H         1 CYS2006     0.0000
     10 HNCA       21.1574  136.5849    2.1427 H         1 CYS2006     0.0000
     11 H          21.1768  137.0863    0.6148 H         1 CYS2006     0.0000
     12 H          19.9313  137.4503    1.5648 H         1 CYS2006     0.0000
     13 N          19.5670  135.8490   -1.5340 N.am      2 VAL2007     0.0000
     14 CA         18.6800  136.0410   -2.6980 C.3       2 VAL2007     0.0000
     15 C          18.4290  134.7390   -3.4580 C.2       2 VAL2007     0.0000
     16 O          19.3510  133.9910   -3.7590 O.2       2 VAL2007     0.0000
     17 CB         19.2060  137.1100   -3.6950 C.3       2 VAL2007     0.0000
     18 CG1        19.3770  138.4210   -2.9800 C.3       2 VAL2007     0.0000
     19 CG2        20.5130  136.6630   -4.3270 C.3       2 VAL2007     0.0000
     20 HNCA       20.5651  135.8436   -1.7123 H         2 VAL2007     0.0000
     21 HA         17.6936  136.4018   -2.3529 H         2 VAL2007     0.0000
     22 HB         18.4605  137.2254   -4.4724 H         2 VAL2007     0.0000
     23 H          20.0275  138.3496   -2.2239 H         2 VAL2007     0.0000
     24 H          19.7157  139.1361   -3.5915 H         2 VAL2007     0.0000
     25 H          18.5145  138.7491   -2.5947 H         2 VAL2007     0.0000
     26 HG21       20.8656  137.3422   -4.9707 H         2 VAL2007     0.0000
     27 HG22       21.2248  136.5121   -3.6410 H         2 VAL2007     0.0000
     28 HG23       20.4072  135.8069   -4.8328 H         2 VAL2007     0.0000
     29 N          17.1730  134.4740   -3.7750 N.am      3 LEU2008     0.0000
     30 CA         16.8380  133.2500   -4.4730 C.3       3 LEU2008     0.0000
     31 C          16.9460  133.3950   -5.9720 C.2       3 LEU2008     0.0000
     32 O          17.1420  132.3960   -6.6780 O.2       3 LEU2008     0.0000
     33 CB         15.4140  132.8300   -4.1540 C.3       3 LEU2008     0.0000
     34 CG         15.0340  132.6430   -2.6910 C.3       3 LEU2008     0.0000
     35 CD1        13.6160  132.0940   -2.6270 C.3       3 LEU2008     0.0000
     36 CD2        16.0020  131.6880   -2.0200 C.3       3 LEU2008     0.0000
     37 HNCA       16.3872  135.1064   -3.5488 H         3 LEU2008     0.0000
     38 HA         17.4913  132.4380   -4.1650 H         3 LEU2008     0.0000
     39 HB2        15.1931  131.8753   -4.7010 H         3 LEU2008     0.0000
     40 HB3        14.7116  133.5781   -4.6084 H         3 LEU2008     0.0000
     41 HG         15.0644  133.5929   -2.1995 H         3 LEU2008     0.0000
     42 HD11       13.5362  131.2157   -3.0983 H         3 LEU2008     0.0000
     43 HD12       13.3161  131.9490   -1.6841 H         3 LEU2008     0.0000
     44 HD13       12.9576  132.7154   -3.0517 H         3 LEU2008     0.0000
     45 HD21       16.9423  132.0265   -2.0555 H         3 LEU2008     0.0000
     46 HD22       15.7772  131.5479   -1.0557 H         3 LEU2008     0.0000
     47 HD23       15.9978  130.7879   -2.4557 H         3 LEU2008     0.0000
     48 N          16.7950  134.6330   -6.4540 N.am      4 SER2009     0.0000
     49 CA         16.8420  134.9170   -7.8930 C.3       4 SER2009     0.0000
     50 C          17.3390  136.3250   -8.2160 C.2       4 SER2009     0.0000
     51 O          17.7340  137.0280   -7.2430 O.2       4 SER2009     0.0000
     52 CB         15.4530  134.7220   -8.5040 C.3       4 SER2009     0.0000
     53 OG         14.4880  135.4700   -7.7890 O.3       4 SER2009     0.0000
     54 OXT        17.3270  136.6870   -9.4320 O.3       4 SER2009     0.0000
     55 HNCA       16.6372  135.4552   -5.8374 H         4 SER2009     0.0000
     56 HA         17.5085  134.2052   -8.3901 H         4 SER2009     0.0000
     57 HB2        15.2345  133.6433   -8.4878 H         4 SER2009     0.0000
     58 HB3        15.5120  135.0264   -9.5601 H         4 SER2009     0.0000
     59 HG         14.6503  135.2493   -6.8272 H         4 SER2009     0.0000
     60 H          16.3683  136.6275   -9.7101 H         4 SER2009     0.0000
     61 C1         20.5190  132.5810    2.7510 C.3       5 GER2010     0.0000
     62 C2         19.7520  131.9360    1.6060 C.2       5 GER2010     0.0000
     63 C3         20.2330  131.7900    0.3290 C.2       5 GER2010     0.0000
     64 C4         21.6040  132.2730   -0.1060 C.3       5 GER2010     0.0000
     65 C5         19.4300  131.1550   -0.7900 C.3       5 GER2010     0.0000
     66 C6         19.5570  129.6220   -0.9810 C.3       5 GER2010     0.0000
     67 C7         18.2860  129.0380   -1.5810 C.2       5 GER2010     0.0000
     68 C8         18.0640  128.7350   -2.8830 C.2       5 GER2010     0.0000
     69 C9         19.0980  128.9300   -3.9840 C.3       5 GER2010     0.0000
     70 C10        16.7200  128.1900   -3.3230 C.3       5 GER2010     0.0000
     71 C11        16.2420  128.6750   -4.7000 C.3       5 GER2010     0.0000
     72 C12        14.8820  128.1490   -5.0570 C.2       5 GER2010     0.0000
     73 C13        14.2000  128.4090   -6.2120 C.2       5 GER2010     0.0000
     74 C14        14.6960  129.2690   -7.3380 C.3       5 GER2010     0.0000
     75 C15        12.8190  127.8800   -6.4570 C.3       5 GER2010     0.0000
     76 C16        11.8970  128.4780   -5.4440 C.3       5 GER2010     0.0000
     77 C17        11.3550  129.8110   -5.8780 C.2       5 GER2010     0.0000
     78 C18        10.5420  130.6020   -5.1380 C.2       5 GER2010     0.0000
     79 C19        10.0800  130.2870   -3.7360 C.3       5 GER2010     0.0000
     80 C20         9.9680  131.8710   -5.6790 C.3       5 GER2010     0.0000
     81 H          20.6776  131.9266    3.5864 H         5 GER2010     0.0000
     82 H          21.4332  133.0527    2.4459 H         5 GER2010     0.0000
     83 H          18.7977  131.5994    1.8699 H         5 GER2010     0.0000
     84 H          19.7026  131.6430   -1.7574 H         5 GER2010     0.0000
     85 H          18.3481  131.3919   -0.6429 H         5 GER2010     0.0000
     86 H          19.7489  129.1660   -0.0119 H         5 GER2010     0.0000
     87 H          20.3995  129.4228   -1.6400 H         5 GER2010     0.0000
     88 H          17.5278  128.8724   -0.8502 H         5 GER2010     0.0000
     89 H          15.9531  128.4610   -2.5714 H         5 GER2010     0.0000
     90 H          16.7626  127.0835   -3.3376 H         5 GER2010     0.0000
     91 H          16.9745  128.3567   -5.4542 H         5 GER2010     0.0000
     92 H          16.2275  129.7734   -4.6959 H         5 GER2010     0.0000
     93 H          14.4568  127.5259   -4.3140 H         5 GER2010     0.0000
     94 H          12.8198  126.7985   -6.3615 H         5 GER2010     0.0000
     95 H          12.4952  128.1532   -7.4566 H         5 GER2010     0.0000
     96 H          12.4308  128.5990   -4.4875 H         5 GER2010     0.0000
     97 H          11.0569  127.7890   -5.2598 H         5 GER2010     0.0000
     98 H          11.6656  130.1023   -6.8439 H         5 GER2010     0.0000
     99 H          22.3353  131.8335    0.4155 H         5 GER2010     0.0000
    100 H          21.7764  132.0804   -1.0720 H         5 GER2010     0.0000
    101 H          21.7070  133.2598    0.0190 H         5 GER2010     0.0000
    102 H          19.3774  129.8867   -4.0659 H         5 GER2010     0.0000
    103 H          19.9264  128.3962   -3.8143 H         5 GER2010     0.0000
    104 H          18.7466  128.6498   -4.8773 H         5 GER2010     0.0000
    105 H          14.8713  130.2071   -7.0394 H         5 GER2010     0.0000
    106 H          15.5500  128.9198   -7.7237 H         5 GER2010     0.0000
    107 H          14.0349  129.3184   -8.0867 H         5 GER2010     0.0000
    108 H          10.8492  130.1918   -3.1041 H         5 GER2010     0.0000
    109 H           9.4873  131.0046   -3.3703 H         5 GER2010     0.0000
    110 H           9.5626  129.4321   -3.6988 H         5 GER2010     0.0000
    111 H          10.6825  132.5184   -5.9441 H         5 GER2010     0.0000
    112 H           9.4048  131.7082   -6.4891 H         5 GER2010     0.0000
    113 H           9.3887  132.3327   -5.0072 H         5 GER2010     0.0000
@<TRIPOS>BOND
     1    2    1 1
     2   10    1 1
     3   11    1 1
     4   12    1 1
     5    3    2 1
     6    5    2 1
     7    7    2 1
     8    4    3 2
     9    6    5 1
    10    8    5 1
    11    9    5 1
    12   14   13 1
    13   20   13 1
    14   15   14 1
    15   17   14 1
    16   21   14 1
    17   16   15 2
    18   18   17 1
    19   19   17 1
    20   22   17 1
    21   23   18 1
    22   24   18 1
    23   25   18 1
    24   26   19 1
    25   27   19 1
    26   28   19 1
    27   30   29 1
    28   37   29 1
    29   31   30 1
    30   33   30 1
    31   38   30 1
    32   32   31 2
    33   34   33 1
    34   39   33 1
    35   40   33 1
    36   35   34 1
    37   36   34 1
    38   41   34 1
    39   42   35 1
    40   43   35 1
    41   44   35 1
    42   45   36 1
    43   46   36 1
    44   47   36 1
    45   49   48 1
    46   55   48 1
    47   50   49 1
    48   52   49 1
    49   56   49 1
    50   51   50 2
    51   54   50 1
    52   53   52 1
    53   57   52 1
    54   58   52 1
    55   59   53 1
    56   60   54 1
    57   62   61 1
    58   81   61 1
    59   82   61 1
    60   63   62 2
    61   83   62 1
    62   64   63 1
    63   65   63 1
    64   99   64 1
    65  100   64 1
    66  101   64 1
    67   66   65 1
    68   84   65 1
    69   85   65 1
    70   67   66 1
    71   86   66 1
    72   87   66 1
    73   68   67 2
    74   88   67 1
    75   69   68 1
    76   70   68 1
    77  102   69 1
    78  103   69 1
    79  104   69 1
    80   71   70 1
    81   89   70 1
    82   90   70 1
    83   72   71 1
    84   91   71 1
    85   92   71 1
    86   73   72 2
    87   93   72 1
    88   74   73 1
    89   75   73 1
    90  105   74 1
    91  106   74 1
    92  107   74 1
    93   76   75 1
    94   94   75 1
    95   95   75 1
    96   77   76 1
    97   96   76 1
    98   97   76 1
    99   78   77 2
   100   98   77 1
   101   79   78 1
   102   80   78 1
   103  108   79 1
   104  109   79 1
   105  110   79 1
   106  111   80 1
   107  112   80 1
   108  113   80 1
   109   13    3 am
   110   61    6 1
   111   29   15 am
   112   48   31 am
@<TRIPOS>SUBSTRUCTURE
     1 CYS2006     1 RESIDUE
     2 VAL2007    13 RESIDUE
     3 LEU2008    29 RESIDUE
     4 SER2009    48 RESIDUE
     5 GER2010    61 GROUP
@<TRIPOS>SET

