#    Name: 3p7c_P7C_1_INTS_M
#    Modification time : Tue Mar 25 06:02:16 2014

@<TRIPOS>MOLECULE
3p7c_P7C_1_INTS_M
   91     0     9     0     0
SMALL
NO_CHARGES


@<TRIPOS>ATOM
      1 CA         55.2430   28.6735  -20.5905 C.3       3 GLC5        0.0000 
      2 CA         55.6660   30.2670  -20.7580 C.3       9 GLL5        0.0000 
      3 CA         54.8200   27.0800  -20.4230 C.3       6 GLP5        0.0000 
      4 CA         56.7280   29.4570  -19.7035 C.3       3 GLC5        0.0000 
      5 CA         57.7900   28.6470  -18.6490 C.3       6 GLP5        0.0000 
      6 CA         49.7500   28.1530  -21.2665 C.3       3 GLC5        0.0000 
      7 CA         49.2380   28.3290  -19.5760 C.3       9 GLL5        0.0000 
      8 CA         50.2620   27.9770  -22.9570 C.3       6 GLP5        0.0000 
      9 CA         48.3130   29.6205  -20.7635 C.3       3 GLC5        0.0000 
     10 CA         47.3880   30.9120  -21.9510 C.3       6 GLP5        0.0000 
     11 CA         56.4325   33.8635  -24.4005 C.3       3 GLC5        0.0000 
     12 CA         56.6050   32.3440  -22.9080 C.3       9 GLL5        0.0000 
     13 CA         56.2600   35.3830  -25.8930 C.3       6 GLP5        0.0000 
     14 CA         58.4805   33.2900  -23.4215 C.3       3 GLC5        0.0000 
     15 CA         60.3560   34.2360  -23.9350 C.3       6 GLP5        0.0000 
     16 CA         48.2250   24.1155  -19.1980 C.3       3 GLC5        0.0000 
     17 CA         47.3680   25.5500  -20.2110 C.3       9 GLL5        0.0000 
     18 CA         49.0820   22.6810  -18.1850 C.3       6 GLP5        0.0000 
     19 CA         48.2955   24.1660  -21.0740 C.3       3 GLC5        0.0000 
     20 CA         49.2230   22.7820  -21.9370 C.3       6 GLP5        0.0000 
     21 CA         47.0845   25.4550  -22.0000 C.3       3 GLC5        0.0000 
     22 CA         46.8010   25.3600  -23.7890 C.3       6 GLP5        0.0000 
     23 CA         46.0105   24.5020  -20.9385 C.3       3 GLC5        0.0000 
     24 CA         44.6530   23.4540  -21.6660 C.3       6 GLP5        0.0000 
     25 CA         45.5285   24.5735  -17.0725 C.3       3 GLC5        0.0000 
     26 CA         45.9980   26.3890  -18.0550 C.3       9 GLL5        0.0000 
     27 CA         45.0590   22.7580  -16.0900 C.3       6 GLP5        0.0000 
     28 CA         44.3890   27.8005  -17.6980 C.3       3 GLC5        0.0000 
     29 CA         42.7800   29.2120  -17.3410 C.3       6 GLP5        0.0000 
     30 O          52.8095   29.4330  -17.8015 O.2       1 ALC1        0.0000 
     31 O          51.4810   29.3740  -18.4030 O.2       7 ALL1        0.0000 
     32 O          54.1380   29.4920  -17.2000 O.2       4 ALP1        0.0000 
     33 N          49.4890   31.0445  -19.9875 N.am      2 SEC2        0.0000 
     34 N          50.7960   30.5180  -20.2560 N.am      8 SEL2        0.0000 
     35 N          48.1820   31.5710  -19.7190 N.am      5 SEP2        0.0000 
     36 O          53.5465   30.1505  -18.3610 O.2       1 ALC1        0.0000 
     37 O          52.9550   30.8090  -19.5220 O.2       7 ALL1        0.0000 
     38 CA         55.2310   35.2240  -21.2400 C.3       3 GLC5        0.0000 
     39 CA         54.3080   33.6350  -22.3960 C.3       9 GLL5        0.0000 
     40 CA         56.1540   36.8130  -20.0840 C.3       6 GLP5        0.0000 
     41 CA         55.2840   34.5090  -24.1445 C.3       3 GLC5        0.0000 
     42 CA         46.4740   26.4480  -21.9565 C.3       3 GLC5        0.0000 
     43 CA         46.1470   27.5360  -20.1240 C.3       9 GLL5        0.0000 
     44 CA         44.7730   28.4800  -21.1005 C.3       3 GLC5        0.0000 
     45 CA         43.3990   29.4240  -22.0770 C.3       6 GLP5        0.0000 
     46 CA         46.7675   29.2240  -21.0375 C.3       3 GLC5        0.0000 
     47 CA         51.2535   33.5800  -23.0185 C.3       3 GLC5        0.0000 
     48 CA         53.0700   33.7920  -21.7540 C.3       9 GLL5        0.0000 
     49 CA         49.4370   33.3680  -24.2830 C.3       6 GLP5        0.0000 
     50 CA         48.4645   29.6315  -15.7275 C.3       3 GLC5        0.0000 
     51 CA         48.9650   28.1130  -14.1700 C.3       9 GLL5        0.0000 
     52 CA         47.9640   31.1500  -17.2850 C.3       6 GLP5        0.0000 
     53 CA         52.9515   28.3245  -11.1155 C.3       3 GLC5        0.0000 
     54 CA         51.6190   27.8880  -12.5560 C.3       9 GLL5        0.0000 
     55 CA         54.2840   28.7610   -9.6750 C.3       6 GLP5        0.0000 
     56 CA         51.2655   26.1420  -11.6690 C.3       3 GLC5        0.0000 
     57 CA         50.9120   24.3960  -10.7820 C.3       6 GLP5        0.0000 
     58 CA         53.2980   27.3425  -13.7730 C.3       3 GLC5        0.0000 
     59 CA         54.9770   26.7970  -14.9900 C.3       6 GLP5        0.0000 
     60 N          51.1465   26.6850   -9.3005 N.am      2 SEC2        0.0000 
     61 N          50.8160   27.6800  -10.2970 N.am      8 SEL2        0.0000 
     62 N          51.4770   25.6900   -8.3040 N.am      5 SEP2        0.0000 
     63 CA         51.4775   25.3065  -12.7765 C.3       3 GLC5        0.0000 
     64 CA         51.1740   26.9780  -13.7400 C.3       9 GLL5        0.0000 
     65 CA         51.7810   23.6350  -11.8130 C.3       6 GLP5        0.0000 
     66 CA         52.8610   26.1630  -14.3935 C.3       3 GLC5        0.0000 
     67 CA         54.5480   25.3480  -15.0470 C.3       6 GLP5        0.0000 
     68 CA         50.2675   25.4505  -14.8880 C.3       3 GLC5        0.0000 
     69 CA         49.3610   23.9230  -16.0360 C.3       6 GLP5        0.0000 
     70 CA         44.0655   26.9240  -10.4355 C.3       3 GLC5        0.0000 
     71 CA         45.9670   26.3410  -11.2260 C.3       9 GLL5        0.0000 
     72 CA         42.1640   27.5070   -9.6450 C.3       6 GLP5        0.0000 
     73 CA         53.8010   30.4712  -22.1555 C.3       3 GLC5        0.0000 
     74 CA         54.6280   31.6180  -21.1020 C.3       9 GLL5        0.0000 
     75 CA         52.4550   30.0000  -23.3810 C.3       6 GLP5        0.0000 
     76 CA         51.1522   27.3803  -19.8545 C.3       3 GLC5        0.0000 
     77 CA         50.3890   28.5680  -18.3160 C.3       9 GLL5        0.0000 
     78 CA         52.4910   26.3120  -20.7630 C.3       6 GLP5        0.0000 
     79 CA         56.9303   32.8852  -21.1420 C.3       3 GLC5        0.0000 
     80 CA         55.0920   32.5350  -22.0500 C.3       9 GLL5        0.0000 
     81 CA         58.0120   33.3310  -19.8050 C.3       6 GLP5        0.0000 
     82 CA         49.0786   25.6327  -17.0241 C.3       3 GLC5        0.0000 
     83 CA         49.9100   27.8150  -17.2040 C.3       9 GLL5        0.0000 
     84 CA         55.3265   32.0439  -19.2492 C.3       3 GLC5        0.0000 
     85 CA         53.4010   31.7270  -20.4510 C.3       9 GLL5        0.0000 
     86 CA         56.3790   32.7530  -17.8080 C.3       6 GLP5        0.0000 
     87 CA         54.9006   32.3331  -24.1902 C.3       3 GLC5        0.0000 
     88 CA         54.7230   31.6290  -25.9430 C.3       6 GLP5        0.0000 
     89 CA         48.5752   29.3969  -17.6785 C.3       3 GLC5        0.0000 
     90 CA         48.2530   27.2430  -18.7070 C.3       9 GLL5        0.0000 
     91 CA         53.1639   31.5310  -22.5449 C.3       3 GLC5        0.0000 
@<TRIPOS>BOND
@<TRIPOS>SUBSTRUCTURE
     1 ALC1       30 GROUP        1 X    ALC  0     ROOT ALC X 1
     2 SEC2       33 GROUP        1 X    SEC  0     **** SEC X 2
     3 GLC5        1 GROUP        1 X    GLC  0     **** GLC X 6
     4 ALP1       32 GROUP        1 Y    ALP  0     ROOT ALP Y 8
     5 SEP2       35 GROUP        1 Y    SEP  0     **** SEP Y 9
     6 GLP5        3 GROUP        1 Y    GLP  0     **** GLP Y 13
     7 ALL1       31 GROUP        1 Z    ALL  0     ROOT ALL Z 15
     8 SEL2       34 GROUP        1 Z    SEL  0     **** SEL Z 16
     9 GLL5        2 GROUP        1 Z    GLL  0     **** GLL Z 20
@<TRIPOS>SET

