#    Name: 3p7c_P7C_1_ligand
#    Modification time : Tue Mar 25 06:02:16 2014

@<TRIPOS>MOLECULE
3p7c_P7C_1_ligand
   70    72     1     0     0
SMALL
NO_CHARGES


@<TRIPOS>ATOM
      1 CL1        55.6660   30.2670  -20.7580 Cl        1 P7C362      0.0000 
      2 N2         47.0200   27.0410  -10.4200 N.4       1 P7C362      0.0000 
      3 S2         49.2380   28.3290  -19.5760 S.3       1 P7C362      0.0000 
      4 CL2        56.6050   32.3440  -22.9080 Cl        1 P7C362      0.0000 
      5 C3         50.3890   28.5680  -18.3160 C.2       1 P7C362      0.0000 
      6 C4         49.9100   27.8150  -17.2040 C.2       1 P7C362      0.0000 
      7 C5         48.7690   27.0690  -17.4310 C.2       1 P7C362      0.0000 
      8 C7         47.3680   25.5500  -20.2110 C.3       1 P7C362      0.0000 
      9 C8         45.9980   26.3890  -18.0550 C.3       1 P7C362      0.0000 
     10 C10        50.7160   27.7720  -15.9470 C.2       1 P7C362      0.0000 
     11 C11        48.2530   27.2430  -18.7070 C.2       1 P7C362      0.0000 
     12 O11        51.9080   27.7550  -16.1450 O.2       1 P7C362      0.0000 
     13 N12        51.4810   29.3740  -18.4030 N.am      1 P7C362      0.0000 
     14 C13        51.7690   30.2490  -19.3940 C.2       1 P7C362      0.0000 
     15 C14        46.9650   26.6120  -19.2030 C.3       1 P7C362      0.0000 
     16 O14        50.7960   30.5180  -20.2560 O.2       1 P7C362      0.0000 
     17 N15        52.9550   30.8090  -19.5220 N.am      1 P7C362      0.0000 
     18 C16        53.4010   31.7270  -20.4510 C.ar      1 P7C362      0.0000 
     19 C17        52.6420   32.8450  -20.8190 C.ar      1 P7C362      0.0000 
     20 C19        54.3080   33.6350  -22.3960 C.ar      1 P7C362      0.0000 
     21 C20        55.0920   32.5350  -22.0500 C.ar      1 P7C362      0.0000 
     22 C22        46.1470   27.5360  -20.1240 C.3       1 P7C362      0.0000 
     23 C23        53.0700   33.7920  -21.7540 C.ar      1 P7C362      0.0000 
     24 C24        54.6280   31.6180  -21.1020 C.ar      1 P7C362      0.0000 
     25 C25        48.9650   28.1130  -14.1700 C.3       1 P7C362      0.0000 
     26 C26        50.5890   28.1110  -11.4310 C.2       1 P7C362      0.0000 
     27 N26        50.2730   27.6770  -14.6640 N.am      1 P7C362      0.0000 
     28 C28        49.1420   29.1560  -13.0740 C.3       1 P7C362      0.0000 
     29 N29        49.3300   28.5550  -11.7440 N.am      1 P7C362      0.0000 
     30 C33        51.6190   27.8880  -12.5560 C.3       1 P7C362      0.0000 
     31 O33        50.8160   27.6800  -10.2970 O.2       1 P7C362      0.0000 
     32 C34        51.1740   26.9780  -13.7400 C.3       1 P7C362      0.0000 
     33 C35        48.4470   29.1310  -10.7020 C.3       1 P7C362      0.0000 
     34 C36        47.0380   28.5420  -10.4850 C.3       1 P7C362      0.0000 
     35 C37        47.1980   26.4780   -9.0440 C.3       1 P7C362      0.0000 
     36 C38        45.9670   26.3410  -11.2260 C.3       1 P7C362      0.0000 
     37 H          48.0325   26.7298  -10.9644 H         1 P7C362      0.0000 
     38 H          48.3635   26.4766  -16.7607 H         1 P7C362      0.0000 
     39 H          52.1978   29.3060  -17.5875 H         1 P7C362      0.0000 
     40 H          53.7268   30.5119  -18.7816 H         1 P7C362      0.0000 
     41 H          51.7032   32.9778  -20.3688 H         1 P7C362      0.0000 
     42 H          54.6190   34.3032  -23.0895 H         1 P7C362      0.0000 
     43 H          52.4812   34.6021  -21.9724 H         1 P7C362      0.0000 
     44 H          48.4052   27.2695  -13.7573 H         1 P7C362      0.0000 
     45 H          48.3736   28.5555  -14.9760 H         1 P7C362      0.0000 
     46 H          48.2555   29.8132  -13.0756 H         1 P7C362      0.0000 
     47 H          50.0082   29.7880  -13.3348 H         1 P7C362      0.0000 
     48 H          52.5407   27.4547  -12.1153 H         1 P7C362      0.0000 
     49 H          51.9137   28.8742  -12.9707 H         1 P7C362      0.0000 
     50 H          52.0829   26.6405  -14.2553 H         1 P7C362      0.0000 
     51 H          50.6880   26.0925  -13.3098 H         1 P7C362      0.0000 
     52 H          48.3183   30.2398  -10.8897 H         1 P7C362      0.0000 
     53 H          48.9770   29.1015   -9.7022 H         1 P7C362      0.0000 
     54 H          46.6296   28.9609   -9.5517 H         1 P7C362      0.0000 
     55 H          46.3900   28.8878  -11.3059 H         1 P7C362      0.0000 
     56 H          48.0154   25.9048  -20.8855 H         1 P7C362      0.0000 
     57 H          47.8046   24.7659  -19.7699 H         1 P7C362      0.0000 
     58 H          46.5797   25.2002  -20.7171 H         1 P7C362      0.0000 
     59 H          46.3174   25.6731  -17.4341 H         1 P7C362      0.0000 
     60 H          45.8734   27.2170  -17.5082 H         1 P7C362      0.0000 
     61 H          45.0933   26.1132  -18.3797 H         1 P7C362      0.0000 
     62 H          46.6403   27.7518  -20.9666 H         1 P7C362      0.0000 
     63 H          45.2783   27.1192  -20.3915 H         1 P7C362      0.0000 
     64 H          45.9305   28.4056  -19.6802 H         1 P7C362      0.0000 
     65 H          48.0685   26.7567   -8.6384 H         1 P7C362      0.0000 
     66 H          46.4751   26.7802   -8.4227 H         1 P7C362      0.0000 
     67 H          47.1828   25.4781   -9.0470 H         1 P7C362      0.0000 
     68 H          46.0517   26.5418  -12.2020 H         1 P7C362      0.0000 
     69 H          46.0215   25.3476  -11.1253 H         1 P7C362      0.0000 
     70 H          45.0454   26.6135  -10.9496 H         1 P7C362      0.0000 
@<TRIPOS>BOND
     1   24    1 1    
     2   34    2 1    
     3   35    2 1    
     4   36    2 1    
     5   37    2 1    
     6    5    3 1    
     7   11    3 1    
     8   21    4 1    
     9    6    5 2    
    10   13    5 1    
    11    7    6 1    
    12   10    6 1    
    13   11    7 2    
    14   38    7 1    
    15   15    8 1    
    16   56    8 1    
    17   57    8 1    
    18   58    8 1    
    19   15    9 1    
    20   59    9 1    
    21   60    9 1    
    22   61    9 1    
    23   12   10 2    
    24   27   10 am   
    25   15   11 1    
    26   14   13 am   
    27   39   13 1    
    28   16   14 2    
    29   17   14 am   
    30   22   15 1    
    31   18   17 1    
    32   40   17 1    
    33   19   18 ar   
    34   24   18 ar   
    35   23   19 ar   
    36   41   19 1    
    37   21   20 ar   
    38   23   20 ar   
    39   42   20 1    
    40   24   21 ar   
    41   62   22 1    
    42   63   22 1    
    43   64   22 1    
    44   43   23 1    
    45   27   25 1    
    46   28   25 1    
    47   44   25 1    
    48   45   25 1    
    49   29   26 am   
    50   30   26 1    
    51   31   26 2    
    52   32   27 1    
    53   29   28 1    
    54   46   28 1    
    55   47   28 1    
    56   33   29 1    
    57   32   30 1    
    58   48   30 1    
    59   49   30 1    
    60   50   32 1    
    61   51   32 1    
    62   34   33 1    
    63   52   33 1    
    64   53   33 1    
    65   54   34 1    
    66   55   34 1    
    67   65   35 1    
    68   66   35 1    
    69   67   35 1    
    70   68   36 1    
    71   69   36 1    
    72   70   36 1    
@<TRIPOS>SUBSTRUCTURE
     1 P7C362      1 GROUP   
@<TRIPOS>SET

