#    Name: 3NDI_1_CAVITY_N1_ALL.mol2
#    Modification time : Tue Mar 11 16:51:41 2014

@<TRIPOS>MOLECULE
3NDI_1_CAVITY_N1_ALL.mol2
   71     0     6     0     0
SMALL
NO_CHARGES


@<TRIPOS>ATOM
      1 CA         21.3813   21.1475   10.5649 C.3       6 GLY6        0.0000 
      2 CA         22.5912   21.5390    9.7693 C.3       6 GLY6        0.0000 
      3 CA         21.8095   19.7110   10.5091 C.3       6 GLY6        0.0000 
      4 NZ         23.0194   20.1025    9.7135 N.2       4 LYS4        0.0000 
      5 CA         24.2292   20.4940    8.9179 C.3       6 GLY6        0.0000 
      6 NZ         23.4476   18.6660    9.6578 N.2       4 LYS4        0.0000 
      7 CZ         20.6049   20.9654    9.2945 C.ar      5 PHE5        0.0000 
      8 CA         21.8147   21.3569    8.4989 C.3       6 GLY6        0.0000 
      9 CZ         21.0331   19.5289    9.2387 C.ar      5 PHE5        0.0000 
     10 CA         22.2429   19.9204    8.4431 C.3       6 GLY6        0.0000 
     11 OG         23.4528   20.3119    7.6475 O.2       1 SER1        0.0000 
     12 CZ         22.6711   18.4838    8.3874 C.ar      5 PHE5        0.0000 
     13 NZ         23.8810   18.8753    7.5918 N.2       4 LYS4        0.0000 
     14 N          25.0908   19.2668    6.7962 N.2       2 ALA2        0.0000 
     15 O          24.3091   17.4388    7.5360 O.2       2 ALA2        0.0000 
     16 O          25.5190   17.8303    6.7404 O.2       2 ALA2        0.0000 
     17 CA         21.4664   19.7382    7.1727 C.3       6 GLY6        0.0000 
     18 OG         22.6763   20.1297    6.3771 O.2       1 SER1        0.0000 
     19 OG         21.8946   18.3017    7.1170 O.2       1 SER1        0.0000 
     20 OG         23.1045   18.6932    6.3214 O.2       1 SER1        0.0000 
     21 OG         24.3143   19.0847    5.5258 O.2       1 SER1        0.0000 
     22 N          25.5242   19.4762    4.7302 N.2       2 ALA2        0.0000 
     23 CZ         23.5327   17.2567    6.2656 C.ar      5 PHE5        0.0000 
     24 O          24.7425   17.6482    5.4700 O.2       2 ALA2        0.0000 
     25 CA         25.9524   18.0397    4.6744 C.3       6 GLY6        0.0000 
     26 OG         21.1182   18.1196    5.8466 O.2       1 SER1        0.0000 
     27 N          22.3280   18.5111    5.0510 N.2       2 ALA2        0.0000 
     28 N          23.5379   18.9026    4.2554 N.2       2 ALA2        0.0000 
     29 N          25.9576   19.6855    2.6642 N.2       2 ALA2        0.0000 
     30 OG         22.7562   17.0746    4.9952 O.2       1 SER1        0.0000 
     31 CZ         23.9661   17.4660    4.1996 C.ar      5 PHE5        0.0000 
     32 OG         25.1759   17.8575    3.4040 O.2       1 SER1        0.0000 
     33 N          21.5516   18.3289    3.7806 N.2       2 ALA2        0.0000 
     34 N          22.7614   18.7204    2.9850 N.2       2 ALA2        0.0000 
     35 CA         23.9713   19.1119    2.1894 C.3       6 GLY6        0.0000 
     36 O          25.1811   19.5034    1.3938 O.2       2 ALA2        0.0000 
     37 OG         21.9797   16.8924    3.7248 O.2       1 SER1        0.0000 
     38 CZ         23.1896   17.2839    2.9292 C.ar      5 PHE5        0.0000 
     39 CZ         24.3995   17.6754    2.1336 C.ar      5 PHE5        0.0000 
     40 OG         25.6093   18.0669    1.3380 O.2       1 SER1        0.0000 
     41 N          20.7751   18.1468    2.5102 N.2       2 ALA2        0.0000 
     42 CA         21.9849   18.5383    1.7146 C.3       6 GLY6        0.0000 
     43 OG         19.9934   16.3188    3.2500 O.2       1 SER1        0.0000 
     44 CZ         21.2033   16.7103    2.4544 C.ar      5 PHE5        0.0000 
     45 CZ         22.4131   17.1018    1.6588 C.ar      5 PHE5        0.0000 
     46 CZ         23.6230   17.4933    0.8632 C.ar      5 PHE5        0.0000 
     47 OG         24.8328   17.8848    0.0676 O.2       1 SER1        0.0000 
     48 OG         20.4216   14.8823    3.1943 O.2       1 SER1        0.0000 
     49 CZ         21.6314   15.2738    2.3987 C.ar      5 PHE5        0.0000 
     50 N          19.9986   17.9646    1.2398 N.2       2 ALA2        0.0000 
     51 CA         21.2085   18.3561    0.4442 C.3       6 GLY6        0.0000 
     52 CA         22.4183   18.7476   -0.3514 C.3       6 GLY6        0.0000 
     53 OG         20.4268   16.5281    1.1840 O.2       1 SER1        0.0000 
     54 OG         21.6367   16.9196    0.3884 O.2       1 SER1        0.0000 
     55 OG         22.8465   17.3111   -0.4072 O.2       1 SER1        0.0000 
     56 OG         19.6451   14.7001    1.9239 O.2       1 SER1        0.0000 
     57 CZ         20.8550   15.0916    1.1283 C.ar      5 PHE5        0.0000 
     58 CZ         20.0733   13.2636    1.8681 C.ar      5 PHE5        0.0000 
     59 N          20.0038   19.6105   -0.7705 N.2       2 ALA2        0.0000 
     60 N          19.2221   17.7825   -0.0306 N.2       2 ALA2        0.0000 
     61 O          20.4320   18.1740   -0.8262 O.2       2 ALA2        0.0000 
     62 O          21.6419   18.5655   -1.6218 O.2       2 ALA2        0.0000 
     63 OG         19.6503   16.3460   -0.0864 O.2       1 SER1        0.0000 
     64 O          20.8602   16.7375   -0.8820 O.2       2 ALA2        0.0000 
     65 OG         20.0785   14.9095   -0.1421 O.2       1 SER1        0.0000 
     66 OG         21.2884   15.3010   -0.9377 O.2       1 SER1        0.0000 
     67 O          19.2968   13.0815    0.5977 O.2       2 ALA2        0.0000 
     68 CZ         20.5067   13.4730   -0.1979 C.ar      5 PHE5        0.0000 
     69 OD1        18.8739   16.1638   -1.3568 O.3       3 ASP3        0.0000 
     70 O          20.0837   16.5553   -2.1524 O.2       2 ALA2        0.0000 
     71 OD1        20.5119   15.1188   -2.2081 O.3       3 ASP3        0.0000 
@<TRIPOS>BOND
@<TRIPOS>SUBSTRUCTURE
     1 SER1       11 GROUP   
     2 ALA2       14 GROUP   
     3 ASP3       69 GROUP   
     4 LYS4        4 GROUP   
     5 PHE5        7 GROUP   
     6 GLY6        1 GROUP   
@<TRIPOS>SET

