#    Name: 3ndi_SAM_1_INTS_M
#    Modification time : Tue Mar 25 01:20:06 2014

@<TRIPOS>MOLECULE
3ndi_SAM_1_INTS_M
   94     0    12     0     0
SMALL
NO_CHARGES


@<TRIPOS>ATOM
      1 OD1        28.1895   22.3335    4.0200 O.co2     3 ASC3        0.0000 
      2 OD1        26.6860   21.0930    3.5820 O.co2    11 ASL3        0.0000 
      3 OD1        29.6930   23.5740    4.4580 O.co2     7 ASP3        0.0000 
      4 O          26.8570   21.0975    5.0240 O.2       1 ALC1        0.0000 
      5 O          26.6860   21.0930    3.5820 O.2       9 ALL1        0.0000 
      6 O          27.0280   21.1020    6.4660 O.2       5 ALP1        0.0000 
      7 O          25.5020   21.8655    3.1845 O.2       1 ALC1        0.0000 
      8 O          24.3180   22.6380    2.7870 O.2       5 ALP1        0.0000 
      9 CA         27.6750   17.8710    2.7375 C.3       4 GLC5        0.0000 
     10 CA         26.6130   19.6430    3.2470 C.3      12 GLL5        0.0000 
     11 CA         28.7370   16.0990    2.2280 C.3       8 GLP5        0.0000 
     12 N          24.9165   20.8050    0.1265 N.am      2 SEC2        0.0000 
     13 N          25.8770   20.4560    1.1180 N.am     10 SEL2        0.0000 
     14 N          23.9560   21.1540   -0.8650 N.am      6 SEP2        0.0000 
     15 N          26.9970   17.4840    2.1395 N.am      2 SEC2        0.0000 
     16 N          26.3580   18.3260    1.3410 N.am     10 SEL2        0.0000 
     17 N          27.6360   16.6420    2.9380 N.am      6 SEP2        0.0000 
     18 CA         24.2780   17.1280    2.7910 C.3       4 GLC5        0.0000 
     19 CA         24.1620   19.1400    3.7440 C.3      12 GLL5        0.0000 
     20 CA         24.3940   15.1160    1.8380 C.3       8 GLP5        0.0000 
     21 CA         23.2230   20.0970    2.3250 C.3       4 GLC5        0.0000 
     22 CA         22.2840   21.0540    0.9060 C.3       8 GLP5        0.0000 
     23 CA         21.9880   19.4125    2.2255 C.3       4 GLC5        0.0000 
     24 CA         21.6920   17.7710    3.5450 C.3      12 GLL5        0.0000 
     25 CA         20.1525   18.6310    4.5775 C.3       4 GLC5        0.0000 
     26 CA         18.6130   19.4910    5.6100 C.3       8 GLP5        0.0000 
     27 CA         21.8500   21.3065    5.5475 C.3       4 GLC5        0.0000 
     28 CA         22.3500   19.2130    5.9110 C.3      12 GLL5        0.0000 
     29 CA         21.3500   23.4000    5.1840 C.3       8 GLP5        0.0000 
     30 CA         20.4815   19.3520    5.7605 C.3       4 GLC5        0.0000 
     31 CA         24.6695   20.6950    7.7125 C.3       4 GLC5        0.0000 
     32 CA         23.2860   19.2280    7.1150 C.3      12 GLL5        0.0000 
     33 CA         26.0530   22.1620    8.3100 C.3       8 GLP5        0.0000 
     34 N          25.4540   16.4450    7.2395 N.am      2 SEC2        0.0000 
     35 N          24.5800   17.4620    8.1480 N.am     10 SEL2        0.0000 
     36 N          26.3280   15.4280    6.3310 N.am      6 SEP2        0.0000 
     37 O          25.5995   18.0830    8.8600 O.2       1 ALC1        0.0000 
     38 O          24.5800   17.4620    8.1480 O.2       9 ALL1        0.0000 
     39 O          26.6190   18.7040    9.5720 O.2       5 ALP1        0.0000 
     40 O          25.0605   17.6335    9.7145 O.2       1 ALC1        0.0000 
     41 O          25.5410   17.8050   11.2810 O.2       5 ALP1        0.0000 
     42 N          23.0850   16.5505   11.2965 N.am      2 SEC2        0.0000 
     43 N          23.1020   17.7600   10.4490 N.am     10 SEL2        0.0000 
     44 N          23.0680   15.3410   12.1440 N.am      6 SEP2        0.0000 
     45 O          24.3215   17.7825   10.8650 O.2       1 ALC1        0.0000 
     46 O          23.1020   17.7600   10.4490 O.2       9 ALL1        0.0000 
     47 CA         24.5605   21.0295    8.8130 C.3       4 GLC5        0.0000 
     48 CA         23.0680   19.8970    9.3160 C.3      12 GLL5        0.0000 
     49 CA         23.7305   20.1260   11.2650 C.3       4 GLC5        0.0000 
     50 CA         24.3930   20.3550   13.2140 C.3       8 GLP5        0.0000 
     51 CA         22.7595   21.7880    8.3885 C.3       4 GLC5        0.0000 
     52 CA         22.4510   23.6790    7.4610 C.3       8 GLP5        0.0000 
     53 CA         22.3305   21.0985   12.4935 C.3       4 GLC5        0.0000 
     54 CA         21.5810   22.4870   11.4040 C.3      12 GLL5        0.0000 
     55 CA         23.0800   19.7100   13.5830 C.3       8 GLP5        0.0000 
     56 CA         22.9870   24.8725   10.8285 C.3       4 GLC5        0.0000 
     57 CA         21.8330   23.6580   12.1170 C.3      12 GLL5        0.0000 
     58 CA         24.1410   26.0870    9.5400 C.3       8 GLP5        0.0000 
     59 CA         23.1130   22.0065   12.6655 C.3       4 GLC5        0.0000 
     60 CA         22.3585   23.6125   13.9705 C.3       4 GLC5        0.0000 
     61 CA         22.8840   23.5670   15.8240 C.3       8 GLP5        0.0000 
     62 O          19.6010   24.2520   13.4725 O.2       1 ALC1        0.0000 
     63 O          20.9450   24.3810   12.8310 O.2       9 ALL1        0.0000 
     64 O          18.2570   24.1230   14.1140 O.2       5 ALP1        0.0000 
     65 N          23.3360   24.8640   13.4090 N.am      2 SEC2        0.0000 
     66 N          23.1300   24.1000   12.1150 N.am     10 SEL2        0.0000 
     67 N          23.5420   25.6280   14.7030 N.am      6 SEP2        0.0000 
     68 CA         24.1495   24.7710   10.4980 C.3       4 GLC5        0.0000 
     69 CA         24.1580   23.4550   11.4560 C.3      12 GLL5        0.0000 
     70 CA         25.1055   22.8085    9.8830 C.3       4 GLC5        0.0000 
     71 CA         25.8330   24.0550   12.3170 C.3       4 GLC5        0.0000 
     72 CA         27.5080   24.6550   13.1780 C.3       8 GLP5        0.0000 
     73 CA         24.2755   21.9050   12.3350 C.3       4 GLC5        0.0000 
     74 CA         24.1765   25.4300   12.3220 C.3       4 GLC5        0.0000 
     75 CA         24.1950   27.4050   13.1880 C.3       8 GLP5        0.0000 
     76 CA         23.3045   23.5670    9.4585 C.3       4 GLC5        0.0000 
     77 CA         24.3570   22.0270    9.5395 C.3       4 GLC5        0.0000 
     78 CA         22.6610   21.8920   10.7690 C.3      12 GLL5        0.0000 
     79 CA         23.5270   21.1235   11.9915 C.3       4 GLC5        0.0000 
     80 CA         27.1195   18.1918    4.9180 C.3       4 GLC5        0.0000 
     81 CA         25.6190   18.8480    4.0790 C.3      12 GLL5        0.0000 
     82 CA         28.1230   17.1380    6.1730 C.3       8 GLP5        0.0000 
     83 CA         23.2462   16.2595    3.6055 C.3       4 GLC5        0.0000 
     84 CA         23.0670   18.0590    4.6930 C.3      12 GLL5        0.0000 
     85 CA         24.1130   14.6040    3.0920 C.3       8 GLP5        0.0000 
     86 CA         21.2613   17.5710    9.4207 C.3       4 GLC5        0.0000 
     87 CA         23.2610   17.9550    7.9640 C.3      12 GLL5        0.0000 
     88 CA         19.5570   16.9510   10.2150 C.3       8 GLP5        0.0000 
     89 CA         22.7653   16.3740    8.0847 C.3       4 GLC5        0.0000 
     90 CA         22.6700   18.4270    9.2890 C.3      12 GLL5        0.0000 
     91 CA         22.5650   14.5570    7.5430 C.3       8 GLP5        0.0000 
     92 CA         22.2860   22.9342    9.2737 C.3       4 GLC5        0.0000 
     93 CA         20.7780   24.3642   10.7487 C.3       4 GLC5        0.0000 
     94 CA         19.8490   25.6560    9.7370 C.3       8 GLP5        0.0000 
@<TRIPOS>BOND
@<TRIPOS>SUBSTRUCTURE
     1 ALC1        4 GROUP        1 X    ALC  0     ROOT ALC X 1
     2 SEC2       12 GROUP        1 X    SEC  0     **** SEC X 2
     3 ASC3        1 GROUP        1 X    ASC  0     **** ASC X 3
     4 GLC5        9 GROUP        1 X    GLC  0     **** GLC X 6
     5 ALP1        6 GROUP        1 Y    ALP  0     ROOT ALP Y 8
     6 SEP2       14 GROUP        1 Y    SEP  0     **** SEP Y 9
     7 ASP3        3 GROUP        1 Y    ASP  0     **** ASP Y 10
     8 GLP5       11 GROUP        1 Y    GLP  0     **** GLP Y 13
     9 ALL1        5 GROUP        1 Z    ALL  0     ROOT ALL Z 15
    10 SEL2       13 GROUP        1 Z    SEL  0     **** SEL Z 16
    11 ASL3        2 GROUP        1 Z    ASL  0     **** ASL Z 17
    12 GLL5       10 GROUP        1 Z    GLL  0     **** GLL Z 20
@<TRIPOS>SET

