#    Name: 3ndi_SAM_1_ligand
#    Modification time : Tue Mar 25 01:20:06 2014

@<TRIPOS>MOLECULE
3ndi_SAM_1_ligand
   49    51     1     0     0
SMALL
NO_CHARGES


@<TRIPOS>ATOM
      1 N          26.6860   21.0930    3.5820 N.4       1 SAM601      0.0000 
      2 CA         26.6130   19.6430    3.2470 C.3       1 SAM601      0.0000 
      3 C          26.2650   19.4700    1.7820 C.2       1 SAM601      0.0000 
      4 O          25.8770   20.4560    1.1180 O.co2     1 SAM601      0.0000 
      5 OXT        26.3580   18.3260    1.3410 O.co2     1 SAM601      0.0000 
      6 CB         25.6190   18.8480    4.0790 C.3       1 SAM601      0.0000 
      7 CG         24.1620   19.1400    3.7440 C.3       1 SAM601      0.0000 
      8 SD         23.0670   18.0590    4.6930 S.3       1 SAM601      0.0000 
      9 CE         21.6920   17.7710    3.5450 C.3       1 SAM601      0.0000 
     10 C5'        22.3500   19.2130    5.9110 C.3       1 SAM601      0.0000 
     11 C4'        23.2860   19.2280    7.1150 C.3       1 SAM601      0.0000 
     12 O4'        22.7640   20.2410    7.9550 O.3       1 SAM601      0.0000 
     13 C3'        23.2610   17.9550    7.9640 C.3       1 SAM601      0.0000 
     14 O3'        24.5800   17.4620    8.1480 O.3       1 SAM601      0.0000 
     15 C2'        22.6700   18.4270    9.2890 C.3       1 SAM601      0.0000 
     16 O2'        23.1020   17.7600   10.4490 O.3       1 SAM601      0.0000 
     17 C1'        23.0680   19.8970    9.3160 C.3       1 SAM601      0.0000 
     18 N9         22.1980   20.7590   10.1520 N.pl3     1 SAM601      0.0000 
     19 C8         20.8680   20.6790   10.4100 C.2       1 SAM601      0.0000 
     20 N7         20.4730   21.7140   11.2050 N.2       1 SAM601      0.0000 
     21 C5         21.5810   22.4870   11.4040 C.ar      1 SAM601      0.0000 
     22 C6         21.8330   23.6580   12.1170 C.ar      1 SAM601      0.0000 
     23 N6         20.9450   24.3810   12.8310 N.pl3     1 SAM601      0.0000 
     24 N1         23.1300   24.1000   12.1150 N.ar      1 SAM601      0.0000 
     25 C2         24.1580   23.4550   11.4560 C.ar      1 SAM601      0.0000 
     26 N3         23.9580   22.3060   10.7460 N.ar      1 SAM601      0.0000 
     27 C4         22.6610   21.8920   10.7690 C.ar      1 SAM601      0.0000 
     28 H          27.6063   19.1915    3.3899 H         1 SAM601      0.0000 
     29 H          25.7905   19.0637    5.1473 H         1 SAM601      0.0000 
     30 H          25.8101   17.7710    3.9354 H         1 SAM601      0.0000 
     31 H          23.8994   18.9088    2.7391 H         1 SAM601      0.0000 
     32 H          23.8410   20.1102    4.0403 H         1 SAM601      0.0000 
     33 H          21.4143   18.7802    6.1018 H         1 SAM601      0.0000 
     34 H          22.3272   20.1141    5.3755 H         1 SAM601      0.0000 
     35 H          24.2679   19.4492    6.8139 H         1 SAM601      0.0000 
     36 H          22.5961   17.2709    7.5207 H         1 SAM601      0.0000 
     37 H          21.5842   18.4214    9.1680 H         1 SAM601      0.0000 
     38 H          24.0729   19.9985    9.5096 H         1 SAM601      0.0000 
     39 H          20.2753   19.9811   10.0756 H         1 SAM601      0.0000 
     40 H          25.1216   23.8665   11.5066 H         1 SAM601      0.0000 
     41 H          27.3805   21.5651    3.0390 H         1 SAM601      0.0000 
     42 H          25.8165   21.5573    3.4135 H         1 SAM601      0.0000 
     43 H          26.9156   21.2408    4.5440 H         1 SAM601      0.0000 
     44 H          21.9990   17.3323    2.7004 H         1 SAM601      0.0000 
     45 H          20.9920   17.1793    3.9449 H         1 SAM601      0.0000 
     46 H          21.2406   18.6245    3.2846 H         1 SAM601      0.0000 
     47 H          25.0345   18.1458    8.7188 H         1 SAM601      0.0000 
     48 H          24.0767   17.9716   10.5213 H         1 SAM601      0.0000 
     49 H          20.1134   23.8259   12.8477 H         1 SAM601      0.0000 
@<TRIPOS>BOND
     1    2    1 1    
     2   41    1 1    
     3   42    1 1    
     4   43    1 1    
     5    3    2 1    
     6    6    2 1    
     7   28    2 1    
     8    4    3 ar   
     9    5    3 ar   
    10    7    6 1    
    11   29    6 1    
    12   30    6 1    
    13    8    7 1    
    14   31    7 1    
    15   32    7 1    
    16    9    8 1    
    17   10    8 1    
    18   44    9 1    
    19   45    9 1    
    20   46    9 1    
    21   11   10 1    
    22   33   10 1    
    23   34   10 1    
    24   12   11 1    
    25   13   11 1    
    26   35   11 1    
    27   17   12 1    
    28   14   13 1    
    29   15   13 1    
    30   36   13 1    
    31   47   14 1    
    32   16   15 1    
    33   17   15 1    
    34   37   15 1    
    35   48   16 1    
    36   18   17 1    
    37   38   17 1    
    38   19   18 1    
    39   27   18 1    
    40   20   19 2    
    41   39   19 1    
    42   21   20 1    
    43   22   21 ar   
    44   27   21 ar   
    45   23   22 1    
    46   24   22 ar   
    47   49   23 1    
    48   25   24 ar   
    49   26   25 ar   
    50   40   25 1    
    51   27   26 ar   
@<TRIPOS>SUBSTRUCTURE
     1 SAM601      1 GROUP   
@<TRIPOS>SET

