#    Name: 4jub_TPP_4_INTS_M
#    Modification time : Tue Mar 25 06:26:35 2014

@<TRIPOS>MOLECULE
4jub_TPP_4_INTS_M
   81     0     9     0     0
SMALL
NO_CHARGES


@<TRIPOS>ATOM
      1 CA         14.2065   15.1295   -9.3415 C.3       3 GLC5        0.0000 
      2 CA         15.6220   16.4340   -8.8130 C.3       9 GLL5        0.0000 
      3 CA         12.7910   13.8250   -9.8700 C.3       6 GLP5        0.0000 
      4 CA         17.3610   15.0490  -10.5240 C.3       3 GLC5        0.0000 
      5 CA         17.0310   15.9430   -8.6670 C.3       9 GLL5        0.0000 
      6 CA         17.6910   14.1550  -12.3810 C.3       6 GLP5        0.0000 
      7 CA         16.7270   13.8540   -8.7595 C.3       3 GLC5        0.0000 
      8 CA         16.4230   11.7650   -8.8520 C.3       6 GLP5        0.0000 
      9 CA         17.5780   16.7430  -10.6645 C.3       3 GLC5        0.0000 
     10 CA         18.1250   17.5430  -12.6620 C.3       6 GLP5        0.0000 
     11 CA         16.8215   16.7330   -6.9545 C.3       3 GLC5        0.0000 
     12 CA         16.6120   17.5230   -5.2420 C.3       6 GLP5        0.0000 
     13 N          16.5575   17.9545  -10.3250 N.am      2 SEC2        0.0000 
     14 N          15.2500   17.0300   -9.9930 N.am      8 SEL2        0.0000 
     15 N          17.8650   18.8790  -10.6570 N.am      5 SEP2        0.0000 
     16 CA         14.8795   18.9870   -9.7880 C.3       3 GLC5        0.0000 
     17 CA         13.9660   17.4850  -10.1690 C.3       9 GLL5        0.0000 
     18 CA         15.7930   20.4890   -9.4070 C.3       6 GLP5        0.0000 
     19 O          14.6240   18.2385  -12.3020 O.2       1 ALC1        0.0000 
     20 O          13.6340   18.0510  -11.3320 O.2       7 ALL1        0.0000 
     21 O          15.6140   18.4260  -13.2720 O.2       4 ALP1        0.0000 
     22 CA         10.2105   16.7445   -9.2450 C.3       3 GLC5        0.0000 
     23 CA         11.6190   17.8540   -9.3050 C.3       9 GLL5        0.0000 
     24 CA          8.8020   15.6350   -9.1850 C.3       6 GLP5        0.0000 
     25 CA         12.2050   15.8395   -9.5875 C.3       3 GLC5        0.0000 
     26 CA          9.5105   18.5720   -9.4170 C.3       3 GLC5        0.0000 
     27 CA          7.4020   19.2900   -9.5290 C.3       6 GLP5        0.0000 
     28 CA         12.1505   22.9285  -10.9365 C.3       3 GLC5        0.0000 
     29 CA         11.0600   21.6450  -10.1410 C.3       9 GLL5        0.0000 
     30 CA         13.2410   24.2120  -11.7320 C.3       6 GLP5        0.0000 
     31 CA          9.6925   22.9895  -10.6940 C.3       3 GLC5        0.0000 
     32 CA          8.3250   24.3340  -11.2470 C.3       6 GLP5        0.0000 
     33 CA         11.0805   20.8680   -5.4435 C.3       3 GLC5        0.0000 
     34 CA         11.3840   19.5520   -6.7750 C.3       9 GLL5        0.0000 
     35 CA         10.7770   22.1840   -4.1120 C.3       6 GLP5        0.0000 
     36 CA         12.0610   24.2525   -9.4830 C.3       3 GLC5        0.0000 
     37 CA         12.1260   23.4700   -7.4310 C.3       9 GLL5        0.0000 
     38 CA         11.9960   25.0350  -11.5350 C.3       6 GLP5        0.0000 
     39 N          14.8790   24.8885   -5.8445 N.am      2 SEC2        0.0000 
     40 N          14.0890   25.5300   -6.6650 N.am      8 SEL2        0.0000 
     41 N          15.6690   24.2470   -5.0240 N.am      5 SEP2        0.0000 
     42 N          14.9310   24.7865   -7.2905 N.am      2 SEC2        0.0000 
     43 N          15.7730   24.0430   -7.9160 N.am      5 SEP2        0.0000 
     44 N          13.3275   26.1430   -4.0915 N.am      2 SEC2        0.0000 
     45 N          12.5250   26.5470   -5.0880 N.am      8 SEL2        0.0000 
     46 N          14.1300   25.7390   -3.0950 N.am      5 SEP2        0.0000 
     47 N          12.5280   26.9630   -9.3360 N.am      2 SEC2        0.0000 
     48 N          12.0880   26.6820   -7.6760 N.am      8 SEL2        0.0000 
     49 N          12.9680   27.2440  -10.9960 N.am      5 SEP2        0.0000 
     50 N           8.7010   26.6135   -6.5140 N.am      2 SEC2        0.0000 
     51 N           9.7810   27.4980   -6.6810 N.am      8 SEL2        0.0000 
     52 N           7.6210   25.7290   -6.3470 N.am      5 SEP2        0.0000 
     53 N          10.4800   28.1510  -10.2135 N.am      2 SEC2        0.0000 
     54 N          10.6910   28.4100   -8.7970 N.am      8 SEL2        0.0000 
     55 N          10.2690   27.8920  -11.6300 N.am      5 SEP2        0.0000 
     56 N           9.6110   29.0260   -9.3675 N.am      2 SEC2        0.0000 
     57 N           8.5310   29.6420   -9.9380 N.am      5 SEP2        0.0000 
     58 N          10.7335   25.5870   -9.3830 N.am      2 SEC2        0.0000 
     59 N           9.7760   26.1220   -8.6280 N.am      8 SEL2        0.0000 
     60 N          11.6910   25.0520  -10.1380 N.am      5 SEP2        0.0000 
     61 N           8.5475   25.6945   -8.9170 N.am      2 SEC2        0.0000 
     62 N           7.3190   25.2670   -9.2060 N.am      5 SEP2        0.0000 
     63 CA         16.7233   18.1902   -8.7245 C.3       3 GLC5        0.0000 
     64 CA         17.1200   20.1920   -8.7090 C.3       6 GLP5        0.0000 
     65 CA         13.1244   15.4552   -9.3340 C.3       3 GLC5        0.0000 
     66 CA         13.5457   19.1216   -8.6654 C.3       3 GLC5        0.0000 
     67 CA         13.0390   17.3610   -9.1390 C.3       9 GLL5        0.0000 
     68 CA         14.6690   20.7890   -8.4080 C.3       6 GLP5        0.0000 
     69 CA         12.9225   20.8255   -9.3490 C.3       3 GLC5        0.0000 
     70 CA         11.2920   20.0790  -10.4390 C.3       9 GLL5        0.0000 
     71 CA          9.2890   20.0760   -9.9095 C.3       3 GLC5        0.0000 
     72 CA          9.1925   21.0120   -8.1545 C.3       3 GLC5        0.0000 
     73 CA         11.1110   21.3960   -8.5580 C.3       9 GLL5        0.0000 
     74 CA          7.3820   20.0130   -8.1770 C.3       6 GLP5        0.0000 
     75 CA          9.5392   19.4287   -7.2672 C.3       3 GLC5        0.0000 
     76 CA         11.3010   20.0610   -8.1940 C.3       9 GLL5        0.0000 
     77 CA          7.7360   19.0510   -7.0500 C.3       6 GLP5        0.0000 
     78 CA         12.9820   20.4646   -7.9917 C.3       3 GLC5        0.0000 
     79 CA         13.0898   21.9185   -7.9882 C.3       3 GLC5        0.0000 
     80 CA         10.8950   22.6260   -7.7060 C.3       9 GLL5        0.0000 
     81 CA         11.1437   22.6160   -5.8403 C.3       3 GLC5        0.0000 
@<TRIPOS>BOND
@<TRIPOS>SUBSTRUCTURE
     1 ALC1       19 GROUP        1 X    ALC  0     ROOT ALC X 1
     2 SEC2       13 GROUP        1 X    SEC  0     **** SEC X 2
     3 GLC5        1 GROUP        1 X    GLC  0     **** GLC X 6
     4 ALP1       21 GROUP        1 Y    ALP  0     ROOT ALP Y 8
     5 SEP2       15 GROUP        1 Y    SEP  0     **** SEP Y 9
     6 GLP5        3 GROUP        1 Y    GLP  0     **** GLP Y 13
     7 ALL1       20 GROUP        1 Z    ALL  0     ROOT ALL Z 15
     8 SEL2       14 GROUP        1 Z    SEL  0     **** SEL Z 16
     9 GLL5        2 GROUP        1 Z    GLL  0     **** GLL Z 20
@<TRIPOS>SET

