#    Name: 4jub_TPP_4_ligand
#    Modification time : Tue Mar 25 06:26:35 2014

@<TRIPOS>MOLECULE
4jub_TPP_4_ligand
   42    43     1     0     0
SMALL
NO_CHARGES


@<TRIPOS>ATOM
      1 N1'        14.7030   16.2940   -7.7890 N.ar      1 TPP602      0.0000 
      2 C2'        15.6220   16.4340   -8.8130 C.ar      1 TPP602      0.0000 
      3 CM2        17.0310   15.9430   -8.6670 C.3       1 TPP602      0.0000 
      4 N3'        15.2500   17.0300   -9.9930 N.ar      1 TPP602      0.0000 
      5 C4'        13.9660   17.4850  -10.1690 C.ar      1 TPP602      0.0000 
      6 N4'        13.6340   18.0510  -11.3320 N.pl3     1 TPP602      0.0000 
      7 C5'        13.0390   17.3610   -9.1390 C.ar      1 TPP602      0.0000 
      8 C6'        13.4130   16.7480   -7.9420 C.ar      1 TPP602      0.0000 
      9 C7'        11.6190   17.8540   -9.3050 C.3       1 TPP602      0.0000 
     10 N3         11.4260   19.2950   -9.3060 N.pl3     1 TPP602      0.0000 
     11 C2         11.2920   20.0790  -10.4390 C.2       1 TPP602      0.0000 
     12 S1         11.0600   21.6450  -10.1410 S.3       1 TPP602      0.0000 
     13 C5         11.1110   21.3960   -8.5580 C.2       1 TPP602      0.0000 
     14 C4         11.3010   20.0610   -8.1940 C.2       1 TPP602      0.0000 
     15 CM4        11.3840   19.5520   -6.7750 C.3       1 TPP602      0.0000 
     16 C6         10.8950   22.6260   -7.7060 C.3       1 TPP602      0.0000 
     17 C7         12.1260   23.4700   -7.4310 C.3       1 TPP602      0.0000 
     18 O7         11.7450   24.4880   -6.5090 O.3       1 TPP602      0.0000 
     19 PA         12.6230   25.8320   -6.4170 P.3       1 TPP602      0.0000 
     20 O1A        14.0890   25.5300   -6.6650 O.co2     1 TPP602      0.0000 
     21 O2A        12.5250   26.5470   -5.0880 O.co2     1 TPP602      0.0000 
     22 O3A        12.0880   26.6820   -7.6760 O.3       1 TPP602      0.0000 
     23 PB         10.5790   27.1780   -7.9170 P.3       1 TPP602      0.0000 
     24 O1B         9.7810   27.4980   -6.6810 O.co2     1 TPP602      0.0000 
     25 O2B        10.6910   28.4100   -8.7970 O.co2     1 TPP602      0.0000 
     26 O3B         9.7760   26.1220   -8.6280 O.co2     1 TPP602      0.0000 
     27 H          12.6905   18.3729  -11.4113 H         1 TPP602      0.0000 
     28 H          14.3587   18.1022  -12.0192 H         1 TPP602      0.0000 
     29 H          12.7254   16.6411   -7.1882 H         1 TPP602      0.0000 
     30 H          10.9966   17.3833   -8.4958 H         1 TPP602      0.0000 
     31 H          11.2118   17.4109  -10.2545 H         1 TPP602      0.0000 
     32 H          11.3178   19.8227  -11.3601 H         1 TPP602      0.0000 
     33 H          10.4510   22.3161   -6.7320 H         1 TPP602      0.0000 
     34 H          10.1237   23.2685   -8.1899 H         1 TPP602      0.0000 
     35 H          12.4709   23.8851   -8.3753 H         1 TPP602      0.0000 
     36 H          12.8984   22.8214   -7.0241 H         1 TPP602      0.0000 
     37 H          17.5720   16.1169   -9.4898 H         1 TPP602      0.0000 
     38 H          17.5028   16.3890   -7.9064 H         1 TPP602      0.0000 
     39 H          17.0653   14.9583   -8.4963 H         1 TPP602      0.0000 
     40 H          12.2685   19.1262   -6.5843 H         1 TPP602      0.0000 
     41 H          11.2633   20.2879   -6.1088 H         1 TPP602      0.0000 
     42 H          10.6815   18.8663   -6.5847 H         1 TPP602      0.0000 
@<TRIPOS>BOND
     1    2    1 ar   
     2    8    1 ar   
     3    3    2 1    
     4    4    2 ar   
     5   37    3 1    
     6   38    3 1    
     7   39    3 1    
     8    5    4 ar   
     9    6    5 1    
    10    7    5 ar   
    11   27    6 1    
    12   28    6 1    
    13    8    7 ar   
    14    9    7 1    
    15   29    8 1    
    16   10    9 1    
    17   30    9 1    
    18   31    9 1    
    19   11   10 2    
    20   14   10 1    
    21   12   11 1    
    22   32   11 1    
    23   13   12 1    
    24   14   13 2    
    25   16   13 1    
    26   15   14 1    
    27   40   15 1    
    28   41   15 1    
    29   42   15 1    
    30   17   16 1    
    31   33   16 1    
    32   34   16 1    
    33   18   17 1    
    34   35   17 1    
    35   36   17 1    
    36   19   18 1    
    37   20   19 ar   
    38   21   19 ar   
    39   22   19 1    
    40   23   22 1    
    41   24   23 ar   
    42   25   23 ar   
    43   26   23 ar   
@<TRIPOS>SUBSTRUCTURE
     1 TPP602      1 GROUP   
@<TRIPOS>SET

