#    Name: 1AO0_3_CAVITY_N1_6.mol2
#    Modification time : Mon Mar 10 13:29:44 2014

@<TRIPOS>MOLECULE
1AO0_3_CAVITY_N1_6.mol2
  109     0     7     0     0
SMALL
NO_CHARGES


@<TRIPOS>ATOM
      1 CA         66.6644  -14.6943   91.9363 C.3       6 GLY6        0.0000 
      2 CA         66.8417  -13.9008   90.6758 C.3       6 GLY6        0.0000 
      3 N          65.2002  -14.8346   91.6420 N.2       2 ALA2        0.0000 
      4 N          65.3776  -14.0410   90.3815 N.2       2 ALA2        0.0000 
      5 N          65.5549  -13.2475   89.1210 N.2       2 ALA2        0.0000 
      6 CA         65.7323  -12.4539   87.8605 C.3       6 GLY6        0.0000 
      7 CZ         65.9096  -11.6604   86.6000 C.ar      5 PHE5        0.0000 
      8 N          64.2681  -12.5942   87.5662 N.2       2 ALA2        0.0000 
      9 CZ         64.4455  -11.8006   86.3057 C.ar      5 PHE5        0.0000 
     10 N          62.8040  -12.7344   87.2719 N.2       2 ALA2        0.0000 
     11 N          62.9813  -11.9408   86.0115 N.2       2 ALA2        0.0000 
     12 CZ         63.1587  -11.1473   84.7510 C.ar      5 PHE5        0.0000 
     13 N          61.3398  -12.8746   86.9777 N.2       2 ALA2        0.0000 
     14 N          61.5172  -12.0811   85.7172 N.2       2 ALA2        0.0000 
     15 OG         61.6945  -11.2875   84.4567 O.2       1 SER1        0.0000 
     16 OG         61.8719  -10.4940   83.1962 O.2       1 SER1        0.0000 
     17 CA         66.5682  -12.6356   91.4338 C.3       6 GLY6        0.0000 
     18 N          65.1041  -12.7759   91.1395 N.2       2 ALA2        0.0000 
     19 N          65.2814  -11.9823   89.8790 N.2       2 ALA2        0.0000 
     20 CA         65.4588  -11.1888   88.6185 C.3       6 GLY6        0.0000 
     21 CA         63.9946  -11.3290   88.3242 C.3       6 GLY6        0.0000 
     22 CZ         64.1720  -10.5355   87.0637 C.ar      5 PHE5        0.0000 
     23 N          62.7078  -10.6757   86.7694 N.2       2 ALA2        0.0000 
     24 CZ         61.5984   -9.2288   83.9542 C.ar      5 PHE5        0.0000 
     25 CA         65.9246  -16.5713   88.8655 C.3       6 GLY6        0.0000 
     26 CA         64.2831  -17.5051   89.8317 C.3       6 GLY6        0.0000 
     27 CA         64.9925  -14.3310   84.7897 C.3       6 GLY6        0.0000 
     28 CZ         65.1698  -13.5374   83.5292 C.ar      5 PHE5        0.0000 
     29 CZ         65.3472  -12.7439   82.2687 C.ar      5 PHE5        0.0000 
     30 CA         62.9963  -16.8518   88.2769 C.3       6 GLY6        0.0000 
     31 CA         63.1736  -16.0582   87.0165 C.3       6 GLY6        0.0000 
     32 CA         63.3510  -15.2647   85.7560 C.3       6 GLY6        0.0000 
     33 CA         63.5283  -14.4712   84.4955 C.3       6 GLY6        0.0000 
     34 DU         63.7057  -13.6776   83.2350 H         7 CUB7        0.0000 
     35 OG         63.8830  -12.8841   81.9745 O.2       1 SER1        0.0000 
     36 CA         61.7095  -16.1985   86.7222 C.3       6 GLY6        0.0000 
     37 DU         61.8868  -15.4049   85.4617 H         7 CUB7        0.0000 
     38 DU         62.0642  -14.6114   84.2012 H         7 CUB7        0.0000 
     39 DU         62.2415  -13.8178   82.9407 H         7 CUB7        0.0000 
     40 OG         62.4189  -13.0243   81.6802 O.2       1 SER1        0.0000 
     41 OG         60.4227  -15.5451   85.1674 O.2       1 SER1        0.0000 
     42 DU         60.6000  -14.7516   83.9069 H         7 CUB7        0.0000 
     43 DU         60.7774  -13.9581   82.6464 H         7 CUB7        0.0000 
     44 DU         59.1359  -14.8918   83.6126 H         7 CUB7        0.0000 
     45 CA         66.9379  -15.9595   91.1783 C.3       6 GLY6        0.0000 
     46 CA         67.1152  -15.1660   89.9178 C.3       6 GLY6        0.0000 
     47 CA         65.4737  -16.0997   90.8840 C.3       6 GLY6        0.0000 
     48 CA         65.6511  -15.3062   89.6235 C.3       6 GLY6        0.0000 
     49 CA         65.8284  -14.5126   88.3630 C.3       6 GLY6        0.0000 
     50 CA         66.0058  -13.7191   87.1025 C.3       6 GLY6        0.0000 
     51 CZ         66.1831  -12.9256   85.8420 C.ar      5 PHE5        0.0000 
     52 N          64.0096  -16.2399   90.5897 N.2       2 ALA2        0.0000 
     53 N          64.1869  -15.4464   89.3292 N.2       2 ALA2        0.0000 
     54 N          64.3643  -14.6529   88.0687 N.2       2 ALA2        0.0000 
     55 CA         64.5416  -13.8593   86.8082 C.3       6 GLY6        0.0000 
     56 CZ         64.7190  -13.0658   85.5477 C.ar      5 PHE5        0.0000 
     57 CZ         64.8963  -12.2723   84.2872 C.ar      5 PHE5        0.0000 
     58 CA         62.5454  -16.3801   90.2954 C.3       6 GLY6        0.0000 
     59 N          62.7228  -15.5866   89.0349 N.2       2 ALA2        0.0000 
     60 N          62.9001  -14.7931   87.7744 N.2       2 ALA2        0.0000 
     61 DU         63.0775  -13.9995   86.5140 H         7 CUB7        0.0000 
     62 DU         63.2548  -13.2060   85.2535 H         7 CUB7        0.0000 
     63 CZ         63.4322  -12.4125   83.9930 C.ar      5 PHE5        0.0000 
     64 CA         61.4360  -14.9333   87.4802 C.3       6 GLY6        0.0000 
     65 N          61.6133  -14.1398   86.2197 N.2       2 ALA2        0.0000 
     66 OG         61.7907  -13.3462   84.9592 O.2       1 SER1        0.0000 
     67 DU         61.9680  -12.5527   83.6987 H         7 CUB7        0.0000 
     68 OG         62.1454  -11.7591   82.4382 O.2       1 SER1        0.0000 
     69 OG         60.1492  -14.2800   85.9254 O.2       1 SER1        0.0000 
     70 OG         60.3265  -13.4864   84.6649 O.2       1 SER1        0.0000 
     71 OG         60.5039  -12.6929   83.4044 O.2       1 SER1        0.0000 
     72 DU         60.6812  -11.8994   82.1439 H         7 CUB7        0.0000 
     73 CA         64.0753  -17.0015   82.9795 C.3       6 GLY6        0.0000 
     74 DU         64.2527  -16.2080   81.7190 H         7 CUB7        0.0000 
     75 OG         64.4300  -15.4144   80.4585 O.2       1 SER1        0.0000 
     76 NZ         64.6074  -14.6209   79.1980 N.2       4 LYS4        0.0000 
     77 O          62.6112  -17.1417   82.6852 O.2       2 ALA2        0.0000 
     78 O          62.7885  -16.3482   81.4247 O.2       2 ALA2        0.0000 
     79 O          62.9659  -15.5546   80.1642 O.2       2 ALA2        0.0000 
     80 NZ         63.1432  -14.7611   78.9037 N.2       4 LYS4        0.0000 
     81 OG         66.9075  -14.6624   83.0655 O.2       1 SER1        0.0000 
     82 OG         67.0848  -13.8688   81.8050 O.2       1 SER1        0.0000 
     83 CA         65.4433  -14.8026   82.7712 C.3       6 GLY6        0.0000 
     84 NZ         65.6207  -14.0090   81.5108 N.2       4 LYS4        0.0000 
     85 CA         63.8018  -15.7363   83.7375 C.3       6 GLY6        0.0000 
     86 DU         63.9792  -14.9428   82.4770 H         7 CUB7        0.0000 
     87 NZ         64.1565  -14.1493   81.2165 N.2       4 LYS4        0.0000 
     88 CA         62.1603  -16.6701   84.7037 C.3       6 GLY6        0.0000 
     89 DU         62.3377  -15.8765   83.4432 H         7 CUB7        0.0000 
     90 DU         62.5150  -15.0830   82.1827 H         7 CUB7        0.0000 
     91 DU         62.6924  -14.2895   80.9222 H         7 CUB7        0.0000 
     92 NZ         62.8697  -13.4959   79.6617 N.2       4 LYS4        0.0000 
     93 OG         60.6962  -16.8103   84.4094 O.2       1 SER1        0.0000 
     94 O          60.8735  -16.0168   83.1489 O.2       2 ALA2        0.0000 
     95 DU         61.0509  -15.2232   81.8884 H         7 CUB7        0.0000 
     96 DU         59.4094  -16.1570   82.8546 H         7 CUB7        0.0000 
     97 N          67.4545  -17.1927   81.5495 N.2       2 ALA2        0.0000 
     98 NZ         67.6318  -16.3992   80.2890 N.2       4 LYS4        0.0000 
     99 NZ         67.8092  -15.6056   79.0285 N.2       4 LYS4        0.0000 
    100 OG         65.9903  -17.3329   81.2553 O.2       1 SER1        0.0000 
    101 OG         66.1677  -16.5394   79.9948 O.2       1 SER1        0.0000 
    102 CA         66.3450  -15.7458   78.7343 C.3       6 GLY6        0.0000 
    103 OG         64.5262  -17.4731   80.9610 O.2       1 SER1        0.0000 
    104 OG         63.2394  -16.8198   79.4062 O.2       1 SER1        0.0000 
    105 OG         67.1810  -15.9275   82.3075 O.2       1 SER1        0.0000 
    106 OD1        67.3583  -15.1340   81.0470 O.3       3 ASP3        0.0000 
    107 CA         65.7168  -16.0677   82.0133 C.3       6 GLY6        0.0000 
    108 NZ         65.8942  -15.2742   80.7528 N.2       4 LYS4        0.0000 
    109 NZ         66.0715  -14.4807   79.4923 N.2       4 LYS4        0.0000 
@<TRIPOS>BOND
@<TRIPOS>SUBSTRUCTURE
     1 SER1       15 GROUP   
     2 ALA2        3 GROUP   
     3 ASP3      106 GROUP   
     4 LYS4       76 GROUP   
     5 PHE5        7 GROUP   
     6 GLY6        1 GROUP   
     7 CUB7       34 GROUP   
@<TRIPOS>SET

