#    Name: 1ao0_5GP_3_INTS_M
#    Modification time : Mon Mar 24 18:33:58 2014

@<TRIPOS>MOLECULE
1ao0_5GP_3_INTS_M
   49     0    15     0     0
SMALL
NO_CHARGES


@<TRIPOS>ATOM
      1 NZ         62.5950  -19.7555   80.4835 N.4       3 LYC4        0.0000 
      2 NZ         64.1710  -19.6860   80.2500 N.4      13 LYL4        0.0000 
      3 NZ         61.0190  -19.8250   80.7170 N.4       8 LYP4        0.0000 
      4 N          64.6205  -20.3420   79.0665 N.am      2 SEC2        0.0000 
      5 N          64.1710  -19.6860   80.2500 N.am     12 SEL2        0.0000 
      6 N          65.0700  -20.9980   77.8830 N.am      7 SEP2        0.0000 
      7 N          64.3545  -18.9670   79.0190 N.am      2 SEC2        0.0000 
      8 N          64.5380  -18.2480   77.7880 N.am      7 SEP2        0.0000 
      9 NZ         62.6010  -19.3980   82.3195 N.4       3 LYC4        0.0000 
     10 NZ         63.9750  -19.0710   82.6130 N.4      13 LYL4        0.0000 
     11 N          64.2205  -20.0440   83.5650 N.am      2 SEC2        0.0000 
     12 N          63.9750  -19.0710   82.6130 N.am     12 SEL2        0.0000 
     13 N          64.4660  -21.0170   84.5170 N.am      7 SEP2        0.0000 
     14 N          62.6010  -19.3980   82.3195 N.am      2 SEC2        0.0000 
     15 N          61.2270  -19.7250   82.0260 N.am      7 SEP2        0.0000 
     16 N          66.6225  -19.6920   83.1945 N.am      2 SEC2        0.0000 
     17 N          66.1100  -19.9150   81.7300 N.am     12 SEL2        0.0000 
     18 N          67.1350  -19.4690   84.6590 N.am      7 SEP2        0.0000 
     19 N          65.8980  -21.1800   82.1065 N.am      2 SEC2        0.0000 
     20 N          65.6860  -22.4450   82.4830 N.am      7 SEP2        0.0000 
     21 CA         68.0010  -18.1090   82.7805 C.3       5 GLC5        0.0000 
     22 CA         66.5990  -17.1150   81.6580 C.3      15 GLL5        0.0000 
     23 CA         69.4030  -19.1030   83.9030 C.3      10 GLP5        0.0000 
     24 CA         66.1830  -17.0950   83.6740 C.3       5 GLC5        0.0000 
     25 CA         65.7670  -17.0750   85.6900 C.3      10 GLP5        0.0000 
     26 CA         66.2255  -17.9235   79.5925 C.3       5 GLC5        0.0000 
     27 CA         65.8520  -18.7320   77.5270 C.3      10 GLP5        0.0000 
     28 CA         69.1140  -14.9550   83.4395 C.3       5 GLC5        0.0000 
     29 CA         67.8050  -14.8220   81.8050 C.3      15 GLL5        0.0000 
     30 CA         70.4230  -15.0880   85.0740 C.3      10 GLP5        0.0000 
     31 Zn         69.2030  -13.9085   80.0965 Zn        4 ZIC7        0.0000 
     32 Zn         68.9350  -14.8250   80.9030 Zn       14 ZIL7        0.0000 
     33 Zn         69.4710  -12.9920   79.2900 Zn        9 ZIP7        0.0000 
     34 CA         68.1340  -12.1040   80.2805 C.3       5 GLC5        0.0000 
     35 CA         67.2070  -13.4250   81.5740 C.3      15 GLL5        0.0000 
     36 CA         69.0610  -10.7830   78.9870 C.3      10 GLP5        0.0000 
     37 Zn         68.6230  -12.9310   79.8290 Zn        4 ZIC7        0.0000 
     38 Zn         67.7750  -12.8700   80.3680 Zn       14 ZIL7        0.0000 
     39 N          69.0005  -12.6605   80.7160 N.am      2 SEC2        0.0000 
     40 N          67.7750  -12.8700   80.3680 N.am     12 SEL2        0.0000 
     41 N          70.2260  -12.4510   81.0640 N.am      7 SEP2        0.0000 
     42 O          68.0335  -14.3015   85.4050 O.2       1 ALC1        0.0000 
     43 O          66.8730  -13.8940   86.3610 O.2      11 ALL1        0.0000 
     44 O          69.1940  -14.7090   84.4490 O.2       6 ALP1        0.0000 
     45 CA         65.3485  -15.1155   84.6675 C.3       5 GLC5        0.0000 
     46 CA         64.9300  -13.1560   83.6450 C.3      15 GLL5        0.0000 
     47 CA         66.6360  -11.8012   81.8002 C.3       5 GLC5        0.0000 
     48 CA         65.7310  -13.7100   81.3410 C.3      15 GLL5        0.0000 
     49 CA         66.8030  -10.0350   82.1430 C.3      10 GLP5        0.0000 
@<TRIPOS>BOND
@<TRIPOS>SUBSTRUCTURE
     1 ALC1       42 GROUP        1 X    ALC  0     ROOT ALC X 1
     2 SEC2        4 GROUP        1 X    SEC  0     **** SEC X 2
     3 LYC4        1 GROUP        1 X    LYC  0     **** LYC X 4
     4 ZIC7       31 GROUP        1 X    ZIC  0     **** ZIC X 5
     5 GLC5       21 GROUP        1 X    GLC  0     **** GLC X 6
     6 ALP1       44 GROUP        1 Y    ALP  0     ROOT ALP Y 8
     7 SEP2        6 GROUP        1 Y    SEP  0     **** SEP Y 9
     8 LYP4        3 GROUP        1 Y    LYP  0     **** LYP Y 11
     9 ZIP7       33 GROUP        1 Y    ZIP  0     **** ZIP Y 12
    10 GLP5       23 GROUP        1 Y    GLP  0     **** GLP Y 13
    11 ALL1       43 GROUP        1 Z    ALL  0     ROOT ALL Z 15
    12 SEL2        5 GROUP        1 Z    SEL  0     **** SEL Z 16
    13 LYL4        2 GROUP        1 Z    LYL  0     **** LYL Z 18
    14 ZIL7       32 GROUP        1 Z    ZIL  0     **** ZIL Z 19
    15 GLL5       22 GROUP        1 Z    GLL  0     **** GLL Z 20
@<TRIPOS>SET

