#    Name: 1ao0_5GP_3_ligand
#    Modification time : Mon Mar 24 18:33:58 2014

@<TRIPOS>MOLECULE
1ao0_5GP_3_ligand
   34    36     1     0     0
SMALL
NO_CHARGES


@<TRIPOS>ATOM
      1 P          64.8830  -19.0920   81.4310 P.3       1 5GP467      0.0000 
      2 O1P        64.1710  -19.6860   80.2500 O.co2     1 5GP467      0.0000 
      3 O2P        63.9750  -19.0710   82.6130 O.co2     1 5GP467      0.0000 
      4 O3P        66.1100  -19.9150   81.7300 O.co2     1 5GP467      0.0000 
      5 O5'        65.3500  -17.6080   81.1450 O.3       1 5GP467      0.0000 
      6 C5'        66.5990  -17.1150   81.6580 C.3       1 5GP467      0.0000 
      7 C4'        66.8060  -15.7410   81.1320 C.3       1 5GP467      0.0000 
      8 O4'        65.5360  -15.1000   81.2720 O.3       1 5GP467      0.0000 
      9 C3'        67.8050  -14.8220   81.8050 C.3       1 5GP467      0.0000 
     10 O3'        68.9350  -14.8250   80.9030 O.3       1 5GP467      0.0000 
     11 C2'        67.2070  -13.4250   81.5740 C.3       1 5GP467      0.0000 
     12 O2'        67.7750  -12.8700   80.3680 O.3       1 5GP467      0.0000 
     13 C1'        65.7310  -13.7100   81.3410 C.3       1 5GP467      0.0000 
     14 N9         64.7880  -13.2110   82.2970 N.pl3     1 5GP467      0.0000 
     15 C8         63.5240  -12.6800   82.0570 C.2       1 5GP467      0.0000 
     16 N7         62.8840  -12.3160   83.1290 N.2       1 5GP467      0.0000 
     17 C5         63.7720  -12.6240   84.1410 C.2       1 5GP467      0.0000 
     18 C6         63.6270  -12.4540   85.5030 C.2       1 5GP467      0.0000 
     19 O6         62.6700  -11.9590   86.1190 O.2       1 5GP467      0.0000 
     20 N1         64.7650  -12.9190   86.1820 N.am      1 5GP467      0.0000 
     21 C2         65.8850  -13.4680   85.5730 C.2       1 5GP467      0.0000 
     22 N2         66.8730  -13.8940   86.3610 N.pl3     1 5GP467      0.0000 
     23 N3         66.0390  -13.6010   84.2810 N.2       1 5GP467      0.0000 
     24 C4         64.9300  -13.1560   83.6450 C.2       1 5GP467      0.0000 
     25 H          67.4311  -17.7483   81.3407 H         1 5GP467      0.0000 
     26 H          66.5891  -17.0818   82.7503 H         1 5GP467      0.0000 
     27 H          67.0350  -15.7891   80.0662 H         1 5GP467      0.0000 
     28 H          67.9766  -15.0194   82.7352 H         1 5GP467      0.0000 
     29 H          67.3323  -12.8480   82.4181 H         1 5GP467      0.0000 
     30 H          65.4789  -13.2900   80.3356 H         1 5GP467      0.0000 
     31 H          63.1770  -12.6040   81.1159 H         1 5GP467      0.0000 
     32 H          64.7622  -12.8420   87.2408 H         1 5GP467      0.0000 
     33 H          66.7425  -13.7576   87.3430 H         1 5GP467      0.0000 
     34 H          67.6555  -14.3115   85.8990 H         1 5GP467      0.0000 
@<TRIPOS>BOND
     1    2    1 ar   
     2    3    1 ar   
     3    4    1 ar   
     4    5    1 1    
     5    6    5 1    
     6    7    6 1    
     7   25    6 1    
     8   26    6 1    
     9    8    7 1    
    10    9    7 1    
    11   27    7 1    
    12   13    8 1    
    13   10    9 1    
    14   11    9 1    
    15   28    9 1    
    16   12   11 1    
    17   13   11 1    
    18   29   11 1    
    19   14   13 1    
    20   30   13 1    
    21   15   14 1    
    22   24   14 1    
    23   16   15 2    
    24   31   15 1    
    25   17   16 1    
    26   18   17 1    
    27   24   17 2    
    28   19   18 2    
    29   20   18 am   
    30   21   20 1    
    31   32   20 1    
    32   22   21 1    
    33   23   21 2    
    34   33   22 1    
    35   34   22 1    
    36   24   23 1    
@<TRIPOS>SUBSTRUCTURE
     1 5GP467      1 GROUP   
@<TRIPOS>SET

