#    Name: 4gii_0X6_1_INTS_M
#    Modification time : Mon Mar 24 22:16:22 2014

@<TRIPOS>MOLECULE
4gii_0X6_1_INTS_M
   64     0     9     0     0
SMALL
NO_CHARGES


@<TRIPOS>ATOM
      1 CA        -11.8595  -10.6060  -17.1910 C.3       3 GLC5        0.0000 
      2 CA         -9.6390  -10.8520  -17.2860 C.3       9 GLL5        0.0000 
      3 CA        -14.0800  -10.3600  -17.0960 C.3       6 GLP5        0.0000 
      4 CA         -8.2135   -2.1165  -16.4750 C.3       3 GLC5        0.0000 
      5 CA         -6.5250   -3.4120  -15.8140 C.3       9 GLL5        0.0000 
      6 CA         -9.9020   -0.8210  -17.1360 C.3       6 GLP5        0.0000 
      7 N         -11.7830  -11.8530  -16.1450 N.am      2 SEC2        0.0000 
      8 N         -10.3280  -11.2080  -16.1990 N.am      8 SEL2        0.0000 
      9 N         -13.2380  -12.4980  -16.0910 N.am      5 SEP2        0.0000 
     10 CA         -7.5885   -9.6945  -13.8725 C.3       3 GLC5        0.0000 
     11 CA         -9.4870   -9.3840  -14.9550 C.3       9 GLL5        0.0000 
     12 CA         -5.6900  -10.0050  -12.7900 C.3       6 GLP5        0.0000 
     13 CA         -8.3785  -11.6830  -15.3220 C.3       3 GLC5        0.0000 
     14 CA        -10.2740  -10.5230  -15.0600 C.3       9 GLL5        0.0000 
     15 CA         -6.4830  -12.8430  -15.5840 C.3       6 GLP5        0.0000 
     16 CA        -11.4345  -12.3375  -14.7405 C.3       3 GLC5        0.0000 
     17 CA        -12.5950  -14.1520  -14.4210 C.3       6 GLP5        0.0000 
     18 CA        -12.3385  -10.1945  -15.3725 C.3       3 GLC5        0.0000 
     19 CA        -14.4030   -9.8660  -15.6850 C.3       6 GLP5        0.0000 
     20 CA         -4.6290   -9.5460  -16.2180 C.3       3 GLC5        0.0000 
     21 CA         -4.6910   -7.5500  -15.8820 C.3       9 GLL5        0.0000 
     22 CA         -4.5670  -11.5420  -16.5540 C.3       6 GLP5        0.0000 
     23 CA         -3.0285   -7.8570  -16.3115 C.3       3 GLC5        0.0000 
     24 CA         -1.3660   -8.1640  -16.7410 C.3       6 GLP5        0.0000 
     25 CA         -4.5425   -8.3730  -14.3465 C.3       3 GLC5        0.0000 
     26 CA         -4.3940   -9.1960  -12.8110 C.3       6 GLP5        0.0000 
     27 CA         -4.7965   -1.4795  -18.1445 C.3       3 GLC5        0.0000 
     28 CA         -4.3670   -2.4620  -16.4880 C.3       9 GLL5        0.0000 
     29 CA         -5.2260   -0.4970  -19.8010 C.3       6 GLP5        0.0000 
     30 CA         -9.4435   -2.5450  -16.1150 C.3       3 GLC5        0.0000 
     31 CA         -8.9850   -4.2690  -15.0940 C.3       9 GLL5        0.0000 
     32 CA        -10.5255   -5.5405  -15.4440 C.3       3 GLC5        0.0000 
     33 CA        -12.0660   -6.8120  -15.7940 C.3       6 GLP5        0.0000 
     34 CA        -10.5720   -3.9050  -14.4095 C.3       3 GLC5        0.0000 
     35 CA        -12.1590   -3.5410  -13.7250 C.3       6 GLP5        0.0000 
     36 CA         -8.4995   -3.2070  -13.3955 C.3       3 GLC5        0.0000 
     37 CA         -8.0140   -2.1450  -11.6970 C.3       6 GLP5        0.0000 
     38 O         -11.0565  -11.9535  -18.6230 O.2       1 ALC1        0.0000 
     39 O          -9.7530  -11.6350  -18.4470 O.2       7 ALL1        0.0000 
     40 O         -12.3600  -12.2720  -18.7990 O.2       4 ALP1        0.0000 
     41 CA         -6.8150  -13.6475  -19.4155 C.3       3 GLC5        0.0000 
     42 CA         -8.0810  -13.7660  -21.0310 C.3       9 GLL5        0.0000 
     43 CA         -5.5490  -13.5290  -17.8000 C.3       6 GLP5        0.0000 
     44 CA         -7.8628  -11.5602  -16.4260 C.3       3 GLC5        0.0000 
     45 CA         -9.9718   -9.8628  -19.1880 C.3       3 GLC5        0.0000 
     46 CA        -10.7010   -9.4480  -21.1080 C.3       6 GLP5        0.0000 
     47 CA         -9.8741   -8.1234  -17.2795 C.3       3 GLC5        0.0000 
     48 CA         -8.7340   -8.9640  -16.0700 C.3       9 GLL5        0.0000 
     49 CA        -10.7600   -6.6260  -17.8900 C.3       6 GLP5        0.0000 
     50 CA         -5.3450   -6.8460  -13.9367 C.3       3 GLC5        0.0000 
     51 CA         -6.7500   -5.7940  -15.4840 C.3       9 GLL5        0.0000 
     52 CA         -4.6160   -7.8100  -12.2130 C.3       6 GLP5        0.0000 
     53 CA         -3.7835   -3.1030  -14.3645 C.3       3 GLC5        0.0000 
     54 CA         -5.1770   -3.5900  -16.1520 C.3       9 GLL5        0.0000 
     55 CA         -2.7950   -3.1800  -12.4090 C.3       6 GLP5        0.0000 
     56 CA         -9.5237  -11.2222  -13.6227 C.3       3 GLC5        0.0000 
     57 CA         -9.1670  -12.4910  -12.2380 C.3       6 GLP5        0.0000 
     58 CA        -11.2532   -9.1842  -13.7287 C.3       3 GLC5        0.0000 
     59 CA        -12.6260   -8.4150  -12.4500 C.3       6 GLP5        0.0000 
     60 CA        -10.9733   -8.3828  -15.4008 C.3       3 GLC5        0.0000 
     61 CA         -9.2830  -14.2405  -19.3470 C.3       3 GLC5        0.0000 
     62 CA         -9.1230  -12.7580  -20.5430 C.3       9 GLL5        0.0000 
     63 CA         -9.9640  -15.2190  -17.9070 C.3       6 GLP5        0.0000 
     64 CA         -9.7385  -11.0505  -21.1627 C.3       3 GLC5        0.0000 
@<TRIPOS>BOND
@<TRIPOS>SUBSTRUCTURE
     1 ALC1       38 GROUP        1 X    ALC  0     ROOT ALC X 1
     2 SEC2        7 GROUP        1 X    SEC  0     **** SEC X 2
     3 GLC5        1 GROUP        1 X    GLC  0     **** GLC X 6
     4 ALP1       40 GROUP        1 Y    ALP  0     ROOT ALP Y 8
     5 SEP2        9 GROUP        1 Y    SEP  0     **** SEP Y 9
     6 GLP5        3 GROUP        1 Y    GLP  0     **** GLP Y 13
     7 ALL1       39 GROUP        1 Z    ALL  0     ROOT ALL Z 15
     8 SEL2        8 GROUP        1 Z    SEL  0     **** SEL Z 16
     9 GLL5        2 GROUP        1 Z    GLL  0     **** GLL Z 20
@<TRIPOS>SET

