#    Name: 4gii_0X6_1_ligand
#    Modification time : Mon Mar 24 22:16:22 2014

@<TRIPOS>MOLECULE
4gii_0X6_1_ligand
   37    39     1     0     0
SMALL
NO_CHARGES


@<TRIPOS>ATOM
      1 C4         -9.6390  -10.8520  -17.2860 C.ar      1 0X61201     0.0000 
      2 C14        -4.6160   -4.8750  -16.1640 C.ar      1 0X61201     0.0000 
      3 C5         -8.8460   -9.7030  -17.2500 C.ar      1 0X61201     0.0000 
      4 C6         -8.7340   -8.9640  -16.0700 C.ar      1 0X61201     0.0000 
      5 C11        -7.3100   -4.5030  -15.4890 C.ar      1 0X61201     0.0000 
      6 C8         -7.5980   -6.9540  -15.1290 C.2       1 0X61201     0.0000 
      7 C10        -6.7500   -5.7940  -15.4840 C.ar      1 0X61201     0.0000 
      8 C12        -6.5250   -3.4120  -15.8140 C.ar      1 0X61201     0.0000 
      9 C13        -5.1770   -3.5900  -16.1520 C.ar      1 0X61201     0.0000 
     10 N3        -10.3280  -11.2080  -16.1990 N.ar      1 0X61201     0.0000 
     11 C1         -9.4870   -9.3840  -14.9550 C.ar      1 0X61201     0.0000 
     12 C2        -10.2740  -10.5230  -15.0600 C.ar      1 0X61201     0.0000 
     13 N7         -7.9330   -7.8120  -16.1230 N.am      1 0X61201     0.0000 
     14 O9         -7.9630   -7.0850  -13.9710 O.2       1 0X61201     0.0000 
     15 C15        -5.3980   -5.9700  -15.8370 C.ar      1 0X61201     0.0000 
     16 CL1        -4.6910   -7.5500  -15.8820 Cl        1 0X61201     0.0000 
     17 C17        -4.3670   -2.4620  -16.4880 C.1       1 0X61201     0.0000 
     18 N18        -3.7160   -1.5720  -16.7520 N.1       1 0X61201     0.0000 
     19 CL2        -8.9850   -4.2690  -15.0940 Cl        1 0X61201     0.0000 
     20 N20        -9.7530  -11.6350  -18.4470 N.am      1 0X61201     0.0000 
     21 C21        -8.7770  -11.8630  -19.3710 C.2       1 0X61201     0.0000 
     22 O22        -7.6650  -11.3590  -19.2850 O.2       1 0X61201     0.0000 
     23 C23        -9.1230  -12.7580  -20.5430 C.3       1 0X61201     0.0000 
     24 C24        -8.4290  -12.5480  -21.8920 C.3       1 0X61201     0.0000 
     25 C25        -8.0810  -13.7660  -21.0310 C.3       1 0X61201     0.0000 
     26 H          -3.6287   -4.9953  -16.4153 H         1 0X61201     0.0000 
     27 H          -8.3436   -9.4004  -18.0936 H         1 0X61201     0.0000 
     28 H          -6.9243   -2.4636  -15.8100 H         1 0X61201     0.0000 
     29 H          -9.4478   -8.8514  -14.0863 H         1 0X61201     0.0000 
     30 H         -10.8190  -10.8236  -14.2222 H         1 0X61201     0.0000 
     31 H          -7.5287   -7.5894  -17.1192 H         1 0X61201     0.0000 
     32 H         -10.7135  -12.0941  -18.6089 H         1 0X61201     0.0000 
     33 H          -9.9863  -13.1531  -20.7470 H         1 0X61201     0.0000 
     34 H          -7.7481  -11.9068  -21.7629 H         1 0X61201     0.0000 
     35 H          -9.0247  -12.8382  -22.5646 H         1 0X61201     0.0000 
     36 H          -8.5470  -14.5065  -21.3869 H         1 0X61201     0.0000 
     37 H          -7.2705  -13.5750  -20.5852 H         1 0X61201     0.0000 
@<TRIPOS>BOND
     1    3    1 ar   
     2   10    1 ar   
     3   20    1 1    
     4    9    2 ar   
     5   15    2 ar   
     6   26    2 1    
     7    4    3 ar   
     8   27    3 1    
     9   11    4 ar   
    10   13    4 1    
    11    7    5 ar   
    12    8    5 ar   
    13   19    5 1    
    14    7    6 1    
    15   13    6 am   
    16   14    6 2    
    17   15    7 ar   
    18    9    8 ar   
    19   28    8 1    
    20   17    9 1    
    21   12   10 ar   
    22   12   11 ar   
    23   29   11 1    
    24   30   12 1    
    25   31   13 1    
    26   16   15 1    
    27   18   17 3    
    28   21   20 am   
    29   32   20 1    
    30   22   21 2    
    31   23   21 1    
    32   24   23 1    
    33   25   23 1    
    34   33   23 1    
    35   25   24 1    
    36   34   24 1    
    37   35   24 1    
    38   36   25 1    
    39   37   25 1    
@<TRIPOS>SUBSTRUCTURE
     1 0X61201     1 GROUP   
@<TRIPOS>SET

