#    Name: 2nv7_555_1_INTS_M
#    Modification time : Tue Mar 25 21:37:17 2014

@<TRIPOS>MOLECULE
2nv7_555_1_INTS_M
   54     0     9     0     0
SMALL
NO_CHARGES


@<TRIPOS>ATOM
      1 CA         28.0030   40.6055   37.1395 C.3       3 GLC5        0.0000 
      2 CA         29.8190   39.6440   37.4490 C.3       9 GLL5        0.0000 
      3 CA         26.1870   41.5670   36.8300 C.3       6 GLP5        0.0000 
      4 CA         31.6605   38.9590   34.8540 C.3       3 GLC5        0.0000 
      5 CA         31.8240   38.3530   36.9790 C.3       9 GLL5        0.0000 
      6 CA         31.4970   39.5650   32.7290 C.3       6 GLP5        0.0000 
      7 CA         33.4300   33.6280   38.3960 C.3       3 GLC5        0.0000 
      8 CA         31.8290   35.0790   39.0110 C.3       9 GLL5        0.0000 
      9 CA         35.0310   32.1770   37.7810 C.3       6 GLP5        0.0000 
     10 CA         30.1115   33.7815   41.0680 C.3       3 GLC5        0.0000 
     11 CA         30.5950   35.2080   39.6850 C.3       9 GLL5        0.0000 
     12 CA         29.6280   32.3550   42.4510 C.3       6 GLP5        0.0000 
     13 CA         29.7050   37.8615   42.1715 C.3       3 GLC5        0.0000 
     14 CA         28.4910   36.1420   41.7510 C.3       9 GLL5        0.0000 
     15 CA         30.9190   39.5810   42.5920 C.3       6 GLP5        0.0000 
     16 CA         27.4875   36.6800   44.3510 C.3       3 GLC5        0.0000 
     17 CA         27.3050   36.0800   42.5170 C.3       9 GLL5        0.0000 
     18 CA         27.6700   37.2800   46.1850 C.3       6 GLP5        0.0000 
     19 CA         27.2430   35.0355   38.2455 C.3       3 GLC5        0.0000 
     20 CA         27.1200   36.3940   39.7030 C.3       9 GLL5        0.0000 
     21 CA         27.3660   33.6770   36.7880 C.3       6 GLP5        0.0000 
     22 N          23.9260   36.9500   43.5720 N.am      2 SEC2        0.0000 
     23 N          24.8930   36.1110   42.5910 N.am      8 SEL2        0.0000 
     24 N          22.9590   37.7890   44.5530 N.am      5 SEP2        0.0000 
     25 O          25.2260   35.3325   43.6280 O.2       1 ALC1        0.0000 
     26 O          24.8930   36.1110   42.5910 O.2       7 ALL1        0.0000 
     27 O          25.5590   34.5540   44.6650 O.2       4 ALP1        0.0000 
     28 O          24.1910   35.3980   43.9800 O.2       1 ALC1        0.0000 
     29 O          23.4890   34.6850   45.3690 O.2       4 ALP1        0.0000 
     30 O          35.8695   37.0360   35.4335 O.2       1 ALC1        0.0000 
     31 O          35.5230   36.1340   36.4080 O.2       7 ALL1        0.0000 
     32 O          36.2160   37.9380   34.4590 O.2       4 ALP1        0.0000 
     33 CA         32.9600   39.9150   36.4895 C.3       3 GLC5        0.0000 
     34 CA         34.4930   40.9070   36.1020 C.3       6 GLP5        0.0000 
     35 CA         29.7263   40.1603   35.5355 C.3       3 GLC5        0.0000 
     36 CA         31.0300   39.4930   36.7750 C.3       9 GLL5        0.0000 
     37 CA         29.0280   40.7520   33.9590 C.3       6 GLP5        0.0000 
     38 CA         28.2185   38.1920   36.6040 C.3       3 GLC5        0.0000 
     39 CA         26.8300   37.2370   35.3190 C.3       6 GLP5        0.0000 
     40 CA         31.2742   38.9917   39.6898 C.3       3 GLC5        0.0000 
     41 CA         29.3950   38.6500   38.3290 C.3       9 GLL5        0.0000 
     42 CA         32.7650   39.9450   40.9180 C.3       6 GLP5        0.0000 
     43 CA         32.2037   38.8815   39.1720 C.3       3 GLC5        0.0000 
     44 CA         31.4610   37.2830   37.8730 C.3       9 GLL5        0.0000 
     45 CA         31.6040   36.8184   40.8878 C.3       3 GLC5        0.0000 
     46 CA         32.7350   37.8910   42.3440 C.3       6 GLP5        0.0000 
     47 CA         29.7915   34.5564   37.9017 C.3       3 GLC5        0.0000 
     48 CA         29.1100   33.3670   36.3720 C.3       6 GLP5        0.0000 
     49 CA         28.7630   34.2330   42.2925 C.3       3 GLC5        0.0000 
     50 CA         25.4600   36.6205   38.2782 C.3       3 GLC5        0.0000 
     51 CA         25.9460   36.3420   40.4780 C.3       9 GLL5        0.0000 
     52 CA         24.3870   36.8730   36.4660 C.3       6 GLP5        0.0000 
     53 CA         25.3544   34.7878   40.2078 C.3       3 GLC5        0.0000 
     54 CA         24.1510   33.2480   39.9750 C.3       6 GLP5        0.0000 
@<TRIPOS>BOND
@<TRIPOS>SUBSTRUCTURE
     1 ALC1       25 GROUP        1 X    ALC  0     ROOT ALC X 1
     2 SEC2       22 GROUP        1 X    SEC  0     **** SEC X 2
     3 GLC5        1 GROUP        1 X    GLC  0     **** GLC X 6
     4 ALP1       27 GROUP        1 Y    ALP  0     ROOT ALP Y 8
     5 SEP2       24 GROUP        1 Y    SEP  0     **** SEP Y 9
     6 GLP5        3 GROUP        1 Y    GLP  0     **** GLP Y 13
     7 ALL1       26 GROUP        1 Z    ALL  0     ROOT ALL Z 15
     8 SEL2       23 GROUP        1 Z    SEL  0     **** SEL Z 16
     9 GLL5        2 GROUP        1 Z    GLL  0     **** GLL Z 20
@<TRIPOS>SET

