#    Name: 2nv7_555_1_ligand
#    Modification time : Tue Mar 25 21:37:17 2014

@<TRIPOS>MOLECULE
2nv7_555_1_ligand
   33    35     1     0     0
SMALL
NO_CHARGES


@<TRIPOS>ATOM
      1 C1         31.0300   39.4930   36.7750 C.ar      1 555501      0.0000 
      2 C2         29.8190   39.6440   37.4490 C.ar      1 555501      0.0000 
      3 C3         29.3950   38.6500   38.3290 C.ar      1 555501      0.0000 
      4 C4         30.1720   37.4270   38.5940 C.ar      1 555501      0.0000 
      5 C5         31.4610   37.2830   37.8730 C.ar      1 555501      0.0000 
      6 C6         31.8240   38.3530   36.9790 C.ar      1 555501      0.0000 
      7 C7         32.2760   36.0860   38.1070 C.ar      1 555501      0.0000 
      8 C8         31.8290   35.0790   39.0110 C.ar      1 555501      0.0000 
      9 C9         30.5950   35.2080   39.6850 C.ar      1 555501      0.0000 
     10 C10        29.7340   36.3480   39.5150 C.ar      1 555501      0.0000 
     11 C11        28.4380   36.3050   40.3220 C.ar      1 555501      0.0000 
     12 C12        28.4910   36.1420   41.7510 C.ar      1 555501      0.0000 
     13 C13        27.3050   36.0800   42.5170 C.ar      1 555501      0.0000 
     14 C14        26.0450   36.1800   41.8780 C.ar      1 555501      0.0000 
     15 C15        25.9460   36.3420   40.4780 C.ar      1 555501      0.0000 
     16 C16        27.1200   36.3940   39.7030 C.ar      1 555501      0.0000 
     17 O1         24.8930   36.1110   42.5910 O.3       1 555501      0.0000 
     18 C17        33.5920   35.8110   37.4300 C.2       1 555501      0.0000 
     19 N1         34.4010   36.7320   36.9950 N.2       1 555501      0.0000 
     20 O2         35.5230   36.1340   36.4080 O.3       1 555501      0.0000 
     21 H          31.3489   40.2214   36.1209 H         1 555501      0.0000 
     22 H          29.2458   40.4786   37.2985 H         1 555501      0.0000 
     23 H          28.4959   38.7452   38.8364 H         1 555501      0.0000 
     24 H          32.7256   38.2621   36.4639 H         1 555501      0.0000 
     25 H          32.4146   34.2531   39.1700 H         1 555501      0.0000 
     26 H          30.2875   34.4581   40.3298 H         1 555501      0.0000 
     27 H          29.4033   36.0713   42.2069 H         1 555501      0.0000 
     28 H          27.3549   35.9634   43.5288 H         1 555501      0.0000 
     29 H          25.0328   36.4202   40.0358 H         1 555501      0.0000 
     30 H          27.0714   36.4956   38.6864 H         1 555501      0.0000 
     31 H          33.7984   34.7759   37.3409 H         1 555501      0.0000 
     32 H          25.1025   35.5119   43.3637 H         1 555501      0.0000 
     33 H          35.7912   36.7547   35.6712 H         1 555501      0.0000 
@<TRIPOS>BOND
     1    2    1 ar   
     2    6    1 ar   
     3   21    1 1    
     4    3    2 ar   
     5   22    2 1    
     6    4    3 ar   
     7   23    3 1    
     8    5    4 ar   
     9   10    4 ar   
    10    6    5 ar   
    11    7    5 ar   
    12   24    6 1    
    13    8    7 ar   
    14   18    7 1    
    15    9    8 ar   
    16   25    8 1    
    17   10    9 ar   
    18   26    9 1    
    19   11   10 1    
    20   12   11 ar   
    21   16   11 ar   
    22   13   12 ar   
    23   27   12 1    
    24   14   13 ar   
    25   28   13 1    
    26   15   14 ar   
    27   17   14 1    
    28   16   15 ar   
    29   29   15 1    
    30   30   16 1    
    31   32   17 1    
    32   19   18 2    
    33   31   18 1    
    34   20   19 1    
    35   33   20 1    
@<TRIPOS>SUBSTRUCTURE
     1 555501      1 GROUP   
@<TRIPOS>SET

