#    Name: 4kxn_6K6_1_INTS_M
#    Modification time : Tue Mar 25 09:13:47 2014

@<TRIPOS>MOLECULE
4kxn_6K6_1_INTS_M
   69     0     9     0     0
SMALL
NO_CHARGES


@<TRIPOS>ATOM
      1 CA          5.0040   -9.7755   46.2490 C.3       3 GLC5        0.0000 
      2 CA          5.3400   -7.6770   45.6680 C.3       9 GLL5        0.0000 
      3 CA          4.6680  -11.8740   46.8300 C.3       6 GLP5        0.0000 
      4 CA          4.4475   -8.7445   40.9715 C.3       3 GLC5        0.0000 
      5 CA          4.0030   -7.4310   42.2800 C.3       9 GLL5        0.0000 
      6 CA          4.8920  -10.0580   39.6630 C.3       6 GLP5        0.0000 
      7 CA          5.0760   -7.1890   40.0775 C.3       3 GLC5        0.0000 
      8 CA          4.7890   -5.4340   41.1010 C.3       9 GLL5        0.0000 
      9 CA          5.3630   -8.9440   39.0540 C.3       6 GLP5        0.0000 
     10 CA          5.7395   -6.8305   38.8560 C.3       3 GLC5        0.0000 
     11 CA          6.6940   -5.5670   39.7470 C.3       9 GLL5        0.0000 
     12 CA          4.7850   -8.0940   37.9650 C.3       6 GLP5        0.0000 
     13 N           7.8130   -3.5620   39.4065 N.am      2 SEC2        0.0000 
     14 N           6.5450   -4.3170   39.3510 N.am      8 SEL2        0.0000 
     15 N           9.0810   -2.8070   39.4620 N.am      5 SEP2        0.0000 
     16 CA          6.3230    0.3035   39.6565 C.3       3 GLC5        0.0000 
     17 CA          5.8430   -1.3610   38.6640 C.3       9 GLL5        0.0000 
     18 CA          6.8030    1.9680   40.6490 C.3       6 GLP5        0.0000 
     19 N           7.9820   -0.7460   37.1145 N.am      2 SEC2        0.0000 
     20 N           7.4110   -1.7970   36.8470 N.am      8 SEL2        0.0000 
     21 N           8.5530    0.3050   37.3820 N.am      5 SEP2        0.0000 
     22 CA          3.4150   -1.7355   36.4275 C.3       3 GLC5        0.0000 
     23 CA          5.2570   -0.8550   36.3570 C.3       9 GLL5        0.0000 
     24 CA          1.5730   -2.6160   36.4980 C.3       6 GLP5        0.0000 
     25 N           5.7380   -0.5675   33.6175 N.am      2 SEC2        0.0000 
     26 N           6.0200   -0.4770   35.2050 N.am      8 SEL2        0.0000 
     27 N           5.4560   -0.6580   32.0300 N.am      5 SEP2        0.0000 
     28 N           7.2865   -0.0860   36.2935 N.am      2 SEC2        0.0000 
     29 O           7.2865   -0.0860   36.2935 O.2       1 ALC1        0.0000 
     30 O           6.0200   -0.4770   35.2050 O.2       7 ALL1        0.0000 
     31 O           8.5530    0.3050   37.3820 O.2       4 ALP1        0.0000 
     32 O           7.0400    0.4380   35.3535 O.2       1 ALC1        0.0000 
     33 O           8.0600    1.3530   35.5020 O.2       4 ALP1        0.0000 
     34 CA          5.9720    1.1630   38.9590 C.3       3 GLC5        0.0000 
     35 CA          5.1410    0.3580   37.2690 C.3       9 GLL5        0.0000 
     36 CA          2.6905   -0.8570   36.6640 C.3       3 GLC5        0.0000 
     37 CA          3.8080    0.9020   36.8300 C.3       9 GLL5        0.0000 
     38 CA          4.2620    1.7945   34.9750 C.3       3 GLC5        0.0000 
     39 CA          4.7160    2.6870   33.1200 C.3       6 GLP5        0.0000 
     40 N          -0.3325    0.8110   38.3590 N.am      2 SEC2        0.0000 
     41 N           0.8570    1.3480   38.9800 N.am      8 SEL2        0.0000 
     42 N          -1.5220    0.2740   37.7380 N.am      5 SEP2        0.0000 
     43 N           0.5195    1.1470   35.8475 N.am      2 SEC2        0.0000 
     44 N           0.8050    2.5340   36.4410 N.am      8 SEL2        0.0000 
     45 N           0.2340   -0.2400   35.2540 N.am      5 SEP2        0.0000 
     46 N          -0.6580    2.5785   36.4930 N.am      2 SEC2        0.0000 
     47 N          -2.1210    2.6230   36.5450 N.am      5 SEP2        0.0000 
     48 N           1.5310    3.3110   35.7635 N.am      2 SEC2        0.0000 
     49 N           2.2570    4.0880   35.0860 N.am      5 SEP2        0.0000 
     50 N           2.6845    4.2100   37.9740 N.am      2 SEC2        0.0000 
     51 N           1.5460    3.0650   38.2230 N.am      8 SEL2        0.0000 
     52 N           3.8230    5.3550   37.7250 N.am      5 SEP2        0.0000 
     53 N           2.2350    3.6220   39.5575 N.am      2 SEC2        0.0000 
     54 N           2.9240    4.1790   40.8920 N.am      5 SEP2        0.0000 
     55 CA          5.2913   -5.8180   44.7674 C.3       3 GLC5        0.0000 
     56 CA          4.3010   -7.6150   44.8330 C.3       9 GLL5        0.0000 
     57 CA          5.3740   -4.0500   45.1840 C.3       6 GLP5        0.0000 
     58 CA          3.7045   -3.6980   38.8430 C.3       3 GLC5        0.0000 
     59 CA          4.6030   -4.1210   40.7010 C.3       9 GLL5        0.0000 
     60 CA          2.3480   -3.5490   37.4300 C.3       6 GLP5        0.0000 
     61 CA          5.7193   -3.2736   41.9430 C.3       3 GLC5        0.0000 
     62 CA          5.5190   -3.5730   39.8110 C.3       9 GLL5        0.0000 
     63 CA          6.3310   -2.3720   43.5300 C.3       6 GLP5        0.0000 
     64 CA          4.1410   -2.5783   37.6827 C.3       3 GLC5        0.0000 
     65 CA          5.4740   -2.7912   35.5935 C.3       3 GLC5        0.0000 
     66 CA          6.0250   -1.8540   37.2070 C.3       9 GLL5        0.0000 
     67 CA          5.3070   -4.2280   34.4050 C.3       6 GLP5        0.0000 
     68 CA          4.7127    2.5370   37.5057 C.3       3 GLC5        0.0000 
     69 CA          4.9510    4.4440   37.9620 C.3       6 GLP5        0.0000 
@<TRIPOS>BOND
@<TRIPOS>SUBSTRUCTURE
     1 ALC1       29 GROUP        1 X    ALC  0     ROOT ALC X 1
     2 SEC2       13 GROUP        1 X    SEC  0     **** SEC X 2
     3 GLC5        1 GROUP        1 X    GLC  0     **** GLC X 6
     4 ALP1       31 GROUP        1 Y    ALP  0     ROOT ALP Y 8
     5 SEP2       15 GROUP        1 Y    SEP  0     **** SEP Y 9
     6 GLP5        3 GROUP        1 Y    GLP  0     **** GLP Y 13
     7 ALL1       30 GROUP        1 Z    ALL  0     ROOT ALL Z 15
     8 SEL2       14 GROUP        1 Z    SEL  0     **** SEL Z 16
     9 GLL5        2 GROUP        1 Z    GLL  0     **** GLL Z 20
@<TRIPOS>SET

