#    Name: 4kxn_6K6_1_ligand
#    Modification time : Tue Mar 25 09:13:47 2014

@<TRIPOS>MOLECULE
4kxn_6K6_1_ligand
   45    48     1     0     0
SMALL
NO_CHARGES


@<TRIPOS>ATOM
      1 C66         4.3010   -7.6150   44.8330 C.2       1 6K6201      0.0000 
      2 C65         5.3400   -7.6770   45.6680 C.2       1 6K6201      0.0000 
      3 C64         6.4700   -7.6280   44.9650 C.2       1 6K6201      0.0000 
      4 O63         6.1340   -7.5400   43.6400 O.3       1 6K6201      0.0000 
      5 C62         4.7720   -7.5350   43.5940 C.2       1 6K6201      0.0000 
      6 C61         4.0030   -7.4310   42.2800 C.3       1 6K6201      0.0000 
      7 N6          3.9390   -5.9980   41.9480 N.pl3     1 6K6201      0.0000 
      8 C6          4.7890   -5.4340   41.1010 C.ar      1 6K6201      0.0000 
      9 N1          5.8450   -6.1170   40.6010 N.ar      1 6K6201      0.0000 
     10 C2          6.6940   -5.5670   39.7470 C.ar      1 6K6201      0.0000 
     11 N3          6.5450   -4.3170   39.3510 N.ar      1 6K6201      0.0000 
     12 C4          5.5190   -3.5730   39.8110 C.ar      1 6K6201      0.0000 
     13 C5          4.6030   -4.1210   40.7010 C.ar      1 6K6201      0.0000 
     14 N7          3.7070   -3.1840   40.9890 N.2       1 6K6201      0.0000 
     15 C8          4.0350   -2.0850   40.3040 C.2       1 6K6201      0.0000 
     16 N9          5.1410   -2.3160   39.5750 N.pl3     1 6K6201      0.0000 
     17 C1'         5.8430   -1.3610   38.6640 C.3       1 6K6201      0.0000 
     18 O4'         5.0480   -0.1440   38.5880 O.3       1 6K6201      0.0000 
     19 C2'         6.0250   -1.8540   37.2070 C.3       1 6K6201      0.0000 
     20 O2'         7.4110   -1.7970   36.8470 O.3       1 6K6201      0.0000 
     21 C3'         5.2570   -0.8550   36.3570 C.3       1 6K6201      0.0000 
     22 O3'         6.0200   -0.4770   35.2050 O.3       1 6K6201      0.0000 
     23 C4'         5.1410    0.3580   37.2690 C.3       1 6K6201      0.0000 
     24 C5'         3.8080    0.9020   36.8300 C.3       1 6K6201      0.0000 
     25 O5'         3.2160    1.8740   37.7050 O.3       1 6K6201      0.0000 
     26 PA          1.5790    1.7090   37.6270 P.3       1 6K6201      0.0000 
     27 O2          0.8570    1.3480   38.9800 O.co2     1 6K6201      0.0000 
     28 O3          0.8050    2.5340   36.4410 O.co2     1 6K6201      0.0000 
     29 O1          1.5460    3.0650   38.2230 O.co2     1 6K6201      0.0000 
     30 H           3.3651   -7.6266   45.0903 H         1 6K6201      0.0000 
     31 H           5.2797   -7.7472   46.6405 H         1 6K6201      0.0000 
     32 H           7.3689   -7.6491   45.3044 H         1 6K6201      0.0000 
     33 H           3.0161   -7.8388   42.4218 H         1 6K6201      0.0000 
     34 H           4.5358   -7.9796   41.5213 H         1 6K6201      0.0000 
     35 H           3.1816   -5.4650   42.4249 H         1 6K6201      0.0000 
     36 H           7.5031   -6.1395   39.3777 H         1 6K6201      0.0000 
     37 H           3.5474   -1.2375   40.3260 H         1 6K6201      0.0000 
     38 H           6.8181   -1.1188   39.0580 H         1 6K6201      0.0000 
     39 H           5.5961   -2.8002   37.1121 H         1 6K6201      0.0000 
     40 H           4.3073   -1.2202   36.1492 H         1 6K6201      0.0000 
     41 H           5.8925    1.0105   37.0757 H         1 6K6201      0.0000 
     42 H           3.1147    0.0312   36.6848 H         1 6K6201      0.0000 
     43 H           3.9356    1.3282   35.7994 H         1 6K6201      0.0000 
     44 H           7.4156   -1.6075   35.8651 H         1 6K6201      0.0000 
     45 H           6.6845    0.1899   35.5422 H         1 6K6201      0.0000 
@<TRIPOS>BOND
     1    2    1 1    
     2    5    1 2    
     3   30    1 1    
     4    3    2 2    
     5   31    2 1    
     6    4    3 1    
     7   32    3 1    
     8    5    4 1    
     9    6    5 1    
    10    7    6 1    
    11   33    6 1    
    12   34    6 1    
    13    8    7 1    
    14   35    7 1    
    15    9    8 ar   
    16   13    8 ar   
    17   10    9 ar   
    18   11   10 ar   
    19   36   10 1    
    20   12   11 ar   
    21   13   12 ar   
    22   16   12 1    
    23   14   13 1    
    24   15   14 2    
    25   16   15 1    
    26   37   15 1    
    27   17   16 1    
    28   18   17 1    
    29   19   17 1    
    30   38   17 1    
    31   23   18 1    
    32   20   19 1    
    33   21   19 1    
    34   39   19 1    
    35   44   20 1    
    36   22   21 1    
    37   23   21 1    
    38   40   21 1    
    39   45   22 1    
    40   24   23 1    
    41   41   23 1    
    42   25   24 1    
    43   42   24 1    
    44   43   24 1    
    45   26   25 1    
    46   27   26 ar   
    47   28   26 ar   
    48   29   26 ar   
@<TRIPOS>SUBSTRUCTURE
     1 6K6201      1 GROUP   
@<TRIPOS>SET

