#    Name: 3oz0_3OZ_1_INTS_M
#    Modification time : Tue Mar 25 05:40:49 2014

@<TRIPOS>MOLECULE
3oz0_3OZ_1_INTS_M
   98     0     6     0     0
SMALL
NO_CHARGES


@<TRIPOS>ATOM
      1 CA          2.5610  -18.1780   47.8185 C.3       2 GLC5        0.0000 
      2 CA          0.3370  -18.4220   47.6140 C.3       6 GLL5        0.0000 
      3 CA          4.7850  -17.9340   48.0230 C.3       4 GLP5        0.0000 
      4 CA          0.2760  -21.6210   50.4485 C.3       2 GLC5        0.0000 
      5 CA         -0.2740  -22.1670   48.9310 C.3       6 GLL5        0.0000 
      6 CA          0.8260  -21.0750   51.9660 C.3       4 GLP5        0.0000 
      7 CA          0.0430  -22.4835   47.0350 C.3       2 GLC5        0.0000 
      8 CA          0.3600  -22.8000   45.1390 C.3       4 GLP5        0.0000 
      9 CA         -1.9695  -22.4025   47.5775 C.3       2 GLC5        0.0000 
     10 CA         -3.6650  -22.6380   46.2240 C.3       4 GLP5        0.0000 
     11 CA         -3.8450  -18.2045   50.0825 C.3       2 GLC5        0.0000 
     12 CA         -3.5520  -17.9940   48.3620 C.3       6 GLL5        0.0000 
     13 CA         -4.1380  -18.4150   51.8030 C.3       4 GLP5        0.0000 
     14 CA         -2.1750  -16.9565   49.4795 C.3       2 GLC5        0.0000 
     15 CA         -0.7980  -15.9190   50.5970 C.3       4 GLP5        0.0000 
     16 CA         -4.6760  -19.7170   47.5150 C.3       2 GLC5        0.0000 
     17 CA         -5.8000  -21.4400   46.6680 C.3       4 GLP5        0.0000 
     18 CA         -5.2160  -17.6210   48.0165 C.3       2 GLC5        0.0000 
     19 CA         -6.8800  -17.2480   47.6710 C.3       4 GLP5        0.0000 
     20 CA         -4.4125  -16.3005   49.1915 C.3       2 GLC5        0.0000 
     21 CA         -5.2730  -14.6070   50.0210 C.3       4 GLP5        0.0000 
     22 CA         -0.8705  -15.0320   48.5475 C.3       2 GLC5        0.0000 
     23 CA         -0.9430  -14.1450   46.4980 C.3       6 GLL5        0.0000 
     24 CA         -3.1210  -13.9815   46.7480 C.3       2 GLC5        0.0000 
     25 CA         -5.2990  -13.8180   46.9980 C.3       4 GLP5        0.0000 
     26 CA          1.6820  -10.9470   46.0230 C.3       2 GLC5        0.0000 
     27 CA          0.6680  -12.4860   45.9300 C.3       6 GLL5        0.0000 
     28 CA          2.6960   -9.4080   46.1160 C.3       4 GLP5        0.0000 
     29 CA         -0.3770  -10.8630   45.4315 C.3       2 GLC5        0.0000 
     30 CA         -1.4220   -9.2400   44.9330 C.3       4 GLP5        0.0000 
     31 CA         -0.7340  -14.0915   49.3270 C.3       2 GLC5        0.0000 
     32 CA         -0.6700  -12.2640   48.0570 C.3       6 GLL5        0.0000 
     33 CA         -2.6860  -12.8150   48.7125 C.3       2 GLC5        0.0000 
     34 CA         -4.7020  -13.3660   49.3680 C.3       4 GLP5        0.0000 
     35 CA         -1.0460  -10.7520   46.4950 C.3       2 GLC5        0.0000 
     36 CA         -3.6010  -14.0940   45.5500 C.3       2 GLC5        0.0000 
     37 CA         -1.9030  -14.3700   44.1020 C.3       6 GLL5        0.0000 
     38 CA          1.1630  -13.3125   41.9895 C.3       2 GLC5        0.0000 
     39 CA         -0.8490  -12.9340   42.4530 C.3       6 GLL5        0.0000 
     40 CA          3.1750  -13.6910   41.5260 C.3       4 GLP5        0.0000 
     41 CA          1.6410  -13.3190   43.7055 C.3       2 GLC5        0.0000 
     42 CA         -0.0010  -12.4170   43.4270 C.3       6 GLL5        0.0000 
     43 CA          3.2830  -14.2210   43.9840 C.3       4 GLP5        0.0000 
     44 CA          2.2640   -9.1895   50.3745 C.3       2 GLC5        0.0000 
     45 CA          2.3220  -11.4200   50.2020 C.3       6 GLL5        0.0000 
     46 CA          2.2060   -6.9590   50.5470 C.3       4 GLP5        0.0000 
     47 CA         -0.1735  -12.2930   54.6625 C.3       2 GLC5        0.0000 
     48 CA         -0.0140  -12.3280   53.0400 C.3       6 GLL5        0.0000 
     49 CA         -0.3330  -12.2580   56.2850 C.3       4 GLP5        0.0000 
     50 CA          4.4200  -13.8660   52.9780 C.3       2 GLC5        0.0000 
     51 CA          4.0120  -11.9230   52.5770 C.3       6 GLL5        0.0000 
     52 CA          4.8280  -15.8090   53.3790 C.3       4 GLP5        0.0000 
     53 CA          4.7545  -12.5985   50.6980 C.3       2 GLC5        0.0000 
     54 CA          5.4970  -13.2740   48.8190 C.3       4 GLP5        0.0000 
     55 CA          3.2995  -10.7015   54.0070 C.3       2 GLC5        0.0000 
     56 CA          2.5870   -9.4800   55.4370 C.3       4 GLP5        0.0000 
     57 CA          5.4380  -12.3305   53.6745 C.3       2 GLC5        0.0000 
     58 CA          6.8640  -12.7380   54.7720 C.3       4 GLP5        0.0000 
     59 N           6.4235  -12.4520   51.3715 N.am      1 SEC2        0.0000 
     60 N           6.1600  -11.2130   51.8510 N.am      5 SEL2        0.0000 
     61 N           6.6870  -13.6910   50.8920 N.am      3 SEP2        0.0000 
     62 N           6.5970   -9.9210   51.1265 N.am      1 SEC2        0.0000 
     63 N           7.0340   -8.6290   50.4020 N.am      3 SEP2        0.0000 
     64 N           5.8075   -9.1400   51.0860 N.am      1 SEC2        0.0000 
     65 N           4.5810   -9.6510   51.7700 N.am      5 SEL2        0.0000 
     66 N           3.2555   -8.9665   51.2815 N.am      1 SEC2        0.0000 
     67 N           1.9300   -8.2820   50.7930 N.am      3 SEP2        0.0000 
     68 CA         -0.5607  -17.9093   45.5440 C.3       2 GLC5        0.0000 
     69 CA         -0.9320  -17.8450   47.7160 C.3       6 GLL5        0.0000 
     70 CA         -0.8240  -17.6850   43.4230 C.3       4 GLP5        0.0000 
     71 CA         -3.0012  -18.8552   50.0970 C.3       2 GLC5        0.0000 
     72 CA         -1.9680  -18.6360   48.2060 C.3       6 GLL5        0.0000 
     73 CA         -0.6773  -17.1251   49.1923 C.3       2 GLC5        0.0000 
     74 CA          0.0010  -20.2990   46.4085 C.3       2 GLC5        0.0000 
     75 CA         -0.4390  -21.5120   45.0170 C.3       4 GLP5        0.0000 
     76 CA         -0.7860  -20.8750   46.7698 C.3       2 GLC5        0.0000 
     77 CA         -0.5050  -20.5210   48.4690 C.3       6 GLL5        0.0000 
     78 CA         -2.3990  -21.4380   47.3732 C.3       2 GLC5        0.0000 
     79 CA          0.2660  -20.5345   50.1101 C.3       2 GLC5        0.0000 
     80 CA          1.6625  -13.5740   44.6959 C.3       2 GLC5        0.0000 
     81 CA         -1.0430  -13.8440   45.0480 C.3       6 GLL5        0.0000 
     82 CA         -1.3472  -14.4105   41.1450 C.3       2 GLC5        0.0000 
     83 CA         -1.3730  -15.4010   39.6670 C.3       4 GLP5        0.0000 
     84 CA         -1.2287  -15.8457   43.5535 C.3       2 GLC5        0.0000 
     85 CA         -1.7940  -13.9060   42.7930 C.3       6 GLL5        0.0000 
     86 CA          0.3625  -13.8643   50.6600 C.3       2 GLC5        0.0000 
     87 CA         -0.2890  -12.2760   50.5570 C.3       6 GLL5        0.0000 
     88 CA          0.7710  -15.5690   51.4020 C.3       4 GLP5        0.0000 
     89 CA          3.7050  -12.3975   49.2375 C.3       2 GLC5        0.0000 
     90 CA          1.5040  -11.6220   49.1100 C.3       6 GLL5        0.0000 
     91 CA          0.6798  -13.8313   51.8543 C.3       2 GLC5        0.0000 
     92 CA          0.5330  -12.0730   51.6590 C.3       6 GLL5        0.0000 
     93 CA         -1.4060  -11.3301   52.6010 C.3       2 GLC5        0.0000 
     94 CA         -2.8660  -10.4090   53.1280 C.3       4 GLP5        0.0000 
     95 CA          0.8732  -10.5337   53.3967 C.3       2 GLC5        0.0000 
     96 CA          1.1580   -8.9740   54.4870 C.3       4 GLP5        0.0000 
     97 CA         -1.6210  -11.5221   43.6883 C.3       2 GLC5        0.0000 
     98 CA         -2.4350   -9.8880   43.9870 C.3       4 GLP5        0.0000 
@<TRIPOS>BOND
@<TRIPOS>SUBSTRUCTURE
     1 SEC2       59 GROUP        1 X    SEC  0     ROOT SEC X 2
     2 GLC5        1 GROUP        1 X    GLC  0     **** GLC X 6
     3 SEP2       61 GROUP        1 Y    SEP  0     ROOT SEP Y 9
     4 GLP5        3 GROUP        1 Y    GLP  0     **** GLP Y 13
     5 SEL2       60 GROUP        1 Z    SEL  0     ROOT SEL Z 16
     6 GLL5        2 GROUP        1 Z    GLL  0     **** GLL Z 20
@<TRIPOS>SET

