#    Name: 3oz0_3OZ_1_ligand
#    Modification time : Tue Mar 25 05:40:49 2014

@<TRIPOS>MOLECULE
3oz0_3OZ_1_ligand
   55    58     1     0     0
SMALL
NO_CHARGES


@<TRIPOS>ATOM
      1 C1         -0.9320  -17.8450   47.7160 C.ar      1 3OZ1        0.0000 
      2 C2         -1.9680  -18.6360   48.2060 C.ar      1 3OZ1        0.0000 
      3 C3          0.3370  -18.4220   47.6140 C.ar      1 3OZ1        0.0000 
      4 C4         -1.7610  -19.9550   48.5760 C.ar      1 3OZ1        0.0000 
      5 C5          0.5450  -19.7500   47.9860 C.ar      1 3OZ1        0.0000 
      6 C6         -0.5050  -20.5210   48.4690 C.ar      1 3OZ1        0.0000 
      7 CL7        -0.2740  -22.1670   48.9310 Cl        1 3OZ1        0.0000 
      8 CL8        -3.5520  -17.9940   48.3620 Cl        1 3OZ1        0.0000 
      9 N9         -1.2370  -16.4940   47.3540 N.am      1 3OZ1        0.0000 
     10 C10        -0.3970  -15.5330   46.8000 C.2       1 3OZ1        0.0000 
     11 C11        -0.9430  -14.1450   46.4980 C.3       1 3OZ1        0.0000 
     12 O12         0.7690  -15.7470   46.5680 O.2       1 3OZ1        0.0000 
     13 C13        -1.0430  -13.8440   45.0480 C.ar      1 3OZ1        0.0000 
     14 C14        -0.1250  -12.8920   44.7230 C.ar      1 3OZ1        0.0000 
     15 C15         0.6680  -12.4860   45.9300 C.3       1 3OZ1        0.0000 
     16 N16         0.0010  -13.1580   47.0880 N.4       1 3OZ1        0.0000 
     17 C17        -0.6700  -12.2640   48.0570 C.3       1 3OZ1        0.0000 
     18 C18        -1.9030  -14.3700   44.1020 C.ar      1 3OZ1        0.0000 
     19 C19        -1.7940  -13.9060   42.7930 C.ar      1 3OZ1        0.0000 
     20 C20        -0.8490  -12.9340   42.4530 C.ar      1 3OZ1        0.0000 
     21 C21        -0.0010  -12.4170   43.4270 C.ar      1 3OZ1        0.0000 
     22 C22         0.5330  -12.0730   51.6590 C.ar      1 3OZ1        0.0000 
     23 C23         1.8490  -11.6450   51.4870 C.ar      1 3OZ1        0.0000 
     24 C24        -0.2890  -12.2760   50.5570 C.ar      1 3OZ1        0.0000 
     25 C25         2.3220  -11.4200   50.2020 C.ar      1 3OZ1        0.0000 
     26 C26         0.1970  -12.0430   49.2790 C.ar      1 3OZ1        0.0000 
     27 C27         1.5040  -11.6220   49.1100 C.ar      1 3OZ1        0.0000 
     28 C28        -0.0140  -12.3280   53.0400 C.3       1 3OZ1        0.0000 
     29 O29         2.6690  -11.4350   52.5640 O.3       1 3OZ1        0.0000 
     30 C30         4.0120  -11.9230   52.5770 C.3       1 3OZ1        0.0000 
     31 C31         5.0030  -10.9110   52.0450 C.2       1 3OZ1        0.0000 
     32 O32         6.1600  -11.2130   51.8510 O.co2     1 3OZ1        0.0000 
     33 O33         4.5810   -9.6510   51.7700 O.co2     1 3OZ1        0.0000 
     34 H           1.1252  -17.8600   47.2606 H         1 3OZ1        0.0000 
     35 H          -2.5507  -20.5168   48.9335 H         1 3OZ1        0.0000 
     36 H           1.4874  -20.1611   47.9009 H         1 3OZ1        0.0000 
     37 H          -2.2614  -16.1938   47.5419 H         1 3OZ1        0.0000 
     38 H          -1.8980  -14.0296   46.9716 H         1 3OZ1        0.0000 
     39 H           0.6302  -11.4202   46.0506 H         1 3OZ1        0.0000 
     40 H           1.6797  -12.8318   45.8359 H         1 3OZ1        0.0000 
     41 H           0.7795  -13.7482   47.6148 H         1 3OZ1        0.0000 
     42 H          -1.6244  -12.6990   48.3753 H         1 3OZ1        0.0000 
     43 H          -0.8807  -11.2934   47.5934 H         1 3OZ1        0.0000 
     44 H          -2.5931  -15.0716   44.3482 H         1 3OZ1        0.0000 
     45 H          -2.4188  -14.2840   42.0626 H         1 3OZ1        0.0000 
     46 H          -0.7829  -12.6032   41.4828 H         1 3OZ1        0.0000 
     47 H           0.6904  -11.7097   43.1920 H         1 3OZ1        0.0000 
     48 H          -1.2564  -12.5987   50.6902 H         1 3OZ1        0.0000 
     49 H           3.2953  -11.0986   50.0660 H         1 3OZ1        0.0000 
     50 H           1.8692  -11.4578   48.1555 H         1 3OZ1        0.0000 
     51 H           4.1089  -12.8453   51.9682 H         1 3OZ1        0.0000 
     52 H           4.3277  -12.1997   53.6039 H         1 3OZ1        0.0000 
     53 H           0.5012  -13.0394   53.5180 H         1 3OZ1        0.0000 
     54 H           0.0207  -11.5075   53.6106 H         1 3OZ1        0.0000 
     55 H          -0.9683  -12.6256   53.0124 H         1 3OZ1        0.0000 
@<TRIPOS>BOND
     1    2    1 ar   
     2    3    1 ar   
     3    9    1 1    
     4    4    2 ar   
     5    8    2 1    
     6    5    3 ar   
     7   34    3 1    
     8    6    4 ar   
     9   35    4 1    
    10    6    5 ar   
    11   36    5 1    
    12    7    6 1    
    13   10    9 am   
    14   37    9 1    
    15   11   10 1    
    16   12   10 2    
    17   13   11 1    
    18   16   11 1    
    19   38   11 1    
    20   14   13 ar   
    21   18   13 ar   
    22   15   14 1    
    23   21   14 ar   
    24   16   15 1    
    25   39   15 1    
    26   40   15 1    
    27   17   16 1    
    28   41   16 1    
    29   26   17 1    
    30   42   17 1    
    31   43   17 1    
    32   19   18 ar   
    33   44   18 1    
    34   20   19 ar   
    35   45   19 1    
    36   21   20 ar   
    37   46   20 1    
    38   47   21 1    
    39   23   22 ar   
    40   24   22 ar   
    41   28   22 1    
    42   25   23 ar   
    43   29   23 1    
    44   26   24 ar   
    45   48   24 1    
    46   27   25 ar   
    47   49   25 1    
    48   27   26 ar   
    49   50   27 1    
    50   53   28 1    
    51   54   28 1    
    52   55   28 1    
    53   30   29 1    
    54   31   30 1    
    55   51   30 1    
    56   52   30 1    
    57   32   31 ar   
    58   33   31 ar   
@<TRIPOS>SUBSTRUCTURE
     1 3OZ1        1 GROUP   
@<TRIPOS>SET

