#    Name: 3OPM_1_CAVITY_N1_ALL.mol2
#    Modification time : Tue Mar 11 20:45:52 2014

@<TRIPOS>MOLECULE
3OPM_1_CAVITY_N1_ALL.mol2
   71     0     7     0     0
SMALL
NO_CHARGES


@<TRIPOS>ATOM
      1 CZ         14.7009  -38.6271   17.1523 C.ar      5 PHE5        0.0000 
      2 CZ         14.3969  -37.4271   16.3052 C.ar      5 PHE5        0.0000 
      3 CZ         14.0928  -36.2271   15.4581 C.ar      5 PHE5        0.0000 
      4 CZ         13.7888  -35.0271   14.6110 C.ar      5 PHE5        0.0000 
      5 CZ         11.7453  -35.5926   14.5435 C.ar      5 PHE5        0.0000 
      6 O          19.5457  -32.1905   16.5631 O.2       2 ALA2        0.0000 
      7 O          19.2417  -30.9905   15.7160 O.2       2 ALA2        0.0000 
      8 OG         19.6922  -36.5836   15.5995 O.2       1 SER1        0.0000 
      9 DU         19.3881  -35.3836   14.7524 H         7 CUB7        0.0000 
     10 CA         19.0841  -34.1836   13.9053 C.3       6 GLY6        0.0000 
     11 OG         18.7801  -32.9837   13.0582 O.2       1 SER1        0.0000 
     12 OG         13.6501  -35.1465   19.8040 O.2       1 SER1        0.0000 
     13 OG         12.8151  -35.9994   18.8955 O.2       1 SER1        0.0000 
     14 CZ         16.4403  -36.8616   16.3728 C.ar      5 PHE5        0.0000 
     15 DU         16.1363  -35.6617   15.5257 H         7 CUB7        0.0000 
     16 OG         15.8322  -34.4617   14.6786 O.2       1 SER1        0.0000 
     17 CZ         15.6053  -37.7145   15.4643 C.ar      5 PHE5        0.0000 
     18 CZ         15.3012  -36.5145   14.6172 C.ar      5 PHE5        0.0000 
     19 CZ         11.1450  -37.7051   17.0786 C.ar      5 PHE5        0.0000 
     20 CZ         10.8409  -36.5051   16.2315 C.ar      5 PHE5        0.0000 
     21 OG         21.4316  -34.8182   14.8200 O.2       1 SER1        0.0000 
     22 CZ         19.4575  -35.3240   12.1559 C.ar      5 PHE5        0.0000 
     23 CZ         18.5531  -36.2365   13.8439 C.ar      5 PHE5        0.0000 
     24 OG         18.2491  -35.0365   12.9968 O.2       1 SER1        0.0000 
     25 NZ         16.3710  -36.9213   18.9693 N.2       4 LYS4        0.0000 
     26 N          16.0669  -35.7213   18.1222 N.2       2 ALA2        0.0000 
     27 O          15.7629  -34.5213   17.2751 O.2       2 ALA2        0.0000 
     28 DU         15.4588  -33.3214   16.4280 H         7 CUB7        0.0000 
     29 NZ         19.3188  -35.4433   17.3488 N.2       4 LYS4        0.0000 
     30 O          19.0148  -34.2433   16.5017 O.2       2 ALA2        0.0000 
     31 O          18.7107  -33.0433   15.6546 O.2       2 ALA2        0.0000 
     32 OG         18.4067  -31.8433   14.8075 O.2       1 SER1        0.0000 
     33 O          21.0582  -33.6779   16.5693 O.2       2 ALA2        0.0000 
     34 OG         20.7542  -32.4779   15.7222 O.2       1 SER1        0.0000 
     35 N          14.3275  -37.4868   18.9017 N.2       2 ALA2        0.0000 
     36 DU         14.0235  -36.2868   18.0546 H         7 CUB7        0.0000 
     37 DU         13.7194  -35.0868   17.2075 H         7 CUB7        0.0000 
     38 CA         13.4925  -38.3397   17.9932 C.3       6 GLY6        0.0000 
     39 CZ         13.1884  -37.1397   17.1461 C.ar      5 PHE5        0.0000 
     40 CZ         12.8844  -35.9397   16.2990 C.ar      5 PHE5        0.0000 
     41 NZ         17.2753  -36.0088   17.2813 N.2       4 LYS4        0.0000 
     42 O          16.9713  -34.8088   16.4342 O.2       2 ALA2        0.0000 
     43 DU         16.6673  -33.6088   15.5871 H         7 CUB7        0.0000 
     44 CZ         11.9800  -36.8522   17.9870 C.ar      5 PHE5        0.0000 
     45 N          15.6935  -34.5810   19.8715 N.2       2 ALA2        0.0000 
     46 O          15.3895  -33.3810   19.0244 O.2       2 ALA2        0.0000 
     47 OD1        15.0855  -32.1810   18.1773 O.3       3 ASP3        0.0000 
     48 NZ         16.9020  -34.8685   19.0306 N.2       4 LYS4        0.0000 
     49 O          16.5979  -33.6685   18.1835 O.2       2 ALA2        0.0000 
     50 CA         20.5966  -35.6711   13.9115 C.3       6 GLY6        0.0000 
     51 CA         20.2925  -34.4711   13.0644 C.3       6 GLY6        0.0000 
     52 OG         16.5097  -36.8020   13.7763 O.2       1 SER1        0.0000 
     53 CZ         17.6487  -37.1491   15.5319 C.ar      5 PHE5        0.0000 
     54 CZ         17.3447  -35.9491   14.6848 C.ar      5 PHE5        0.0000 
     55 OG         17.0406  -34.7491   13.8377 O.2       1 SER1        0.0000 
     56 O          17.8063  -33.9559   17.3426 O.2       2 ALA2        0.0000 
     57 O          17.5023  -32.7559   16.4955 O.2       2 ALA2        0.0000 
     58 N          14.8585  -35.4339   18.9631 N.2       2 ALA2        0.0000 
     59 DU         14.5545  -34.2339   18.1160 H         7 CUB7        0.0000 
     60 NZ         18.4838  -36.2962   16.4404 N.2       4 LYS4        0.0000 
     61 DU         18.1797  -35.0962   15.5933 H         7 CUB7        0.0000 
     62 OG         17.8757  -33.8962   14.7462 O.2       1 SER1        0.0000 
     63 OG         17.5716  -32.6962   13.8991 O.2       1 SER1        0.0000 
     64 NZ         15.5359  -37.7742   18.0608 N.2       4 LYS4        0.0000 
     65 DU         15.2319  -36.5742   17.2137 H         7 CUB7        0.0000 
     66 DU         14.9278  -35.3742   16.3666 H         7 CUB7        0.0000 
     67 DU         14.6238  -34.1742   15.5195 H         7 CUB7        0.0000 
     68 OG         20.2232  -34.5308   15.6609 O.2       1 SER1        0.0000 
     69 OG         19.9191  -33.3308   14.8138 O.2       1 SER1        0.0000 
     70 OG         19.3110  -30.9308   13.1195 O.2       1 SER1        0.0000 
     71 O          14.1811  -33.0936   19.8653 O.2       2 ALA2        0.0000 
@<TRIPOS>BOND
@<TRIPOS>SUBSTRUCTURE
     1 SER1        8 GROUP   
     2 ALA2        6 GROUP   
     3 ASP3       47 GROUP   
     4 LYS4       25 GROUP   
     5 PHE5        1 GROUP   
     6 GLY6       10 GROUP   
     7 CUB7        9 GROUP   
@<TRIPOS>SET

