#    Name: 3opm_LUI_1_INTS_M
#    Modification time : Tue Mar 25 04:57:34 2014

@<TRIPOS>MOLECULE
3opm_LUI_1_INTS_M
   43     0     9     0     0
SMALL
NO_CHARGES


@<TRIPOS>ATOM
      1 CA         20.2780  -32.7175   13.0195 C.3       3 GLC5        0.0000 
      2 CA         18.3500  -32.8510   13.6900 C.3       9 GLL5        0.0000 
      3 CA         22.2060  -32.5840   12.3490 C.3       6 GLP5        0.0000 
      4 CA         23.7885  -34.7890   15.3190 C.3       3 GLC5        0.0000 
      5 CA         21.9730  -35.3770   14.8280 C.3       9 GLL5        0.0000 
      6 CA         25.6040  -34.2010   15.8100 C.3       6 GLP5        0.0000 
      7 CA         20.9060  -36.2010   11.2625 C.3       3 GLC5        0.0000 
      8 CA         20.7560  -36.6580   13.1920 C.3       9 GLL5        0.0000 
      9 CA         21.0560  -35.7440    9.3330 C.3       6 GLP5        0.0000 
     10 CA         18.3245  -38.2930   16.2400 C.3       3 GLC5        0.0000 
     11 CA         18.3450  -36.5980   17.0620 C.3       9 GLL5        0.0000 
     12 CA         18.3040  -39.9880   15.4180 C.3       6 GLP5        0.0000 
     13 CA         15.3685  -38.2855   20.2250 C.3       3 GLC5        0.0000 
     14 CA         14.2800  -37.1710   18.8440 C.3       9 GLL5        0.0000 
     15 CA         16.4570  -39.4000   21.6060 C.3       6 GLP5        0.0000 
     16 CA         14.2090  -37.6110   15.1880 C.3       3 GLC5        0.0000 
     17 CA         14.6120  -36.5640   16.4910 C.3       9 GLL5        0.0000 
     18 CA         13.8060  -38.6580   13.8850 C.3       6 GLP5        0.0000 
     19 CA         16.6735  -31.3715   10.0545 C.3       3 GLC5        0.0000 
     20 CA         17.5750  -30.2850   11.2390 C.3       9 GLL5        0.0000 
     21 CA         15.7720  -32.4580    8.8700 C.3       6 GLP5        0.0000 
     22 OD1        19.4610  -35.3450   18.8845 O.co2     2 ASC3        0.0000 
     23 OD1        19.4800  -36.2540   17.8830 O.co2     8 ASL3        0.0000 
     24 OD1        19.4420  -34.4360   19.8860 O.co2     5 ASP3        0.0000 
     25 OD1        18.7275  -37.6605   18.4045 O.co2     2 ASC3        0.0000 
     26 OD1        17.9750  -39.0670   18.9260 O.co2     5 ASP3        0.0000 
     27 OD1        19.8070  -37.4910   18.5935 O.co2     2 ASC3        0.0000 
     28 OD1        20.1340  -38.7280   19.3040 O.co2     5 ASP3        0.0000 
     29 O          19.4610  -35.3450   18.8845 O.2       1 ALC1        0.0000 
     30 O          19.4800  -36.2540   17.8830 O.2       7 ALL1        0.0000 
     31 O          19.4420  -34.4360   19.8860 O.2       4 ALP1        0.0000 
     32 O          18.7275  -37.6605   18.4045 O.2       1 ALC1        0.0000 
     33 O          17.9750  -39.0670   18.9260 O.2       4 ALP1        0.0000 
     34 O          19.8070  -37.4910   18.5935 O.2       1 ALC1        0.0000 
     35 O          20.1340  -38.7280   19.3040 O.2       4 ALP1        0.0000 
     36 O          20.8505  -36.4875   17.7115 O.2       1 ALC1        0.0000 
     37 O          22.2210  -36.7210   17.5400 O.2       4 ALP1        0.0000 
     38 CA         24.0105  -36.8905   13.3280 C.3       3 GLC5        0.0000 
     39 CA         21.9630  -36.2640   13.7630 C.3       9 GLL5        0.0000 
     40 CA         26.0580  -37.5170   12.8930 C.3       6 GLP5        0.0000 
     41 CA         21.7840  -34.4116   13.0464 C.3       3 GLC5        0.0000 
     42 CA         21.1852  -33.8368   13.6875 C.3       3 GLC5        0.0000 
     43 CA         20.7690  -34.8900   15.3100 C.3       9 GLL5        0.0000 
@<TRIPOS>BOND
@<TRIPOS>SUBSTRUCTURE
     1 ALC1       29 GROUP        1 X    ALC  0     ROOT ALC X 1
     2 ASC3       22 GROUP        1 X    ASC  0     **** ASC X 3
     3 GLC5        1 GROUP        1 X    GLC  0     **** GLC X 6
     4 ALP1       31 GROUP        1 Y    ALP  0     ROOT ALP Y 8
     5 ASP3       24 GROUP        1 Y    ASP  0     **** ASP Y 10
     6 GLP5        3 GROUP        1 Y    GLP  0     **** GLP Y 13
     7 ALL1       30 GROUP        1 Z    ALL  0     ROOT ALL Z 15
     8 ASL3       23 GROUP        1 Z    ASL  0     **** ASL Z 17
     9 GLL5        2 GROUP        1 Z    GLL  0     **** GLL Z 20
@<TRIPOS>SET

