#    Name: 3opm_LUI_1_ligand
#    Modification time : Tue Mar 25 04:57:34 2014

@<TRIPOS>MOLECULE
3opm_LUI_1_ligand
   52    54     1     0     0
SMALL
NO_CHARGES


@<TRIPOS>ATOM
      1 C4         18.3500  -32.8510   13.6900 C.ar      1 LUI800      0.0000 
      2 C5         17.7940  -31.6790   13.1880 C.ar      1 LUI800      0.0000 
      3 C6         16.6670  -31.1300   13.8180 C.ar      1 LUI800      0.0000 
      4 C7         16.1030  -33.6310   16.6280 C.2       1 LUI800      0.0000 
      5 C10        18.3430  -34.7130   15.3530 C.2       1 LUI800      0.0000 
      6 C13        21.9730  -35.3770   14.8280 C.ar      1 LUI800      0.0000 
      7 C15        20.7560  -36.6580   13.1920 C.ar      1 LUI800      0.0000 
      8 C17        18.3450  -36.5980   17.0620 C.3       1 LUI800      0.0000 
      9 C20        14.6300  -36.0250   17.9110 C.3       1 LUI800      0.0000 
     10 C21        14.2800  -37.1710   18.8440 C.3       1 LUI800      0.0000 
     11 C22        14.6120  -36.5640   16.4910 C.3       1 LUI800      0.0000 
     12 C26        18.2630  -29.9640    9.9490 C.2       1 LUI800      0.0000 
     13 O28        17.7190  -29.1570    9.1940 O.2       1 LUI800      0.0000 
     14 N27        19.4270  -30.5810    9.7230 N.am      1 LUI800      0.0000 
     15 C25        17.5750  -30.2850   11.2390 C.3       1 LUI800      0.0000 
     16 O24        18.3800  -31.1050   12.0830 O.3       1 LUI800      0.0000 
     17 C1         16.1120  -31.7600   14.9310 C.ar      1 LUI800      0.0000 
     18 C3         17.7820  -33.4660   14.8090 C.ar      1 LUI800      0.0000 
     19 C9         17.7180  -35.3250   16.5490 C.2       1 LUI800      0.0000 
     20 N18        19.4800  -36.2540   17.8830 N.4       1 LUI800      0.0000 
     21 N8         16.6320  -34.7610   17.1180 N.am      1 LUI800      0.0000 
     22 C19        15.9640  -35.3520   18.2920 C.3       1 LUI800      0.0000 
     23 O23        15.1040  -33.1420   17.1930 O.2       1 LUI800      0.0000 
     24 C2         16.6700  -32.9340   15.4340 C.ar      1 LUI800      0.0000 
     25 C11        19.5600  -35.2890   14.7420 C.ar      1 LUI800      0.0000 
     26 C16        19.5480  -36.1680   13.6760 C.ar      1 LUI800      0.0000 
     27 C14        21.9630  -36.2640   13.7630 C.ar      1 LUI800      0.0000 
     28 C12        20.7690  -34.8900   15.3100 C.ar      1 LUI800      0.0000 
     29 H          19.1748  -33.2651   13.2421 H         1 LUI800      0.0000 
     30 H          16.2535  -30.2633   13.4560 H         1 LUI800      0.0000 
     31 H          22.8578  -35.0860   15.2522 H         1 LUI800      0.0000 
     32 H          20.7586  -37.3215   12.4003 H         1 LUI800      0.0000 
     33 H          18.6451  -37.2066   16.2070 H         1 LUI800      0.0000 
     34 H          17.5956  -37.1486   17.6336 H         1 LUI800      0.0000 
     35 H          13.8322  -35.2781   17.9948 H         1 LUI800      0.0000 
     36 H          16.6113  -30.7803   11.0040 H         1 LUI800      0.0000 
     37 H          17.3158  -29.3307   11.7404 H         1 LUI800      0.0000 
     38 H          15.2806  -31.3533   15.3864 H         1 LUI800      0.0000 
     39 H          16.6039  -36.1101   18.7607 H         1 LUI800      0.0000 
     40 H          15.7521  -34.5826   19.0450 H         1 LUI800      0.0000 
     41 H          18.6656  -36.4565   13.2464 H         1 LUI800      0.0000 
     42 H          22.8493  -36.6341   13.3911 H         1 LUI800      0.0000 
     43 H          20.7629  -34.2229   16.0998 H         1 LUI800      0.0000 
     44 H          14.9345  -37.9234   18.7699 H         1 LUI800      0.0000 
     45 H          14.2731  -36.8817   19.8012 H         1 LUI800      0.0000 
     46 H          13.3756  -37.5486   18.6454 H         1 LUI800      0.0000 
     47 H          14.8373  -35.8557   15.8220 H         1 LUI800      0.0000 
     48 H          15.2718  -37.3051   16.3667 H         1 LUI800      0.0000 
     49 H          13.7137  -36.9266   16.2427 H         1 LUI800      0.0000 
     50 H          19.6341  -36.9284   18.6051 H         1 LUI800      0.0000 
     51 H          20.3229  -36.2002   17.3477 H         1 LUI800      0.0000 
     52 H          19.3598  -35.3678   18.3304 H         1 LUI800      0.0000 
@<TRIPOS>BOND
     1    2    1 ar   
     2   18    1 ar   
     3   29    1 1    
     4    3    2 ar   
     5   16    2 1    
     6   17    3 ar   
     7   30    3 1    
     8   21    4 am   
     9   23    4 2    
    10   24    4 1    
    11   18    5 1    
    12   19    5 2    
    13   25    5 1    
    14   27    6 ar   
    15   28    6 ar   
    16   31    6 1    
    17   26    7 ar   
    18   27    7 ar   
    19   32    7 1    
    20   19    8 1    
    21   20    8 1    
    22   33    8 1    
    23   34    8 1    
    24   10    9 1    
    25   11    9 1    
    26   22    9 1    
    27   35    9 1    
    28   44   10 1    
    29   45   10 1    
    30   46   10 1    
    31   47   11 1    
    32   48   11 1    
    33   49   11 1    
    34   13   12 2    
    35   14   12 am   
    36   15   12 1    
    37   16   15 1    
    38   36   15 1    
    39   37   15 1    
    40   24   17 ar   
    41   38   17 1    
    42   24   18 ar   
    43   21   19 1    
    44   50   20 1    
    45   51   20 1    
    46   52   20 1    
    47   22   21 1    
    48   39   22 1    
    49   40   22 1    
    50   26   25 ar   
    51   28   25 ar   
    52   41   26 1    
    53   42   27 1    
    54   43   28 1    
@<TRIPOS>SUBSTRUCTURE
     1 LUI800      1 GROUP   
@<TRIPOS>SET

