#    Name: 1I9M_1_CAVITY_N1_6.mol2
#    Modification time : Tue Mar 11 07:55:06 2014

@<TRIPOS>MOLECULE
1I9M_1_CAVITY_N1_6.mol2
   82     0     6     0     0
SMALL
NO_CHARGES


@<TRIPOS>ATOM
      1 N           2.3653    4.2583    9.3471 N.2       2 ALA2        0.0000 
      2 CA         -1.5531    6.8538   14.3630 C.3       5 GLY6        0.0000 
      3 N          -0.2900    5.4631   13.3780 N.2       2 ALA2        0.0000 
      4 DU         -1.3696    6.4089   12.9423 H         6 CUB7        0.0000 
      5 DU         -1.1861    5.9640   11.5216 H         6 CUB7        0.0000 
      6 DU          0.0771    4.5732   10.5366 H         6 CUB7        0.0000 
      7 O           1.3402    3.1825    9.5516 O.2       2 ALA2        0.0000 
      8 O           0.2606    4.1283    9.1159 O.2       2 ALA2        0.0000 
      9 N          -1.4986    4.8322   15.0032 N.2       2 ALA2        0.0000 
     10 CA         -2.5782    5.7780   14.5675 C.3       5 GLY6        0.0000 
     11 DU         -3.6578    6.7239   14.1318 H         6 CUB7        0.0000 
     12 N          -1.3151    4.3872   13.5825 N.2       2 ALA2        0.0000 
     13 DU         -2.3947    5.3331   13.1468 H         6 CUB7        0.0000 
     14 DU         -3.4743    6.2789   12.7111 H         6 CUB7        0.0000 
     15 N          -1.1315    3.9423   12.1618 N.2       2 ALA2        0.0000 
     16 DU         -2.2111    4.8882   11.7261 H         6 CUB7        0.0000 
     17 DU         -3.2908    5.8340   11.2904 H         6 CUB7        0.0000 
     18 CZ          0.1316    2.5516   11.1768 C.ar      4 PHE5        0.0000 
     19 DU         -0.9480    3.4974   10.7411 H         6 CUB7        0.0000 
     20 O          -2.0276    4.4433   10.3054 O.2       2 ALA2        0.0000 
     21 O          -0.7645    3.0525    9.3204 O.2       2 ALA2        0.0000 
     22 O          -1.8441    3.9983    8.8847 O.2       2 ALA2        0.0000 
     23 CA         -4.8664    6.0929   15.7570 C.3       5 GLY6        0.0000 
     24 CA         -5.9460    7.0388   15.3213 C.3       5 GLY6        0.0000 
     25 OG         -2.5237    3.7563   15.2077 O.2       1 SER1        0.0000 
     26 CA         -3.6033    4.7022   14.7720 C.3       5 GLY6        0.0000 
     27 DU         -4.6829    5.6480   14.3363 H         6 CUB7        0.0000 
     28 O          -5.7625    6.5939   13.9006 O.2       2 ALA2        0.0000 
     29 O          -6.8421    7.5397   13.4650 O.2       2 ALA2        0.0000 
     30 OG         -3.4197    4.2573   13.3513 O.2       1 SER1        0.0000 
     31 O          -4.4994    5.2031   12.9156 O.2       2 ALA2        0.0000 
     32 O          -5.5790    6.1490   12.4800 O.2       2 ALA2        0.0000 
     33 OG         -2.1566    2.8665   12.3663 O.2       1 SER1        0.0000 
     34 DU         -3.2362    3.8123   11.9306 H         6 CUB7        0.0000 
     35 O          -4.3158    4.7582   11.4949 O.2       2 ALA2        0.0000 
     36 CZ         -0.8935    1.4757   11.3813 C.ar      4 PHE5        0.0000 
     37 O          -1.9731    2.4216   10.9456 O.2       2 ALA2        0.0000 
     38 O          -3.0527    3.3674   10.5099 O.2       2 ALA2        0.0000 
     39 O          -4.1323    4.3133   10.0742 O.2       2 ALA2        0.0000 
     40 O          -5.2119    5.2591    9.6386 O.2       2 ALA2        0.0000 
     41 O          -1.7896    1.9767    9.5249 O.2       2 ALA2        0.0000 
     42 CA         -5.8915    5.0171   15.9615 C.3       5 GLY6        0.0000 
     43 CA         -6.9711    5.9630   15.5258 C.3       5 GLY6        0.0000 
     44 OG         -3.5487    2.6805   15.4122 O.2       1 SER1        0.0000 
     45 CA         -4.6283    3.6263   14.9765 C.3       5 GLY6        0.0000 
     46 O          -5.7079    4.5722   14.5408 O.2       2 ALA2        0.0000 
     47 O          -6.7876    5.5180   14.1051 O.2       2 ALA2        0.0000 
     48 CA         -7.8672    6.4639   13.6695 C.3       5 GLY6        0.0000 
     49 OG         -4.4448    3.1814   13.5558 O.2       1 SER1        0.0000 
     50 O          -5.5244    4.1273   13.1201 O.2       2 ALA2        0.0000 
     51 OG         -3.1817    1.7907   12.5708 O.2       1 SER1        0.0000 
     52 O          -4.2613    2.7365   12.1351 O.2       2 ALA2        0.0000 
     53 O          -5.3409    3.6824   11.6994 O.2       2 ALA2        0.0000 
     54 OG         -1.9185    0.3999   11.5858 O.2       1 SER1        0.0000 
     55 OG         -2.9981    1.3457   11.1501 O.2       1 SER1        0.0000 
     56 O          -4.0778    2.2916   10.7144 O.2       2 ALA2        0.0000 
     57 O          -2.8146    0.9008    9.7294 O.2       2 ALA2        0.0000 
     58 CA         -4.7573    2.0496   17.0374 C.3       5 GLY6        0.0000 
     59 CA         -5.8369    2.9954   16.6017 C.3       5 GLY6        0.0000 
     60 CA         -6.9165    3.9413   16.1660 C.3       5 GLY6        0.0000 
     61 OG         -4.5738    1.6047   15.6167 O.2       1 SER1        0.0000 
     62 DU         -5.6534    2.5505   15.1810 H         6 CUB7        0.0000 
     63 CA         -6.7330    3.4964   14.7453 C.3       5 GLY6        0.0000 
     64 CA         -7.8126    4.4422   14.3096 C.3       5 GLY6        0.0000 
     65 OG         -4.3903    1.1597   14.1960 O.2       1 SER1        0.0000 
     66 N          -5.4699    2.1056   13.7603 N.2       2 ALA2        0.0000 
     67 O          -6.5495    3.0514   13.3246 O.2       2 ALA2        0.0000 
     68 OG         -4.2067    0.7148   12.7753 O.2       1 SER1        0.0000 
     69 O          -5.2864    1.6607   12.3396 O.2       2 ALA2        0.0000 
     70 CA         -2.9436   -0.6759   11.7903 C.3       5 GLY6        0.0000 
     71 DU         -4.0232    0.2699   11.3546 H         6 CUB7        0.0000 
     72 N          -5.1028    1.2158   10.9189 N.2       2 ALA2        0.0000 
     73 CA         -2.7601   -1.1209   10.3696 C.3       5 GLY6        0.0000 
     74 CA         -3.8397   -0.1750    9.9339 C.3       5 GLY6        0.0000 
     75 CA         -7.0455    2.3645   18.2269 C.3       5 GLY6        0.0000 
     76 O          -5.7824    0.9738   17.2419 O.2       2 ALA2        0.0000 
     77 CA         -6.8620    1.9196   16.8062 C.3       5 GLY6        0.0000 
     78 CA         -7.9416    2.8654   16.3705 C.3       5 GLY6        0.0000 
     79 OD1        -5.5989    0.5288   15.8212 O.3       3 ASP3        0.0000 
     80 N          -5.2318   -0.3610   12.9798 N.2       2 ALA2        0.0000 
     81 CA         -3.9687   -1.7518   11.9948 C.3       5 GLY6        0.0000 
     82 CA         -5.0483   -0.8059   11.5591 C.3       5 GLY6        0.0000 
@<TRIPOS>BOND
@<TRIPOS>SUBSTRUCTURE
     1 SER1       25 GROUP   
     2 ALA2        1 GROUP   
     3 ASP3       79 GROUP   
     4 PHE5       18 GROUP   
     5 GLY6        2 GROUP   
     6 CUB7        4 GROUP   
@<TRIPOS>SET

