#    Name: 1i9m_INW_1_INTS_M
#    Modification time : Tue Mar 25 06:48:39 2014

@<TRIPOS>MOLECULE
1i9m_INW_1_INTS_M
   39     0     9     0     0
SMALL
NO_CHARGES


@<TRIPOS>ATOM
      1 CA         -2.2110    1.4745   14.7320 C.3       3 GLC5        0.0000 
      2 CA         -3.9680    2.8040   14.6740 C.3       9 GLL5        0.0000 
      3 CA         -0.4540    0.1450   14.7900 C.3       6 GLP5        0.0000 
      4 CA         -3.3970    2.6440   17.1735 C.3       3 GLC5        0.0000 
      5 CA         -4.3270    1.6720   15.4360 C.3       9 GLL5        0.0000 
      6 CA         -2.4670    3.6160   18.9110 C.3       6 GLP5        0.0000 
      7 CA         -2.8245    0.3030   14.9910 C.3       3 GLC5        0.0000 
      8 CA         -1.3220   -1.0660   14.5460 C.3       6 GLP5        0.0000 
      9 Zn         -6.2550   -1.7920   15.7050 Zn        2 ZIC7        0.0000 
     10 Zn         -5.6260   -1.3670   16.0730 Zn        8 ZIL7        0.0000 
     11 Zn         -6.8840   -2.2170   15.3370 Zn        5 ZIP7        0.0000 
     12 N          -4.0715    0.3880   18.5985 N.am      1 SEC2        0.0000 
     13 N          -5.3510    0.4320   18.0720 N.am      7 SEL2        0.0000 
     14 N          -2.7920    0.3440   19.1250 N.am      4 SEP2        0.0000 
     15 N          -4.5345   -0.8130   17.8965 N.am      1 SEC2        0.0000 
     16 N          -3.7180   -2.0580   17.7210 N.am      4 SEP2        0.0000 
     17 CA         -0.5410    8.9460   17.2830 C.3       3 GLC5        0.0000 
     18 CA         -1.1090    8.2910   15.4010 C.3       9 GLL5        0.0000 
     19 CA          0.0270    9.6010   19.1650 C.3       6 GLP5        0.0000 
     20 CA          0.2975    9.7800   17.2360 C.3       3 GLC5        0.0000 
     21 CA          0.5680    9.9590   15.3070 C.3       9 GLL5        0.0000 
     22 CA         -4.4367    4.1820   16.4970 C.3       3 GLC5        0.0000 
     23 CA         -4.4370    5.0540   18.4820 C.3       6 GLP5        0.0000 
     24 CA         -8.2250    3.2753   15.0747 C.3       3 GLC5        0.0000 
     25 CA         -6.2270    3.6780   14.8150 C.3       9 GLL5        0.0000 
     26 CA        -10.0230    3.4430   14.9480 C.3       6 GLP5        0.0000 
     27 CA         -5.4320    4.0808   16.8417 C.3       3 GLC5        0.0000 
     28 CA         -6.6270    2.5370   15.5880 C.3       9 GLL5        0.0000 
     29 CA          1.0348    8.4175   15.8590 C.3       3 GLC5        0.0000 
     30 CA         -0.1170    9.1450   14.6790 C.3       9 GLL5        0.0000 
     31 CA          1.8440    7.2830   16.7250 C.3       6 GLP5        0.0000 
     32 CA          0.5975    7.3872   14.2548 C.3       3 GLC5        0.0000 
     33 CA          0.0510    9.0210   13.2010 C.3       9 GLL5        0.0000 
     34 CA          1.5460    6.2330   15.6880 C.3       6 GLP5        0.0000 
     35 CA         -2.1456    6.5709   16.6013 C.3       3 GLC5        0.0000 
     36 CA         -1.9520    7.2980   14.6770 C.3       9 GLL5        0.0000 
     37 CA         -2.1460    5.9390   18.0350 C.3       6 GLP5        0.0000 
     38 CA         -0.2873    6.7116   15.3334 C.3       3 GLC5        0.0000 
     39 CA         -2.7600    6.6110   15.2960 C.3       9 GLL5        0.0000 
@<TRIPOS>BOND
@<TRIPOS>SUBSTRUCTURE
     1 SEC2       12 GROUP        1 X    SEC  0     ROOT SEC X 2
     2 ZIC7        9 GROUP        1 X    ZIC  0     **** ZIC X 5
     3 GLC5        1 GROUP        1 X    GLC  0     **** GLC X 6
     4 SEP2       14 GROUP        1 Y    SEP  0     ROOT SEP Y 9
     5 ZIP7       11 GROUP        1 Y    ZIP  0     **** ZIP Y 12
     6 GLP5        3 GROUP        1 Y    GLP  0     **** GLP Y 13
     7 SEL2       13 GROUP        1 Z    SEL  0     ROOT SEL Z 16
     8 ZIL7       10 GROUP        1 Z    ZIL  0     **** ZIL Z 19
     9 GLL5        2 GROUP        1 Z    GLL  0     **** GLL Z 20
@<TRIPOS>SET

