#    Name: 1i9m_INW_1_ligand
#    Modification time : Tue Mar 25 06:48:39 2014

@<TRIPOS>MOLECULE
1i9m_INW_1_ligand
   33    34     1     0     0
SMALL
NO_CHARGES


@<TRIPOS>ATOM
      1 C01        -3.9680    2.8040   14.6740 C.ar      1 INW555      0.0000 
      2 C02        -4.3270    1.6720   15.4360 C.ar      1 INW555      0.0000 
      3 C03        -5.7060    1.5440   15.8940 C.ar      1 INW555      0.0000 
      4 C04        -6.6270    2.5370   15.5880 C.ar      1 INW555      0.0000 
      5 C05        -6.2270    3.6780   14.8150 C.ar      1 INW555      0.0000 
      6 C06        -4.9050    3.8160   14.3500 C.ar      1 INW555      0.0000 
      7 C07        -4.4080    5.0030   13.4890 C.2       1 INW555      0.0000 
      8 O08        -5.2540    5.9000   13.1880 O.2       1 INW555      0.0000 
      9 N09        -3.0020    5.0920   13.0130 N.am      1 INW555      0.0000 
     10 C10        -2.5060    6.2930   12.4110 C.3       1 INW555      0.0000 
     11 S11        -6.0790    0.0920   16.8130 S.o2      1 INW555      0.0000 
     12 NP2        -5.6260   -1.3670   16.0730 N.pl3     1 INW555      0.0000 
     13 O13        -7.4590    0.3680   16.9980 O.2       1 INW555      0.0000 
     14 O14        -5.3510    0.4320   18.0720 O.2       1 INW555      0.0000 
     15 C15        -1.7550    7.1970   13.1670 C.ar      1 INW555      0.0000 
     16 C16        -1.9520    7.2980   14.6770 C.ar      1 INW555      0.0000 
     17 C17        -1.1090    8.2910   15.4010 C.ar      1 INW555      0.0000 
     18 C18        -0.1170    9.1450   14.6790 C.ar      1 INW555      0.0000 
     19 C19         0.0510    9.0210   13.2010 C.ar      1 INW555      0.0000 
     20 C20        -0.7530    8.0620   12.4420 C.ar      1 INW555      0.0000 
     21 F21         0.5680    9.9590   15.3070 F         1 INW555      0.0000 
     22 F22        -2.7600    6.6110   15.2960 F         1 INW555      0.0000 
     23 H          -2.9936    2.8999   14.3414 H         1 INW555      0.0000 
     24 H          -3.6620    0.9564   15.6699 H         1 INW555      0.0000 
     25 H          -7.5973    2.4742   15.9046 H         1 INW555      0.0000 
     26 H          -6.9253    4.3998   14.6035 H         1 INW555      0.0000 
     27 H          -2.4075    4.2815   13.1265 H         1 INW555      0.0000 
     28 H          -3.3980    6.8457   11.9298 H         1 INW555      0.0000 
     29 H          -1.9120    5.9993   11.4657 H         1 INW555      0.0000 
     30 H          -4.6549   -1.4676   15.8564 H         1 INW555      0.0000 
     31 H          -1.2081    8.3901   16.3962 H         1 INW555      0.0000 
     32 H           0.7217    9.6036   12.7372 H         1 INW555      0.0000 
     33 H          -0.6552    7.9662   11.4593 H         1 INW555      0.0000 
@<TRIPOS>BOND
     1    2    1 ar   
     2    6    1 ar   
     3   23    1 1    
     4    3    2 ar   
     5   24    2 1    
     6    4    3 ar   
     7   11    3 1    
     8    5    4 ar   
     9   25    4 1    
    10    6    5 ar   
    11   26    5 1    
    12    7    6 1    
    13    8    7 2    
    14    9    7 am   
    15   10    9 1    
    16   27    9 1    
    17   15   10 1    
    18   28   10 1    
    19   29   10 1    
    20   12   11 1    
    21   13   11 2    
    22   14   11 2    
    23   30   12 1    
    24   16   15 ar   
    25   20   15 ar   
    26   17   16 ar   
    27   22   16 1    
    28   18   17 ar   
    29   31   17 1    
    30   19   18 ar   
    31   21   18 1    
    32   20   19 ar   
    33   32   19 1    
    34   33   20 1    
@<TRIPOS>SUBSTRUCTURE
     1 INW555      1 GROUP   
@<TRIPOS>SET

