#    Name: 3S7J_1_CAVITY_N1_ALL.mol2
#    Modification time : Mon Mar 10 23:03:49 2014

@<TRIPOS>MOLECULE
3S7J_1_CAVITY_N1_ALL.mol2
   79     0     5     0     0
SMALL
NO_CHARGES


@<TRIPOS>ATOM
      1 N          65.1438   19.9830   37.9056 N.2       2 ALA2        0.0000 
      2 N          64.1804   20.8525   37.1534 N.2       2 ALA2        0.0000 
      3 NZ         65.3152   17.9002   38.2696 N.2       3 LYS4        0.0000 
      4 O          64.3518   18.7697   37.5174 O.2       2 ALA2        0.0000 
      5 NZ         64.5231   16.6869   37.8815 N.2       3 LYS4        0.0000 
      6 O          63.5598   17.5564   37.1293 O.2       2 ALA2        0.0000 
      7 NZ         63.7311   15.4736   37.4934 N.2       3 LYS4        0.0000 
      8 CA         62.7677   16.3431   36.7411 C.3       5 GLY6        0.0000 
      9 N          66.8578   21.6879   40.6724 N.2       2 ALA2        0.0000 
     10 CA         65.8944   22.5574   39.9202 C.3       5 GLY6        0.0000 
     11 N          66.0658   20.4746   40.2843 N.2       2 ALA2        0.0000 
     12 CA         65.1024   21.3441   39.5321 C.3       5 GLY6        0.0000 
     13 CA         64.1390   22.2137   38.7799 C.3       5 GLY6        0.0000 
     14 N          66.2371   18.3918   40.6483 N.2       2 ALA2        0.0000 
     15 N          65.2738   19.2613   39.8961 N.2       2 ALA2        0.0000 
     16 CA         64.3104   20.1309   39.1439 C.3       5 GLY6        0.0000 
     17 CA         63.3470   21.0004   38.3917 C.3       5 GLY6        0.0000 
     18 CA         62.3836   21.8699   37.6395 C.3       5 GLY6        0.0000 
     19 NZ         64.4817   18.0481   39.5080 N.2       3 LYS4        0.0000 
     20 NZ         63.5184   18.9176   38.7558 N.2       3 LYS4        0.0000 
     21 CA         62.5550   19.7871   38.0036 C.3       5 GLY6        0.0000 
     22 NZ         62.7263   17.7043   38.3676 N.2       3 LYS4        0.0000 
     23 NZ         61.1423   15.2778   37.5914 N.2       3 LYS4        0.0000 
     24 O          60.3503   14.0645   37.2032 O.2       2 ALA2        0.0000 
     25 N          64.4403   19.4092   41.1345 N.2       2 ALA2        0.0000 
     26 CA         63.4770   20.2788   40.3823 C.3       5 GLY6        0.0000 
     27 CZ         62.5136   21.1483   39.6301 C.ar      4 PHE5        0.0000 
     28 N          63.6483   18.1960   40.7463 N.2       2 ALA2        0.0000 
     29 NZ         62.6849   19.0655   39.9941 N.2       3 LYS4        0.0000 
     30 N          61.7216   19.9350   39.2419 N.2       2 ALA2        0.0000 
     31 N          60.7582   20.8045   38.4897 N.2       2 ALA2        0.0000 
     32 NZ         61.8929   17.8522   39.6060 N.2       3 LYS4        0.0000 
     33 N          60.9295   18.7217   38.8538 N.2       2 ALA2        0.0000 
     34 N          60.1375   17.5085   38.4657 N.2       2 ALA2        0.0000 
     35 NZ         60.3089   15.4256   38.8297 N.2       3 LYS4        0.0000 
     36 N          59.3455   16.2952   38.0775 N.2       2 ALA2        0.0000 
     37 CA         60.4802   13.3428   39.1938 C.3       5 GLY6        0.0000 
     38 O          59.5168   14.2124   38.4416 O.2       2 ALA2        0.0000 
     39 N          58.5535   15.0819   37.6894 N.2       2 ALA2        0.0000 
     40 O          58.7248   12.9991   38.0534 O.2       2 ALA2        0.0000 
     41 CA         57.7614   13.8686   37.3012 C.3       5 GLY6        0.0000 
     42 N          62.8149   18.3438   41.9847 N.2       2 ALA2        0.0000 
     43 CZ         61.8515   19.2134   41.2325 C.ar      4 PHE5        0.0000 
     44 CZ         60.8881   20.0829   40.4803 C.ar      4 PHE5        0.0000 
     45 N          59.9248   20.9524   39.7281 N.2       2 ALA2        0.0000 
     46 NZ         62.0229   17.1306   41.5966 N.2       3 LYS4        0.0000 
     47 NZ         61.0595   18.0001   40.8444 N.2       3 LYS4        0.0000 
     48 N          60.0961   18.8696   40.0921 N.2       2 ALA2        0.0000 
     49 NZ         60.2675   16.7868   40.4562 N.2       3 LYS4        0.0000 
     50 N          59.3041   17.6564   39.7040 N.2       2 ALA2        0.0000 
     51 NZ         60.4388   14.7040   40.8203 N.2       3 LYS4        0.0000 
     52 NZ         59.4754   15.5735   40.0681 N.2       3 LYS4        0.0000 
     53 N          58.5121   16.4431   39.3159 N.2       2 ALA2        0.0000 
     54 CA         59.6468   13.4907   40.4321 C.3       5 GLY6        0.0000 
     55 N          58.6834   14.3603   39.6799 N.2       2 ALA2        0.0000 
     56 N          57.7200   15.2298   38.9277 N.2       2 ALA2        0.0000 
     57 O          58.8548   12.2775   40.0440 O.2       2 ALA2        0.0000 
     58 N          56.9280   14.0165   38.5396 N.2       2 ALA2        0.0000 
     59 N          61.9815   18.4917   43.2231 N.2       2 ALA2        0.0000 
     60 CZ         61.0181   19.3613   42.4709 C.ar      4 PHE5        0.0000 
     61 CZ         60.0547   20.2308   41.7186 C.ar      4 PHE5        0.0000 
     62 CA         61.1894   17.2785   42.8349 C.3       5 GLY6        0.0000 
     63 CZ         60.2261   18.1480   42.0827 C.ar      4 PHE5        0.0000 
     64 OG         59.2627   19.0175   41.3305 O.2       1 SER1        0.0000 
     65 CA         60.3974   16.0652   42.4468 C.3       5 GLY6        0.0000 
     66 OG         59.4340   16.9347   41.6946 O.2       1 SER1        0.0000 
     67 OG         58.4707   17.8042   40.9424 O.2       1 SER1        0.0000 
     68 N          59.6054   14.8519   42.0586 N.2       2 ALA2        0.0000 
     69 N          58.6420   15.7214   41.3064 N.2       2 ALA2        0.0000 
     70 N          57.6786   16.5910   40.5542 N.2       2 ALA2        0.0000 
     71 N          57.8500   14.5082   40.9183 N.2       2 ALA2        0.0000 
     72 CA         60.3560   17.4264   44.0733 C.3       5 GLY6        0.0000 
     73 CZ         59.3926   18.2959   43.3211 C.ar      4 PHE5        0.0000 
     74 CA         59.5640   16.2131   43.6851 C.3       5 GLY6        0.0000 
     75 OG         58.6006   17.0826   42.9329 O.2       1 SER1        0.0000 
     76 N          58.7720   14.9998   43.2970 N.2       2 ALA2        0.0000 
     77 N          57.8086   15.8693   42.5448 N.2       2 ALA2        0.0000 
     78 OG         56.8452   16.7389   41.7926 O.2       1 SER1        0.0000 
     79 N          57.7672   17.2305   44.1713 N.2       2 ALA2        0.0000 
@<TRIPOS>BOND
@<TRIPOS>SUBSTRUCTURE
     1 SER1       64 GROUP   
     2 ALA2        1 GROUP   
     3 LYS4        3 GROUP   
     4 PHE5       27 GROUP   
     5 GLY6        8 GROUP   
@<TRIPOS>SET

