#    Name: 3s7j_SAM_1_INTS_M
#    Modification time : Mon Apr  7 22:06:58 2014

@<TRIPOS>MOLECULE
3s7j_SAM_1_INTS_M
   65     0    12     0     0
SMALL
NO_CHARGES


@<TRIPOS>ATOM
      1 O          58.6840   16.8170   36.7180 O.2       1 ALC1        0.0000 
      2 O          59.6710   16.8330   37.7540 O.2       9 ALL1        0.0000 
      3 O          57.6970   16.8010   35.6820 O.2       5 ALP1        0.0000 
      4 O          58.8510   18.1035   37.8960 O.2       1 ALC1        0.0000 
      5 O          58.0310   19.3740   38.0380 O.2       5 ALP1        0.0000 
      6 NZ         59.9860   12.6445   37.2800 N.4       3 LYC4        0.0000 
      7 NZ         59.6140   13.4510   38.8190 N.4      11 LYL4        0.0000 
      8 NZ         59.9810   10.8160   36.4820 N.4       7 LYP4        0.0000 
      9 N          60.0350   12.2470   38.2575 N.am      2 SEC2        0.0000 
     10 N          59.6140   13.4510   38.8190 N.am     10 SEL2        0.0000 
     11 N          60.4560   11.0430   37.6960 N.am      6 SEP2        0.0000 
     12 NZ         59.5160   14.2460   36.8640 N.4      11 LYL4        0.0000 
     13 N          59.6925   15.0320   35.6230 N.am      2 SEC2        0.0000 
     14 N          59.5160   14.2460   36.8640 N.am     10 SEL2        0.0000 
     15 N          59.8690   15.8180   34.3820 N.am      6 SEP2        0.0000 
     16 N          59.6900   13.0285   36.2395 N.am      2 SEC2        0.0000 
     17 N          59.8640   11.8110   35.6150 N.am      6 SEP2        0.0000 
     18 N          59.9860   12.6445   37.2800 N.am      2 SEC2        0.0000 
     19 CA         55.6785   15.2060   38.7345 C.3       4 GLC5        0.0000 
     20 CA         57.5740   15.8820   39.0350 C.3      12 GLL5        0.0000 
     21 CA         53.7830   14.5300   38.4340 C.3       8 GLP5        0.0000 
     22 CA         56.8505   18.3950   41.7600 C.3       4 GLC5        0.0000 
     23 CA         57.3320   16.7120   40.3580 C.3      12 GLL5        0.0000 
     24 CA         56.3690   20.0780   43.1620 C.3       8 GLP5        0.0000 
     25 CA         57.0355   14.4710   44.7655 C.3       4 GLC5        0.0000 
     26 CA         57.0150   15.9440   43.1720 C.3      12 GLL5        0.0000 
     27 CA         57.0560   12.9980   46.3590 C.3       8 GLP5        0.0000 
     28 CA         55.1075   14.9335   42.6915 C.3       4 GLC5        0.0000 
     29 CA         53.2000   13.9230   42.2110 C.3       8 GLP5        0.0000 
     30 CA         56.6920   18.0110   43.1670 C.3       4 GLC5        0.0000 
     31 CA         58.4070   18.7350   43.1980 C.3       4 GLC5        0.0000 
     32 CA         59.2960   17.1130   42.5100 C.3      12 GLL5        0.0000 
     33 CA         57.5180   20.3570   43.8860 C.3       8 GLP5        0.0000 
     34 CA         59.4280   19.4550   43.1425 C.3       4 GLC5        0.0000 
     35 CA         61.3380   18.5530   42.3990 C.3      12 GLL5        0.0000 
     36 CA         61.5575   19.3130   44.2805 C.3       4 GLC5        0.0000 
     37 CA         61.7770   20.0730   46.1620 C.3       8 GLP5        0.0000 
     38 O          63.1120   18.6660   44.0350 O.2       1 ALC1        0.0000 
     39 O          62.0940   18.0310   43.4790 O.2       9 ALL1        0.0000 
     40 O          64.1300   19.3010   44.5910 O.2       5 ALP1        0.0000 
     41 O          62.9900   16.8045   40.3925 O.2       1 ALC1        0.0000 
     42 O          63.1880   18.1410   40.9210 O.2       9 ALL1        0.0000 
     43 O          62.7920   15.4680   39.8640 O.2       5 ALP1        0.0000 
     44 N          57.4895   22.3265   40.4540 N.am      2 SEC2        0.0000 
     45 N          58.8590   21.9020   40.3190 N.am     10 SEL2        0.0000 
     46 N          56.1200   22.7510   40.5890 N.am      6 SEP2        0.0000 
     47 CA         58.2045   21.8625   38.8465 C.3       4 GLC5        0.0000 
     48 CA         59.9280   22.5220   39.7280 C.3      12 GLL5        0.0000 
     49 CA         56.4810   21.2030   37.9650 C.3       8 GLP5        0.0000 
     50 O          58.0185   25.1650   39.5640 O.2       1 ALC1        0.0000 
     51 O          59.3370   24.8610   39.2830 O.2       9 ALL1        0.0000 
     52 O          56.7000   25.4690   39.8450 O.2       5 ALP1        0.0000 
     53 CA         61.3495   23.0855   37.1605 C.3       4 GLC5        0.0000 
     54 CA         62.3640   23.1550   38.6370 C.3      12 GLL5        0.0000 
     55 CA         60.3350   23.0160   35.6840 C.3       8 GLP5        0.0000 
     56 CA         63.4095   22.9035   40.3055 C.3       4 GLC5        0.0000 
     57 CA         64.4550   22.6520   41.9740 C.3       8 GLP5        0.0000 
     58 CA         62.7145   22.0900   40.7900 C.3       4 GLC5        0.0000 
     59 CA         60.9740   21.5280   39.6060 C.3      12 GLL5        0.0000 
     60 CA         60.7133   16.0085   43.4652 C.3       4 GLC5        0.0000 
     61 CA         60.5990   17.4110   41.7090 C.3      12 GLL5        0.0000 
     62 CA         61.4790   14.7550   44.8210 C.3       8 GLP5        0.0000 
     63 CA         61.8923   20.5471   42.0701 C.3       4 GLC5        0.0000 
     64 CA         62.2860   22.1100   43.1370 C.3       8 GLP5        0.0000 
     65 CA         60.4327   22.6870   37.6130 C.3       4 GLC5        0.0000 
@<TRIPOS>BOND
@<TRIPOS>SUBSTRUCTURE
     1 ALC1        1 GROUP        1 X    ALC  0     ROOT ALC X 1
     2 SEC2        9 GROUP        1 X    SEC  0     **** SEC X 2
     3 LYC4        6 GROUP        1 X    LYC  0     **** LYC X 4
     4 GLC5       19 GROUP        1 X    GLC  0     **** GLC X 6
     5 ALP1        3 GROUP        1 Y    ALP  0     ROOT ALP Y 8
     6 SEP2       11 GROUP        1 Y    SEP  0     **** SEP Y 9
     7 LYP4        8 GROUP        1 Y    LYP  0     **** LYP Y 11
     8 GLP5       21 GROUP        1 Y    GLP  0     **** GLP Y 13
     9 ALL1        2 GROUP        1 Z    ALL  0     ROOT ALL Z 15
    10 SEL2       10 GROUP        1 Z    SEL  0     **** SEL Z 16
    11 LYL4        7 GROUP        1 Z    LYL  0     **** LYL Z 18
    12 GLL5       20 GROUP        1 Z    GLL  0     **** GLL Z 20
@<TRIPOS>SET

