#    Name: 3s7j_SAM_1_ligand
#    Modification time : Mon Apr  7 22:06:58 2014

@<TRIPOS>MOLECULE
3s7j_SAM_1_ligand
   50    52     1     0     0
SMALL
NO_CHARGES


@<TRIPOS>ATOM
      1 N          59.6710   16.8330   37.7540 N.4       1 SAM1000     0.0000 
      2 CA         59.0560   15.7690   38.5340 C.3       1 SAM1000     0.0000 
      3 C          59.4150   14.4120   38.0370 C.2       1 SAM1000     0.0000 
      4 O          59.6140   13.4510   38.8190 O.co2     1 SAM1000     0.0000 
      5 OXT        59.5160   14.2460   36.8640 O.co2     1 SAM1000     0.0000 
      6 CB         57.5740   15.8820   39.0350 C.3       1 SAM1000     0.0000 
      7 CG         57.3320   16.7120   40.3580 C.3       1 SAM1000     0.0000 
      8 SD         58.1440   15.8830   41.7940 S.3       1 SAM1000     0.0000 
      9 CE         57.0150   15.9440   43.1720 C.3       1 SAM1000     0.0000 
     10 C5'        59.2960   17.1130   42.5100 C.3       1 SAM1000     0.0000 
     11 C4'        60.5990   17.4110   41.7090 C.3       1 SAM1000     0.0000 
     12 O4'        60.3570   17.9870   40.4040 O.3       1 SAM1000     0.0000 
     13 C3'        61.3380   18.5530   42.3990 C.3       1 SAM1000     0.0000 
     14 O3'        62.0940   18.0310   43.4790 O.3       1 SAM1000     0.0000 
     15 C2'        62.2320   19.1040   41.2880 C.3       1 SAM1000     0.0000 
     16 O2'        63.1880   18.1410   40.9210 O.3       1 SAM1000     0.0000 
     17 C1'        61.2120   19.1400   40.1630 C.3       1 SAM1000     0.0000 
     18 N9         60.4510   20.3780   40.1280 N.pl3     1 SAM1000     0.0000 
     19 C8         59.1670   20.6510   40.5620 C.2       1 SAM1000     0.0000 
     20 N7         58.8590   21.9020   40.3190 N.2       1 SAM1000     0.0000 
     21 C5         59.9280   22.5220   39.7280 C.ar      1 SAM1000     0.0000 
     22 C6         60.2460   23.8540   39.2280 C.ar      1 SAM1000     0.0000 
     23 N6         59.3370   24.8610   39.2830 N.pl3     1 SAM1000     0.0000 
     24 N1         61.4380   24.1500   38.7040 N.ar      1 SAM1000     0.0000 
     25 C2         62.3640   23.1550   38.6370 C.ar      1 SAM1000     0.0000 
     26 N3         62.1780   21.8670   39.0530 N.ar      1 SAM1000     0.0000 
     27 C4         60.9740   21.5280   39.6060 C.ar      1 SAM1000     0.0000 
     28 H          59.6611   15.7996   39.5851 H         1 SAM1000     0.0000 
     29 H          57.1788   14.8623   39.1938 H         1 SAM1000     0.0000 
     30 H          56.9657   16.3346   38.2311 H         1 SAM1000     0.0000 
     31 H          56.3204   16.7328   40.6498 H         1 SAM1000     0.0000 
     32 H          57.8029   17.6537   40.3432 H         1 SAM1000     0.0000 
     33 H          59.4954   16.6951   43.4935 H         1 SAM1000     0.0000 
     34 H          58.6601   17.9883   42.6159 H         1 SAM1000     0.0000 
     35 H          61.2206   16.5792   41.6770 H         1 SAM1000     0.0000 
     36 H          60.6352   19.2870   42.6678 H         1 SAM1000     0.0000 
     37 H          62.5478   20.0330   41.5051 H         1 SAM1000     0.0000 
     38 H          61.7531   18.9861   39.2355 H         1 SAM1000     0.0000 
     39 H          58.5982   19.9759   40.9873 H         1 SAM1000     0.0000 
     40 H          58.4359   24.6211   39.6442 H         1 SAM1000     0.0000 
     41 H          59.6489   25.7536   38.9574 H         1 SAM1000     0.0000 
     42 H          63.3254   23.4016   38.2212 H         1 SAM1000     0.0000 
     43 H          60.6693   16.7776   37.7725 H         1 SAM1000     0.0000 
     44 H          59.3932   16.7979   36.7940 H         1 SAM1000     0.0000 
     45 H          59.4212   17.7380   38.0985 H         1 SAM1000     0.0000 
     46 H          57.3994   15.5096   43.9866 H         1 SAM1000     0.0000 
     47 H          56.7849   16.8844   43.4223 H         1 SAM1000     0.0000 
     48 H          56.1550   15.4761   42.9685 H         1 SAM1000     0.0000 
     49 H          62.7839   18.7285   43.6728 H         1 SAM1000     0.0000 
     50 H          62.6558   17.3457   40.6307 H         1 SAM1000     0.0000 
@<TRIPOS>BOND
     1    2    1 1    
     2   43    1 1    
     3   44    1 1    
     4   45    1 1    
     5    3    2 1    
     6    6    2 1    
     7   28    2 1    
     8    4    3 ar   
     9    5    3 ar   
    10    7    6 1    
    11   29    6 1    
    12   30    6 1    
    13    8    7 1    
    14   31    7 1    
    15   32    7 1    
    16    9    8 1    
    17   10    8 1    
    18   46    9 1    
    19   47    9 1    
    20   48    9 1    
    21   11   10 1    
    22   33   10 1    
    23   34   10 1    
    24   12   11 1    
    25   13   11 1    
    26   35   11 1    
    27   17   12 1    
    28   14   13 1    
    29   15   13 1    
    30   36   13 1    
    31   49   14 1    
    32   16   15 1    
    33   17   15 1    
    34   37   15 1    
    35   50   16 1    
    36   18   17 1    
    37   38   17 1    
    38   19   18 1    
    39   27   18 1    
    40   20   19 2    
    41   39   19 1    
    42   21   20 1    
    43   22   21 ar   
    44   27   21 ar   
    45   23   22 1    
    46   24   22 ar   
    47   40   23 1    
    48   41   23 1    
    49   25   24 ar   
    50   26   25 ar   
    51   42   25 1    
    52   27   26 ar   
@<TRIPOS>SUBSTRUCTURE
     1 SAM1000     1 GROUP   
@<TRIPOS>SET

