#    Name: 1C4V_1_CAVITY_N1_6.mol2
#    Modification time : Mon Mar 10 16:04:48 2014

@<TRIPOS>MOLECULE
1C4V_1_CAVITY_N1_6.mol2
  101     0     7     0     0
SMALL
NO_CHARGES


@<TRIPOS>ATOM
      1 DU         19.3259  -15.4744   23.2278 H         7 CUB7        0.0000 
      2 OG         20.3013  -15.5631   22.0917 O.2       1 SER1        0.0000 
      3 CZ         20.1809  -16.1359   20.0527 C.ar      5 PHE5        0.0000 
      4 O          12.9923  -17.2327   21.8885 O.2       2 ALA2        0.0000 
      5 CA         19.9881  -14.1461   21.7122 C.3       6 GLY6        0.0000 
      6 OG         20.9635  -14.2349   20.5760 O.2       1 SER1        0.0000 
      7 CA         17.9170  -14.5413   21.9454 C.3       6 GLY6        0.0000 
      8 CZ         18.8924  -14.6301   20.8093 C.ar      5 PHE5        0.0000 
      9 CZ         19.8678  -14.7189   19.6732 C.ar      5 PHE5        0.0000 
     10 N          15.8459  -14.9366   22.1786 N.2       2 ALA2        0.0000 
     11 DU         16.8213  -15.0253   21.0425 H         7 CUB7        0.0000 
     12 CZ         17.7967  -15.1141   19.9064 C.ar      5 PHE5        0.0000 
     13 N          14.7502  -15.4205   21.2757 N.2       2 ALA2        0.0000 
     14 DU         15.7256  -15.5093   20.1396 H         7 CUB7        0.0000 
     15 CZ         16.7010  -15.5981   19.0035 C.ar      5 PHE5        0.0000 
     16 N          12.6791  -15.8158   21.5090 N.2       2 ALA2        0.0000 
     17 DU         13.6545  -15.9045   20.3729 H         7 CUB7        0.0000 
     18 DU         14.6299  -15.9933   19.2367 H         7 CUB7        0.0000 
     19 CA         11.5834  -16.2997   20.6061 C.3       6 GLY6        0.0000 
     20 DU         12.5588  -16.3885   19.4700 H         7 CUB7        0.0000 
     21 NZ         11.4631  -16.8725   18.5671 N.2       4 LYS4        0.0000 
     22 NZ         12.4385  -16.9613   17.4310 N.2       4 LYS4        0.0000 
     23 CA         19.6750  -12.7291   21.3326 C.3       6 GLY6        0.0000 
     24 CA         20.6504  -12.8179   20.1965 C.3       6 GLY6        0.0000 
     25 CZ         21.6258  -12.9067   19.0604 C.ar      5 PHE5        0.0000 
     26 CA         17.6039  -13.1244   21.5658 C.3       6 GLY6        0.0000 
     27 DU         18.5793  -13.2131   20.4297 H         7 CUB7        0.0000 
     28 CZ         19.5547  -13.3019   19.2936 C.ar      5 PHE5        0.0000 
     29 CZ         20.5301  -13.3907   18.1575 C.ar      5 PHE5        0.0000 
     30 CA         15.5328  -13.5196   21.7990 C.3       6 GLY6        0.0000 
     31 DU         16.5082  -13.6083   20.6629 H         7 CUB7        0.0000 
     32 CZ         17.4836  -13.6971   19.5268 C.ar      5 PHE5        0.0000 
     33 CZ         18.4590  -13.7859   18.3907 C.ar      5 PHE5        0.0000 
     34 N          12.4863  -13.8260   23.1684 N.2       2 ALA2        0.0000 
     35 N          13.4617  -13.9148   22.0323 N.2       2 ALA2        0.0000 
     36 N          14.4371  -14.0036   20.8962 N.2       2 ALA2        0.0000 
     37 DU         15.4125  -14.0923   19.7601 H         7 CUB7        0.0000 
     38 CZ         16.3879  -14.1811   18.6239 C.ar      5 PHE5        0.0000 
     39 CZ         17.3633  -14.2699   17.4878 C.ar      5 PHE5        0.0000 
     40 N          12.3660  -14.3988   21.1294 N.2       2 ALA2        0.0000 
     41 DU         13.3414  -14.4875   19.9933 H         7 CUB7        0.0000 
     42 DU         14.3168  -14.5763   18.8572 H         7 CUB7        0.0000 
     43 DU         15.2922  -14.6651   17.7211 H         7 CUB7        0.0000 
     44 CZ         16.2676  -14.7539   16.5850 C.ar      5 PHE5        0.0000 
     45 CA         11.2703  -14.8827   20.2265 C.3       6 GLY6        0.0000 
     46 CA         12.2457  -14.9715   19.0904 C.3       6 GLY6        0.0000 
     47 CA         13.2211  -15.0603   17.9543 C.3       6 GLY6        0.0000 
     48 CA         20.3372  -11.4009   19.8169 C.3       6 GLY6        0.0000 
     49 N          18.2661  -11.7961   20.0501 N.2       2 ALA2        0.0000 
     50 CA         19.2415  -11.8849   18.9140 C.3       6 GLY6        0.0000 
     51 CA         20.2169  -11.9737   17.7779 C.3       6 GLY6        0.0000 
     52 CA         14.2443  -12.0138   22.5556 C.3       6 GLY6        0.0000 
     53 CA         15.2197  -12.1026   21.4195 C.3       6 GLY6        0.0000 
     54 N          16.1951  -12.1914   20.2834 N.2       2 ALA2        0.0000 
     55 N          17.1704  -12.2801   19.1473 N.2       2 ALA2        0.0000 
     56 CA         18.1458  -12.3689   18.0111 C.3       6 GLY6        0.0000 
     57 CA         19.1212  -12.4577   16.8750 C.3       6 GLY6        0.0000 
     58 NZ         11.1978  -12.3202   23.9249 N.2       4 LYS4        0.0000 
     59 O          12.1732  -12.4090   22.7888 O.2       2 ALA2        0.0000 
     60 DU         13.1486  -12.4978   21.6527 H         7 CUB7        0.0000 
     61 DU         14.1240  -12.5866   20.5166 H         7 CUB7        0.0000 
     62 OG         15.0994  -12.6753   19.3805 O.2       1 SER1        0.0000 
     63 OG         16.0747  -12.7641   18.2444 O.2       1 SER1        0.0000 
     64 CZ         17.0501  -12.8529   17.1083 C.ar      5 PHE5        0.0000 
     65 CZ         18.0255  -12.9417   15.9722 C.ar      5 PHE5        0.0000 
     66 OD1        19.0009  -13.0305   14.8361 O.3       3 ASP3        0.0000 
     67 CA         11.0775  -12.8930   21.8859 C.3       6 GLY6        0.0000 
     68 O          12.0529  -12.9818   20.7498 O.2       2 ALA2        0.0000 
     69 CA         13.0283  -13.0705   19.6137 C.3       6 GLY6        0.0000 
     70 CA         14.0037  -13.1593   18.4776 C.3       6 GLY6        0.0000 
     71 OG         14.9790  -13.2481   17.3415 O.2       1 SER1        0.0000 
     72 DU         15.9544  -13.3369   16.2054 H         7 CUB7        0.0000 
     73 CZ         16.9298  -13.4257   15.0693 C.ar      5 PHE5        0.0000 
     74 OD1        17.9052  -13.5145   13.9332 O.3       3 ASP3        0.0000 
     75 CA         14.8587  -13.8209   15.3025 C.3       6 GLY6        0.0000 
     76 N          11.9804  -10.4192   24.4482 N.2       2 ALA2        0.0000 
     77 N          12.9558  -10.5080   23.3121 N.2       2 ALA2        0.0000 
     78 CA         13.9311  -10.5968   22.1760 C.3       6 GLY6        0.0000 
     79 N          14.9065  -10.6856   21.0399 N.2       2 ALA2        0.0000 
     80 N          15.8819  -10.7744   19.9038 N.2       2 ALA2        0.0000 
     81 NZ         10.8847  -10.9032   23.5453 N.2       4 LYS4        0.0000 
     82 CA         11.8601  -10.9920   22.4092 C.3       6 GLY6        0.0000 
     83 N          12.8354  -11.0808   21.2731 N.2       2 ALA2        0.0000 
     84 OG         13.8108  -11.1696   20.1370 O.2       1 SER1        0.0000 
     85 OG         16.7370  -11.4359   16.7287 O.2       1 SER1        0.0000 
     86 CA         17.7124  -11.5247   15.5926 C.3       6 GLY6        0.0000 
     87 O          10.7644  -11.4760   21.5063 O.2       2 ALA2        0.0000 
     88 N          11.7397  -11.5648   20.3702 N.2       2 ALA2        0.0000 
     89 N          12.7151  -11.6536   19.2341 N.2       2 ALA2        0.0000 
     90 OG         13.6905  -11.7423   18.0980 O.2       1 SER1        0.0000 
     91 OG         15.6413  -11.9199   15.8258 O.2       1 SER1        0.0000 
     92 DU         16.6167  -12.0087   14.6897 H         7 CUB7        0.0000 
     93 OD1        17.5921  -12.0975   13.5536 O.3       3 ASP3        0.0000 
     94 O          14.5456  -12.4039   14.9229 O.2       2 ALA2        0.0000 
     95 DU         15.5210  -12.4927   13.7868 H         7 CUB7        0.0000 
     96 CA         12.6426   -9.0910   22.9325 C.3       6 GLY6        0.0000 
     97 CA         11.5469   -9.5750   22.0296 C.3       6 GLY6        0.0000 
     98 CA         12.5223   -9.6638   20.8935 C.3       6 GLY6        0.0000 
     99 O          13.4977   -9.7526   19.7574 O.2       2 ALA2        0.0000 
    100 N          16.3035  -10.5917   14.3101 N.2       2 ALA2        0.0000 
    101 CA         14.2325  -10.9869   14.5434 C.3       6 GLY6        0.0000 
@<TRIPOS>BOND
@<TRIPOS>SUBSTRUCTURE
     1 SER1        2 GROUP   
     2 ALA2        4 GROUP   
     3 ASP3       66 GROUP   
     4 LYS4       21 GROUP   
     5 PHE5        3 GROUP   
     6 GLY6        5 GROUP   
     7 CUB7        1 GROUP   
@<TRIPOS>SET

