#    Name: 1c4v_IH2_1_INTS_M
#    Modification time : Mon Mar 24 20:19:27 2014

@<TRIPOS>MOLECULE
1c4v_IH2_1_INTS_M
   77     0     9     0     0
SMALL
NO_CHARGES


@<TRIPOS>ATOM
      1 O          16.4560  -10.6725   21.0450 O.2       1 ALC1        0.0000 
      2 O          15.6250  -11.6940   20.2060 O.2       7 ALL1        0.0000 
      3 O          17.2870   -9.6510   21.8840 O.2       4 ALP1        0.0000 
      4 CA         14.9155   -9.7295   18.4865 C.3       3 GLC5        0.0000 
      5 CA         14.1860  -11.5310   19.5180 C.3       9 GLL5        0.0000 
      6 CA         15.6450   -7.9280   17.4550 C.3       6 GLP5        0.0000 
      7 O           9.1115  -12.9120   24.8115 O.2       1 ALC1        0.0000 
      8 O          10.2180  -12.9830   24.1760 O.2       7 ALL1        0.0000 
      9 O           8.0050  -12.8410   25.4470 O.2       4 ALP1        0.0000 
     10 O           9.3070  -11.8565   24.9430 O.2       1 ALC1        0.0000 
     11 O           8.3960  -10.7300   25.7100 O.2       4 ALP1        0.0000 
     12 O          10.1710  -14.3600   23.8745 O.2       1 ALC1        0.0000 
     13 O          10.1240  -15.7370   23.5730 O.2       4 ALP1        0.0000 
     14 O           9.4990  -10.7300   25.0645 O.2       1 ALC1        0.0000 
     15 O          10.6020  -10.7300   24.4190 O.2       7 ALL1        0.0000 
     16 CA         14.9675  -11.9350   22.8055 C.3       3 GLC5        0.0000 
     17 CA         13.7120  -12.7260   21.4900 C.3       9 GLL5        0.0000 
     18 CA         16.2230  -11.1440   24.1210 C.3       6 GLP5        0.0000 
     19 CA         14.1975  -10.8295   23.1955 C.3       3 GLC5        0.0000 
     20 CA         12.1720  -10.5150   22.2700 C.3       9 GLL5        0.0000 
     21 CA         21.8040  -14.7955   19.6260 C.3       3 GLC5        0.0000 
     22 CA         19.7730  -14.6910   20.1140 C.3       9 GLL5        0.0000 
     23 CA         23.8350  -14.9000   19.1380 C.3       6 GLP5        0.0000 
     24 N          15.8560  -13.4160   24.2640 N.am      2 SEC2        0.0000 
     25 N          16.7080  -14.0560   23.3090 N.am      8 SEL2        0.0000 
     26 N          15.0040  -12.7760   25.2190 N.am      5 SEP2        0.0000 
     27 CA         17.7225  -12.2410   22.6720 C.3       3 GLC5        0.0000 
     28 CA         17.8250  -12.8060   20.9100 C.3       9 GLL5        0.0000 
     29 CA         17.6200  -11.6760   24.4340 C.3       6 GLP5        0.0000 
     30 CA         20.3390  -10.9455   18.5610 C.3       3 GLC5        0.0000 
     31 CA         20.5540  -12.7780   18.6040 C.3       9 GLL5        0.0000 
     32 CA         20.1240   -9.1130   18.5180 C.3       6 GLP5        0.0000 
     33 CA         21.9655  -14.0510   18.2535 C.3       3 GLC5        0.0000 
     34 CA         23.3770  -15.3240   17.9030 C.3       6 GLP5        0.0000 
     35 CA         19.9445  -14.1585   17.4880 C.3       3 GLC5        0.0000 
     36 CA         19.3350  -15.5390   16.3720 C.3       6 GLP5        0.0000 
     37 CA         21.8145  -11.9215   20.2510 C.3       3 GLC5        0.0000 
     38 CA         23.0750  -11.0650   21.8980 C.3       6 GLP5        0.0000 
     39 CA         17.7465  -14.8720   26.1210 C.3       3 GLC5        0.0000 
     40 CA         18.0830  -16.5670   24.9160 C.3       9 GLL5        0.0000 
     41 CA         17.4100  -13.1770   27.3260 C.3       6 GLP5        0.0000 
     42 CA         19.4540  -15.3485   27.2190 C.3       3 GLC5        0.0000 
     43 CA         19.8110  -14.5350   25.7810 C.3       9 GLL5        0.0000 
     44 CA         19.0970  -16.1620   28.6570 C.3       6 GLP5        0.0000 
     45 CA         18.7155  -13.1055   25.1075 C.3       3 GLC5        0.0000 
     46 CA         13.1220  -12.9610   24.3015 C.3       3 GLC5        0.0000 
     47 CA         12.5460  -13.0470   22.2850 C.3       9 GLL5        0.0000 
     48 CA         14.0440  -13.4900   26.0370 C.3       6 GLP5        0.0000 
     49 CA         10.7835   -9.3758   21.8730 C.3       3 GLC5        0.0000 
     50 CA          9.0310   -8.3460   22.0660 C.3       6 GLP5        0.0000 
     51 CA         12.4910   -8.7462   21.4765 C.3       3 GLC5        0.0000 
     52 CA         12.4460   -7.0870   21.2730 C.3       6 GLP5        0.0000 
     53 CA         19.3343  -15.1373   18.6238 C.3       3 GLC5        0.0000 
     54 CA         19.5620  -13.2920   19.4610 C.3       9 GLL5        0.0000 
     55 CA         19.0010  -16.2830   17.4600 C.3       6 GLP5        0.0000 
     56 CA         19.1665  -11.1685   18.7050 C.3       3 GLC5        0.0000 
     57 CA         18.8360  -12.4240   20.0590 C.3       9 GLL5        0.0000 
     58 CA         19.1340   -9.4790   17.6500 C.3       6 GLP5        0.0000 
     59 CA         19.9601  -12.2598   21.6014 C.3       3 GLC5        0.0000 
     60 CA         20.9740  -11.5660   23.2300 C.3       6 GLP5        0.0000 
     61 CA         22.9258  -13.2970   26.7043 C.3       3 GLC5        0.0000 
     62 CA         21.1550  -13.9530   26.0430 C.3       9 GLL5        0.0000 
     63 CA         24.1750  -12.3170   27.5560 C.3       6 GLP5        0.0000 
     64 CA         21.4013  -14.2495   27.8803 C.3       3 GLC5        0.0000 
     65 CA         21.1260  -14.2220   29.9080 C.3       6 GLP5        0.0000 
     66 CA         20.8589  -12.9860   24.5234 C.3       3 GLC5        0.0000 
     67 CA         22.1980  -14.6010   25.6620 C.3       9 GLL5        0.0000 
     68 CA         19.3771  -16.2394   26.7616 C.3       3 GLC5        0.0000 
     69 CA         19.4720  -15.8040   25.1090 C.3       9 GLL5        0.0000 
     70 CA         18.6142  -17.7975   28.1130 C.3       3 GLC5        0.0000 
     71 CA         18.5600  -19.6230   26.9910 C.3       9 GLL5        0.0000 
     72 CA         18.6415  -17.1805   27.2913 C.3       3 GLC5        0.0000 
     73 CA         17.7950  -17.5990   25.9330 C.3       9 GLL5        0.0000 
     74 CA         17.9980  -16.9318   28.1498 C.3       3 GLC5        0.0000 
     75 CA         16.9110  -17.2940   27.0850 C.3       9 GLL5        0.0000 
     76 CA         15.1450  -17.7257   27.5978 C.3       3 GLC5        0.0000 
     77 CA         13.3910  -17.7500   27.5530 C.3       6 GLP5        0.0000 
@<TRIPOS>BOND
@<TRIPOS>SUBSTRUCTURE
     1 ALC1        1 GROUP        1 X    ALC  0     ROOT ALC X 1
     2 SEC2       24 GROUP        1 X    SEC  0     **** SEC X 2
     3 GLC5        4 GROUP        1 X    GLC  0     **** GLC X 6
     4 ALP1        3 GROUP        1 Y    ALP  0     ROOT ALP Y 8
     5 SEP2       26 GROUP        1 Y    SEP  0     **** SEP Y 9
     6 GLP5        6 GROUP        1 Y    GLP  0     **** GLP Y 13
     7 ALL1        2 GROUP        1 Z    ALL  0     ROOT ALL Z 15
     8 SEL2       25 GROUP        1 Z    SEL  0     **** SEL Z 16
     9 GLL5        5 GROUP        1 Z    GLL  0     **** GLL Z 20
@<TRIPOS>SET

