#    Name: 1c4v_IH2_1_ligand
#    Modification time : Mon Mar 24 20:19:27 2014

@<TRIPOS>MOLECULE
1c4v_IH2_1_ligand
   76    80     1     0     0
SMALL
NO_CHARGES


@<TRIPOS>ATOM
      1 N9         15.6250  -11.6940   20.2060 N.am      1 IH2370      0.0000 
      2 C1         14.1860  -11.5310   19.5180 C.3       1 IH2370      0.0000 
      3 N10        10.2180  -12.9830   24.1760 N.pl3     1 IH2370      0.0000 
      4 N11        10.6020  -10.7300   24.4190 N.pl3     1 IH2370      0.0000 
      5 C8         10.8990  -11.9170   23.8410 C.ar      1 IH2370      0.0000 
      6 C2         13.1850  -11.6740   20.4640 C.3       1 IH2370      0.0000 
      7 C7         13.7120  -12.7260   21.4900 C.3       1 IH2370      0.0000 
      8 C6         12.5460  -13.0470   22.2850 C.3       1 IH2370      0.0000 
      9 C5         11.8540  -11.8170   22.8470 C.3       1 IH2370      0.0000 
     10 C4         12.1720  -10.5150   22.2700 C.3       1 IH2370      0.0000 
     11 C3         12.9000  -10.2960   21.0900 C.3       1 IH2370      0.0000 
     12 C17        19.7730  -14.6910   20.1140 C.3       1 IH2370      0.0000 
     13 N18        19.0050  -14.8790   21.2240 N.am      1 IH2370      0.0000 
     14 C20        18.7480  -16.0820   21.7820 C.2       1 IH2370      0.0000 
     15 O20        19.1860  -17.2120   21.6330 O.2       1 IH2370      0.0000 
     16 N21        17.8360  -15.8460   22.6800 N.am      1 IH2370      0.0000 
     17 C22        17.4990  -14.5170   22.6330 C.2       1 IH2370      0.0000 
     18 O22        16.7080  -14.0560   23.3090 O.2       1 IH2370      0.0000 
     19 N19        18.2500  -13.9370   21.7670 N.am      1 IH2370      0.0000 
     20 C13        17.8250  -12.8060   20.9100 C.3       1 IH2370      0.0000 
     21 C14        18.8360  -12.4240   20.0590 C.2       1 IH2370      0.0000 
     22 C15        19.5620  -13.2920   19.4610 C.2       1 IH2370      0.0000 
     23 C12        16.3400  -12.8150   20.3230 C.2       1 IH2370      0.0000 
     24 C16        20.5540  -12.7780   18.6040 C.3       1 IH2370      0.0000 
     25 O12        15.7340  -14.0720   20.0910 O.2       1 IH2370      0.0000 
     26 C23        17.3950  -16.8760   23.5280 C.3       1 IH2370      0.0000 
     27 C24        18.0830  -16.5670   24.9160 C.3       1 IH2370      0.0000 
     28 C28        22.1980  -14.6010   25.6620 C.ar      1 IH2370      0.0000 
     29 C29        21.1550  -13.9530   26.0430 C.ar      1 IH2370      0.0000 
     30 C30        19.8110  -14.5350   25.7810 C.ar      1 IH2370      0.0000 
     31 C25        19.4720  -15.8040   25.1090 C.ar      1 IH2370      0.0000 
     32 C26        20.5370  -16.4480   24.7200 C.ar      1 IH2370      0.0000 
     33 C27        21.8850  -15.8620   24.9490 C.ar      1 IH2370      0.0000 
     34 C34        17.7030  -19.2430   28.1470 C.ar      1 IH2370      0.0000 
     35 C35        18.5600  -19.6230   26.9910 C.ar      1 IH2370      0.0000 
     36 C36        18.5770  -18.7990   25.9180 C.ar      1 IH2370      0.0000 
     37 C31        17.7950  -17.5990   25.9330 C.ar      1 IH2370      0.0000 
     38 C32        16.9110  -17.2940   27.0850 C.ar      1 IH2370      0.0000 
     39 C33        16.8870  -18.1090   28.2000 C.ar      1 IH2370      0.0000 
     40 H          15.9595  -10.7567   20.5768 H         1 IH2370      0.0000 
     41 H          14.1597  -12.2879   18.7237 H         1 IH2370      0.0000 
     42 H          14.2072  -10.5445   19.0375 H         1 IH2370      0.0000 
     43 H          10.5117  -13.8423   23.7573 H         1 IH2370      0.0000 
     44 H           9.4663  -12.8406   24.8200 H         1 IH2370      0.0000 
     45 H           9.8873  -10.7477   25.1182 H         1 IH2370      0.0000 
     46 H          11.1235   -9.9404   24.0957 H         1 IH2370      0.0000 
     47 H          12.2807  -12.0590   20.0376 H         1 IH2370      0.0000 
     48 H          14.4805  -12.2611   22.0656 H         1 IH2370      0.0000 
     49 H          14.0710  -13.5656   20.9384 H         1 IH2370      0.0000 
     50 H          12.8185  -13.7034   23.1354 H         1 IH2370      0.0000 
     51 H          11.8044  -13.6114   21.6852 H         1 IH2370      0.0000 
     52 H          12.9061  -11.6630   23.8047 H         1 IH2370      0.0000 
     53 H          12.6584   -9.8775   23.1330 H         1 IH2370      0.0000 
     54 H          11.1549   -9.9253   22.1965 H         1 IH2370      0.0000 
     55 H          12.3470   -9.7148   20.3543 H         1 IH2370      0.0000 
     56 H          13.8610   -9.8173   21.2693 H         1 IH2370      0.0000 
     57 H          19.5723  -15.4331   19.3057 H         1 IH2370      0.0000 
     58 H          20.8676  -14.7667   20.3148 H         1 IH2370      0.0000 
     59 H          17.7462  -11.8998   21.7066 H         1 IH2370      0.0000 
     60 H          18.9823  -11.3848   19.9246 H         1 IH2370      0.0000 
     61 H          17.7306  -17.8518   23.2314 H         1 IH2370      0.0000 
     62 H          16.3358  -16.8661   23.7033 H         1 IH2370      0.0000 
     63 H          17.2984  -15.6658   25.3301 H         1 IH2370      0.0000 
     64 H          23.1535  -14.3684   25.7826 H         1 IH2370      0.0000 
     65 H          21.1511  -13.0470   26.5246 H         1 IH2370      0.0000 
     66 H          18.9880  -13.9560   26.1256 H         1 IH2370      0.0000 
     67 H          20.5319  -17.3636   24.2489 H         1 IH2370      0.0000 
     68 H          22.6995  -16.4002   24.5640 H         1 IH2370      0.0000 
     69 H          17.7384  -19.8968   28.9650 H         1 IH2370      0.0000 
     70 H          19.0853  -20.4765   27.0662 H         1 IH2370      0.0000 
     71 H          19.1351  -19.0007   25.0812 H         1 IH2370      0.0000 
     72 H          16.3272  -16.4574   27.0097 H         1 IH2370      0.0000 
     73 H          16.3226  -17.9071   29.0012 H         1 IH2370      0.0000 
     74 H          21.4322  -12.6761   19.0714 H         1 IH2370      0.0000 
     75 H          20.7088  -13.3736   17.8158 H         1 IH2370      0.0000 
     76 H          20.3059  -11.8776   18.2467 H         1 IH2370      0.0000 
@<TRIPOS>BOND
     1    2    1 1    
     2   23    1 am   
     3   40    1 1    
     4    6    2 1    
     5   41    2 1    
     6   42    2 1    
     7    5    3 ar   
     8   43    3 1    
     9   44    3 1    
    10    5    4 ar   
    11   45    4 1    
    12   46    4 1    
    13    9    5 1    
    14    7    6 1    
    15   11    6 1    
    16   47    6 1    
    17    8    7 1    
    18   48    7 1    
    19   49    7 1    
    20    9    8 1    
    21   50    8 1    
    22   51    8 1    
    23   10    9 1    
    24   52    9 1    
    25   11   10 1    
    26   53   10 1    
    27   54   10 1    
    28   55   11 1    
    29   56   11 1    
    30   13   12 1    
    31   22   12 1    
    32   57   12 1    
    33   58   12 1    
    34   14   13 am   
    35   19   13 1    
    36   15   14 2    
    37   16   14 am   
    38   17   16 am   
    39   26   16 1    
    40   18   17 2    
    41   19   17 am   
    42   20   19 1    
    43   21   20 1    
    44   23   20 1    
    45   59   20 1    
    46   22   21 2    
    47   60   21 1    
    48   24   22 1    
    49   25   23 2    
    50   74   24 1    
    51   75   24 1    
    52   76   24 1    
    53   27   26 1    
    54   61   26 1    
    55   62   26 1    
    56   31   27 1    
    57   37   27 1    
    58   63   27 1    
    59   29   28 ar   
    60   33   28 ar   
    61   64   28 1    
    62   30   29 ar   
    63   65   29 1    
    64   31   30 ar   
    65   66   30 1    
    66   32   31 ar   
    67   33   32 ar   
    68   67   32 1    
    69   68   33 1    
    70   35   34 ar   
    71   39   34 ar   
    72   69   34 1    
    73   36   35 ar   
    74   70   35 1    
    75   37   36 ar   
    76   71   36 1    
    77   38   37 ar   
    78   39   38 ar   
    79   72   38 1    
    80   73   39 1    
@<TRIPOS>SUBSTRUCTURE
     1 IH2370      1 GROUP   
@<TRIPOS>SET

