#    Name: 1k5d_GNP_1_INTS_M
#    Modification time : Mon Apr  7 13:13:33 2014

@<TRIPOS>MOLECULE
1k5d_GNP_1_INTS_M
   75     0    15     0     0
SMALL
NO_CHARGES


@<TRIPOS>ATOM
      1 Zn         -4.2230   -1.0230  -21.0160 Zn        4 ZIC7        0.0000 
      2 Zn         -4.4230   -1.1490  -20.0220 Zn       14 ZIL7        0.0000 
      3 Zn         -4.0230   -0.8970  -22.0100 Zn        9 ZIP7        0.0000 
      4 N          -5.7080   -0.4010  -19.9320 N.am      2 SEC2        0.0000 
      5 N          -4.4230   -1.1490  -20.0220 N.am     12 SEL2        0.0000 
      6 N          -6.9930    0.3470  -19.8420 N.am      7 SEP2        0.0000 
      7 NZ         -2.4595   -3.7670  -19.3815 N.4       3 LYC4        0.0000 
      8 NZ         -3.5460   -2.9790  -18.7860 N.4      13 LYL4        0.0000 
      9 NZ         -1.3730   -4.5550  -19.9770 N.4       8 LYP4        0.0000 
     10 N          -2.4595   -3.7670  -19.3815 N.am      2 SEC2        0.0000 
     11 N          -3.5460   -2.9790  -18.7860 N.am     12 SEL2        0.0000 
     12 N          -1.3730   -4.5550  -19.9770 N.am      7 SEP2        0.0000 
     13 N          -4.1190   -4.1100  -18.2040 N.am      2 SEC2        0.0000 
     14 N          -4.6920   -5.2410  -17.6220 N.am      7 SEP2        0.0000 
     15 N          -3.1890    0.0210  -16.9285 N.am      2 SEC2        0.0000 
     16 N          -3.8460   -0.8800  -17.7220 N.am     12 SEL2        0.0000 
     17 N          -2.5320    0.9220  -16.1350 N.am      7 SEP2        0.0000 
     18 N          -3.9855   -1.0625  -16.1570 N.am      2 SEC2        0.0000 
     19 N          -4.1250   -1.2450  -14.5920 N.am      7 SEP2        0.0000 
     20 NZ         -0.7890   -3.2850  -20.5525 N.4       3 LYC4        0.0000 
     21 NZ         -0.2050   -2.0150  -21.1280 N.4      13 LYL4        0.0000 
     22 N           1.2740   -1.7005  -21.3940 N.am      2 SEC2        0.0000 
     23 N          -0.2050   -2.0150  -21.1280 N.am     12 SEL2        0.0000 
     24 N           2.7530   -1.3860  -21.6600 N.am      7 SEP2        0.0000 
     25 N           0.4690   -2.3080  -22.3460 N.am      2 SEC2        0.0000 
     26 N           1.1430   -2.6010  -23.5640 N.am      7 SEP2        0.0000 
     27 N          -0.7890   -3.2850  -20.5525 N.am      2 SEC2        0.0000 
     28 Zn         -3.0595   -0.8260  -21.9990 Zn        4 ZIC7        0.0000 
     29 Zn         -2.0960   -0.7550  -21.9880 Zn       14 ZIL7        0.0000 
     30 N          -1.6445   -1.1120  -23.4495 N.am      2 SEC2        0.0000 
     31 N          -2.0960   -0.7550  -21.9880 N.am     12 SEL2        0.0000 
     32 N          -1.1930   -1.4690  -24.9110 N.am      7 SEP2        0.0000 
     33 N          -0.1060    0.9255  -24.7120 N.am      2 SEC2        0.0000 
     34 N          -0.1100    0.9690  -23.3470 N.am     12 SEL2        0.0000 
     35 N          -0.1020    0.8820  -26.0770 N.am      7 SEP2        0.0000 
     36 N           0.6350    1.9070  -24.0525 N.am      2 SEC2        0.0000 
     37 N           1.3800    2.8450  -24.7580 N.am      7 SEP2        0.0000 
     38 CA          1.4535    1.5270  -19.0430 C.3       5 GLC5        0.0000 
     39 CA          1.4200    3.0190  -20.4550 C.3      15 GLL5        0.0000 
     40 CA          1.4870    0.0350  -17.6310 C.3      10 GLP5        0.0000 
     41 CA         -0.1450    3.2290  -19.5745 C.3       5 GLC5        0.0000 
     42 CA         -1.7100    3.4390  -18.6940 C.3      10 GLP5        0.0000 
     43 CA          2.8605    6.9970  -23.3855 C.3       5 GLC5        0.0000 
     44 CA          3.2670    5.0030  -22.5670 C.3      15 GLL5        0.0000 
     45 CA          2.4540    8.9910  -24.2040 C.3      10 GLP5        0.0000 
     46 O           2.8445    6.4145  -24.2895 O.2       1 ALC1        0.0000 
     47 O           3.7210    6.2530  -23.1130 O.2      11 ALL1        0.0000 
     48 O           1.9680    6.5760  -25.4660 O.2       6 ALP1        0.0000 
     49 CA          5.5840    2.7650  -21.0685 C.3       5 GLC5        0.0000 
     50 CA          4.4360    4.2520  -21.9220 C.3      15 GLL5        0.0000 
     51 CA          6.7320    1.2780  -20.2150 C.3      10 GLP5        0.0000 
     52 N           6.1865    0.5200  -24.3050 N.am      2 SEC2        0.0000 
     53 N           5.7640    2.0580  -24.5840 N.am     12 SEL2        0.0000 
     54 N           6.6090   -1.0180  -24.0260 N.am      7 SEP2        0.0000 
     55 CA          7.8505    1.6255  -22.7880 C.3       5 GLC5        0.0000 
     56 CA          6.9270    2.6740  -24.0900 C.3      15 GLL5        0.0000 
     57 CA          8.7740    0.5770  -21.4860 C.3      10 GLP5        0.0000 
     58 CA          6.3780    1.7310  -26.0085 C.3       5 GLC5        0.0000 
     59 CA          5.8290    0.7880  -27.9270 C.3      10 GLP5        0.0000 
     60 CA          8.1240    3.7355  -25.5740 C.3       5 GLC5        0.0000 
     61 CA          9.3210    4.7970  -27.0580 C.3      10 GLP5        0.0000 
     62 N           8.5945    2.2760  -26.6875 N.am      2 SEC2        0.0000 
     63 N           8.8410    1.6640  -25.1760 N.am     12 SEL2        0.0000 
     64 N           8.3480    2.8880  -28.1990 N.am      7 SEP2        0.0000 
     65 O          10.4635    3.1170  -24.1220 O.2       1 ALC1        0.0000 
     66 O           9.1520    3.3980  -23.7800 O.2      11 ALL1        0.0000 
     67 O          11.7750    2.8360  -24.4640 O.2       6 ALP1        0.0000 
     68 O          11.1035    5.0850  -23.2700 O.2       1 ALC1        0.0000 
     69 O           9.6120    5.3220  -22.5300 O.2      11 ALL1        0.0000 
     70 O          12.5950    4.8480  -24.0100 O.2       6 ALP1        0.0000 
     71 CA          6.6625    2.4420  -21.6635 C.3       5 GLC5        0.0000 
     72 CA          6.5930    3.6060  -23.1120 C.3      15 GLL5        0.0000 
     73 CA          0.9652    5.1527  -19.7467 C.3       5 GLC5        0.0000 
     74 CA          2.6150    3.9780  -20.4980 C.3      15 GLL5        0.0000 
     75 CA         -0.5540    5.6960  -18.5810 C.3      10 GLP5        0.0000 
@<TRIPOS>BOND
@<TRIPOS>SUBSTRUCTURE
     1 ALC1       46 GROUP        1 X    ALC  0     ROOT ALC X 1
     2 SEC2        4 GROUP        1 X    SEC  0     **** SEC X 2
     3 LYC4        7 GROUP        1 X    LYC  0     **** LYC X 4
     4 ZIC7        1 GROUP        1 X    ZIC  0     **** ZIC X 5
     5 GLC5       38 GROUP        1 X    GLC  0     **** GLC X 6
     6 ALP1       48 GROUP        1 Y    ALP  0     ROOT ALP Y 8
     7 SEP2        6 GROUP        1 Y    SEP  0     **** SEP Y 9
     8 LYP4        9 GROUP        1 Y    LYP  0     **** LYP Y 11
     9 ZIP7        3 GROUP        1 Y    ZIP  0     **** ZIP Y 12
    10 GLP5       40 GROUP        1 Y    GLP  0     **** GLP Y 13
    11 ALL1       47 GROUP        1 Z    ALL  0     ROOT ALL Z 15
    12 SEL2        5 GROUP        1 Z    SEL  0     **** SEL Z 16
    13 LYL4        8 GROUP        1 Z    LYL  0     **** LYL Z 18
    14 ZIL7        2 GROUP        1 Z    ZIL  0     **** ZIL Z 19
    15 GLL5       39 GROUP        1 Z    GLL  0     **** GLL Z 20
@<TRIPOS>SET

