#    Name: 1k5d_GNP_1_ligand
#    Modification time : Mon Apr  7 13:13:34 2014

@<TRIPOS>MOLECULE
1k5d_GNP_1_ligand
   44    46     1     0     0
SMALL
NO_CHARGES


@<TRIPOS>ATOM
      1 PG         -3.4040   -1.5530  -19.0470 P.3       1 GNP1250     0.0000 
      2 O1G        -4.4230   -1.1490  -20.0220 O.co2     1 GNP1250     0.0000 
      3 O2G        -3.5460   -2.9790  -18.7860 O.co2     1 GNP1250     0.0000 
      4 O3G        -3.8460   -0.8800  -17.7220 O.co2     1 GNP1250     0.0000 
      5 N3B        -1.8590   -1.0210  -19.3610 N.4       1 GNP1250     0.0000 
      6 PB         -1.1530   -0.9450  -20.8650 P.3       1 GNP1250     0.0000 
      7 O1B        -0.2050   -2.0150  -21.1280 O.co2     1 GNP1250     0.0000 
      8 O2B        -2.0960   -0.7550  -21.9880 O.co2     1 GNP1250     0.0000 
      9 O3A        -0.2160    0.3780  -20.8700 O.3       1 GNP1250     0.0000 
     10 PA         -0.1710    1.5750  -21.9920 P.3       1 GNP1250     0.0000 
     11 O1A        -0.1100    0.9690  -23.3470 O.co2     1 GNP1250     0.0000 
     12 O2A        -1.2770    2.5330  -21.6970 O.co2     1 GNP1250     0.0000 
     13 O5'         1.2570    2.2920  -21.6890 O.3       1 GNP1250     0.0000 
     14 C5'         1.4200    3.0190  -20.4550 C.3       1 GNP1250     0.0000 
     15 C4'         2.6150    3.9780  -20.4980 C.3       1 GNP1250     0.0000 
     16 O4'         3.7910    3.3430  -21.0410 O.3       1 GNP1250     0.0000 
     17 C3'         2.3540    5.2410  -21.3270 C.3       1 GNP1250     0.0000 
     18 O3'         2.7940    6.4010  -20.5770 O.3       1 GNP1250     0.0000 
     19 C2'         3.2670    5.0030  -22.5670 C.3       1 GNP1250     0.0000 
     20 O2'         3.7210    6.2530  -23.1130 O.3       1 GNP1250     0.0000 
     21 C1'         4.4360    4.2520  -21.9220 C.3       1 GNP1250     0.0000 
     22 N9          5.2310    3.5050  -22.9190 N.pl3     1 GNP1250     0.0000 
     23 C8          4.8350    2.4870  -23.7780 C.2       1 GNP1250     0.0000 
     24 N7          5.7640    2.0580  -24.5840 N.2       1 GNP1250     0.0000 
     25 C5          6.9270    2.6740  -24.0900 C.2       1 GNP1250     0.0000 
     26 C6          8.3280    2.4900  -24.4260 C.2       1 GNP1250     0.0000 
     27 O6          8.8410    1.6640  -25.1760 O.2       1 GNP1250     0.0000 
     28 N1          9.1520    3.3980  -23.7800 N.am      1 GNP1250     0.0000 
     29 C2          8.7320    4.3840  -22.9260 C.2       1 GNP1250     0.0000 
     30 N2          9.6120    5.3220  -22.5300 N.pl3     1 GNP1250     0.0000 
     31 N3          7.4430    4.4500  -22.4660 N.2       1 GNP1250     0.0000 
     32 C4          6.5930    3.6060  -23.1120 C.2       1 GNP1250     0.0000 
     33 H           1.5738    2.3322  -19.6035 H         1 GNP1250     0.0000 
     34 H           0.5208    3.6166  -20.2211 H         1 GNP1250     0.0000 
     35 H           2.8243    4.3072  -19.4722 H         1 GNP1250     0.0000 
     36 H           1.3677    5.2576  -21.6299 H         1 GNP1250     0.0000 
     37 H           2.7758    4.3739  -23.2239 H         1 GNP1250     0.0000 
     38 H           5.0261    4.9509  -21.3894 H         1 GNP1250     0.0000 
     39 H           3.8887    2.1367  -23.7454 H         1 GNP1250     0.0000 
     40 H          10.2029    3.3174  -23.9677 H         1 GNP1250     0.0000 
     41 H           9.2482    6.0484  -21.9468 H         1 GNP1250     0.0000 
     42 H          10.5512    5.2090  -22.8542 H         1 GNP1250     0.0000 
     43 H           3.4576    6.8564  -21.1706 H         1 GNP1250     0.0000 
     44 H           3.2123    6.3623  -23.9670 H         1 GNP1250     0.0000 
@<TRIPOS>BOND
     1    2    1 ar   
     2    3    1 ar   
     3    4    1 ar   
     4    5    1 1    
     5    6    5 1    
     6    7    6 ar   
     7    8    6 ar   
     8    9    6 1    
     9   10    9 1    
    10   11   10 ar   
    11   12   10 ar   
    12   13   10 1    
    13   14   13 1    
    14   15   14 1    
    15   33   14 1    
    16   34   14 1    
    17   16   15 1    
    18   17   15 1    
    19   35   15 1    
    20   21   16 1    
    21   18   17 1    
    22   19   17 1    
    23   36   17 1    
    24   43   18 1    
    25   20   19 1    
    26   21   19 1    
    27   37   19 1    
    28   44   20 1    
    29   22   21 1    
    30   38   21 1    
    31   23   22 1    
    32   32   22 1    
    33   24   23 2    
    34   39   23 1    
    35   25   24 1    
    36   26   25 1    
    37   32   25 2    
    38   27   26 2    
    39   28   26 am   
    40   29   28 1    
    41   40   28 1    
    42   30   29 1    
    43   31   29 2    
    44   41   30 1    
    45   42   30 1    
    46   32   31 1    
@<TRIPOS>SUBSTRUCTURE
     1 GNP1250     1 GROUP   
@<TRIPOS>SET

