#    Name: 3bti_BER_1_INTS_M
#    Modification time : Mon Mar 24 20:03:17 2014

@<TRIPOS>MOLECULE
3bti_BER_1_INTS_M
   30     0     3     0     0
SMALL
NO_CHARGES


@<TRIPOS>ATOM
      1 CA        -63.1330  -45.1300   -1.3145 C.3       1 GLC5        0.0000 
      2 CA        -63.1480  -44.8380    0.8190 C.3       3 GLL5        0.0000 
      3 CA        -63.1180  -45.4220   -3.4480 C.3       2 GLP5        0.0000 
      4 CA        -68.6160  -42.6700    0.4860 C.3       1 GLC5        0.0000 
      5 CA        -68.2910  -43.0930    2.6270 C.3       3 GLL5        0.0000 
      6 CA        -68.9410  -42.2470   -1.6550 C.3       2 GLP5        0.0000 
      7 CA        -68.7150  -42.1330    6.4820 C.3       1 GLC5        0.0000 
      8 CA        -69.8430  -43.5510    5.8690 C.3       3 GLL5        0.0000 
      9 CA        -67.5870  -40.7150    7.0950 C.3       2 GLP5        0.0000 
     10 CA        -56.6105  -45.0030    3.5390 C.3       1 GLC5        0.0000 
     11 CA        -57.3670  -46.4600    2.5110 C.3       3 GLL5        0.0000 
     12 CA        -55.8540  -43.5460    4.5670 C.3       2 GLP5        0.0000 
     13 CA        -58.9765  -47.9630    2.2950 C.3       1 GLC5        0.0000 
     14 CA        -60.5860  -49.4660    2.0790 C.3       2 GLP5        0.0000 
     15 CA        -64.8895  -42.2133    0.2393 C.3       1 GLC5        0.0000 
     16 CA        -65.4900  -44.1460    0.3310 C.3       3 GLL5        0.0000 
     17 CA        -63.8270  -40.8310   -0.1340 C.3       2 GLP5        0.0000 
     18 CA        -66.8550  -43.2112   -0.9097 C.3       1 GLC5        0.0000 
     19 CA        -66.4140  -43.0450    0.8940 C.3       3 GLL5        0.0000 
     20 CA        -67.7580  -42.8270   -2.4320 C.3       2 GLP5        0.0000 
     21 CA        -68.0028  -42.2952    5.7168 C.3       1 GLC5        0.0000 
     22 CA        -68.8160  -43.4860    3.8910 C.3       3 GLL5        0.0000 
     23 CA        -61.7671  -43.5026    3.2008 C.3       1 GLC5        0.0000 
     24 CA        -62.3930  -45.2990    3.1160 C.3       3 GLL5        0.0000 
     25 CA        -60.9580  -41.8400    3.8660 C.3       2 GLP5        0.0000 
     26 CA        -60.0233  -46.4300    5.3758 C.3       1 GLC5        0.0000 
     27 CA        -61.3490  -45.6450    4.0130 C.3       3 GLL5        0.0000 
     28 CA        -59.3500  -47.0730    6.9840 C.3       2 GLP5        0.0000 
     29 CA        -60.8272  -43.8135    3.8167 C.3       1 GLC5        0.0000 
     30 CA        -60.0440  -45.9290    3.5220 C.3       3 GLL5        0.0000 
@<TRIPOS>BOND
@<TRIPOS>SUBSTRUCTURE
     1 GLC5        1 GROUP        1 X    GLC  0     ROOT GLC X 6
     2 GLP5        3 GROUP        1 Y    GLP  0     ROOT GLP Y 13
     3 GLL5        2 GROUP        1 Z    GLL  0     ROOT GLL Z 20
@<TRIPOS>SET

