#    Name: 3bti_BER_1_ligand
#    Modification time : Mon Mar 24 20:03:17 2014

@<TRIPOS>MOLECULE
3bti_BER_1_ligand
   43    47     1     0     0
SMALL
NO_CHARGES


@<TRIPOS>ATOM
      1 C1        -64.7360  -44.6210    2.6970 C.ar      1 BER802      0.0000 
      2 C2        -66.1490  -44.2640    3.1580 C.ar      1 BER802      0.0000 
      3 N1        -64.4300  -44.5400    1.2970 N.pl3     1 BER802      0.0000 
      4 C3        -63.7000  -44.9940    3.6140 C.ar      1 BER802      0.0000 
      5 C4        -66.9760  -43.4720    2.2510 C.ar      1 BER802      0.0000 
      6 C5        -66.6830  -44.6590    4.4230 C.ar      1 BER802      0.0000 
      7 C6        -63.1480  -44.8380    0.8190 C.ar      1 BER802      0.0000 
      8 C7        -65.4900  -44.1460    0.3310 C.3       1 BER802      0.0000 
      9 C8        -62.3930  -45.2990    3.1160 C.ar      1 BER802      0.0000 
     10 C9        -68.2910  -43.0930    2.6270 C.ar      1 BER802      0.0000 
     11 C10       -66.4140  -43.0450    0.8940 C.3       1 BER802      0.0000 
     12 C11       -68.0210  -44.2650    4.7860 C.ar      1 BER802      0.0000 
     13 C12       -62.1060  -45.1840    1.7060 C.ar      1 BER802      0.0000 
     14 C13       -61.3490  -45.6450    4.0130 C.ar      1 BER802      0.0000 
     15 C14       -68.8160  -43.4860    3.8910 C.ar      1 BER802      0.0000 
     16 O1        -68.7630  -44.4980    5.9060 O.3       1 BER802      0.0000 
     17 C15       -60.7940  -45.4970    1.1780 C.ar      1 BER802      0.0000 
     18 C16       -60.0440  -45.9290    3.5220 C.ar      1 BER802      0.0000 
     19 O2        -70.0190  -43.2560    4.4790 O.3       1 BER802      0.0000 
     20 C17       -69.8430  -43.5510    5.8690 C.3       1 BER802      0.0000 
     21 C18       -59.7360  -45.8300    2.1090 C.ar      1 BER802      0.0000 
     22 O3        -60.5880  -45.3700   -0.2110 O.3       1 BER802      0.0000 
     23 O4        -58.4580  -46.1020    1.6350 O.3       1 BER802      0.0000 
     24 C19       -59.3220  -45.6080   -0.8800 C.3       1 BER802      0.0000 
     25 C20       -57.3670  -46.4600    2.5110 C.3       1 BER802      0.0000 
     26 H         -63.8914  -45.0413    4.6056 H         1 BER802      0.0000 
     27 H         -66.1300  -45.2117    5.0636 H         1 BER802      0.0000 
     28 H         -62.9579  -44.8057   -0.1924 H         1 BER802      0.0000 
     29 H         -66.1116  -45.0131    0.0723 H         1 BER802      0.0000 
     30 H         -65.0397  -43.7711   -0.5974 H         1 BER802      0.0000 
     31 H         -68.8631  -42.5378    1.9918 H         1 BER802      0.0000 
     32 H         -65.8432  -42.1308    1.0094 H         1 BER802      0.0000 
     33 H         -67.2296  -42.8802    0.1994 H         1 BER802      0.0000 
     34 H         -61.5335  -45.6908    5.0157 H         1 BER802      0.0000 
     35 H         -59.3031  -46.2085    4.1675 H         1 BER802      0.0000 
     36 H         -69.5829  -42.6546    6.4226 H         1 BER802      0.0000 
     37 H         -70.7452  -43.9854    6.2873 H         1 BER802      0.0000 
     38 H         -58.6041  -44.9982   -0.5442 H         1 BER802      0.0000 
     39 H         -58.9994  -46.5444   -0.7421 H         1 BER802      0.0000 
     40 H         -59.3908  -45.4641   -1.8672 H         1 BER802      0.0000 
     41 H         -56.5216  -46.6252    2.0030 H         1 BER802      0.0000 
     42 H         -57.1730  -45.7391    3.1763 H         1 BER802      0.0000 
     43 H         -57.5647  -47.2919    3.0295 H         1 BER802      0.0000 
@<TRIPOS>BOND
     1    2    1 1    
     2    3    1 ar   
     3    4    1 ar   
     4    5    2 ar   
     5    6    2 ar   
     6    7    3 ar   
     7    8    3 1    
     8    9    4 ar   
     9   26    4 1    
    10   10    5 ar   
    11   11    5 1    
    12   12    6 ar   
    13   27    6 1    
    14   13    7 ar   
    15   28    7 1    
    16   11    8 1    
    17   29    8 1    
    18   30    8 1    
    19   13    9 ar   
    20   14    9 ar   
    21   15   10 ar   
    22   31   10 1    
    23   32   11 1    
    24   33   11 1    
    25   15   12 ar   
    26   16   12 1    
    27   17   13 ar   
    28   18   14 ar   
    29   34   14 1    
    30   19   15 1    
    31   20   16 1    
    32   21   17 ar   
    33   22   17 1    
    34   21   18 ar   
    35   35   18 1    
    36   20   19 1    
    37   36   20 1    
    38   37   20 1    
    39   23   21 1    
    40   24   22 1    
    41   25   23 1    
    42   38   24 1    
    43   39   24 1    
    44   40   24 1    
    45   41   25 1    
    46   42   25 1    
    47   43   25 1    
@<TRIPOS>SUBSTRUCTURE
     1 BER802      1 GROUP   
@<TRIPOS>SET

