#    Name: 3b5i_SAH_2_INTS_M
#    Modification time : Mon Mar 24 18:53:10 2014

@<TRIPOS>MOLECULE
3b5i_SAH_2_INTS_M
   54     0     9     0     0
SMALL
NO_CHARGES


@<TRIPOS>ATOM
      1 O           8.2725   30.4405    8.0865 O.2       1 ALC1        0.0000 
      2 O           7.6840   31.7170    8.4180 O.2       7 ALL1        0.0000 
      3 O           8.8610   29.1640    7.7550 O.2       4 ALP1        0.0000 
      4 O           8.2680   32.5925    7.5550 O.2       1 ALC1        0.0000 
      5 O           8.8520   33.4680    6.6920 O.2       4 ALP1        0.0000 
      6 CA          8.7940   29.9785   11.6325 C.3       3 GLC5        0.0000 
      7 CA          8.9720   31.8960   10.5480 C.3       9 GLL5        0.0000 
      8 CA          8.6160   28.0610   12.7170 C.3       6 GLP5        0.0000 
      9 CA         10.3070   34.1050    8.8295 C.3       3 GLC5        0.0000 
     10 CA         10.1700   32.0360    9.6330 C.3       9 GLL5        0.0000 
     11 CA         10.4440   36.1740    8.0260 C.3       6 GLP5        0.0000 
     12 N           5.9910   33.5715   12.9020 N.am      2 SEC2        0.0000 
     13 N           6.8250   33.3580   11.5220 N.am      8 SEL2        0.0000 
     14 N           5.1570   33.7850   14.2820 N.am      5 SEP2        0.0000 
     15 CA         12.6075   31.9000    7.1350 C.3       3 GLC5        0.0000 
     16 CA         12.6060   31.1650    8.9720 C.3       9 GLL5        0.0000 
     17 CA         12.6090   32.6350    5.2980 C.3       6 GLP5        0.0000 
     18 CA         14.3310   31.7670    8.1665 C.3       3 GLC5        0.0000 
     19 CA         16.0560   32.3690    7.3610 C.3       6 GLP5        0.0000 
     20 CA         10.8975   28.7850    7.3325 C.3       3 GLC5        0.0000 
     21 CA         12.1710   29.6280    8.8240 C.3       9 GLL5        0.0000 
     22 CA          9.6240   27.9420    5.8410 C.3       6 GLP5        0.0000 
     23 CA         11.9310   30.5305    6.9680 C.3       3 GLC5        0.0000 
     24 CA         11.6910   31.4330    5.1120 C.3       6 GLP5        0.0000 
     25 O          11.4260   26.9180    9.4175 O.2       1 ALC1        0.0000 
     26 O          11.8600   27.8930   10.4820 O.2       7 ALL1        0.0000 
     27 O          10.9920   25.9430    8.3530 O.2       4 ALP1        0.0000 
     28 O          12.3810   26.2060    8.8620 O.2       1 ALC1        0.0000 
     29 O          13.7700   26.4690    9.3710 O.2       7 ALL1        0.0000 
     30 CA         11.3375   27.9350    6.6985 C.3       3 GLC5        0.0000 
     31 CA         13.0510   27.9280    7.5560 C.3       9 GLL5        0.0000 
     32 CA         12.3710   29.6805    6.3340 C.3       3 GLC5        0.0000 
     33 CA         15.6890   24.4890    4.3970 C.3       3 GLC5        0.0000 
     34 CA         15.0820   26.0310    3.5650 C.3       9 GLL5        0.0000 
     35 CA         16.2960   22.9470    5.2290 C.3       6 GLP5        0.0000 
     36 CA         15.0460   24.2340    2.6250 C.3       3 GLC5        0.0000 
     37 CA         15.0100   22.4370    1.6850 C.3       6 GLP5        0.0000 
     38 O          16.4290   24.9380    1.6805 O.2       1 ALC1        0.0000 
     39 O          16.1410   26.0930    2.7440 O.2       7 ALL1        0.0000 
     40 O          16.7170   23.7830    0.6170 O.2       4 ALP1        0.0000 
     41 N          13.7805   24.5850    1.9880 N.am      2 SEC2        0.0000 
     42 N          14.0490   25.1150    3.3620 N.am      8 SEL2        0.0000 
     43 N          13.5120   24.0550    0.6140 N.am      5 SEP2        0.0000 
     44 CA         11.8275   24.2120    5.3690 C.3       3 GLC5        0.0000 
     45 CA         12.9650   25.0580    4.2360 C.3       9 GLL5        0.0000 
     46 CA         10.6900   23.3660    6.5020 C.3       6 GLP5        0.0000 
     47 CA         14.3920   24.3335    5.3600 C.3       3 GLC5        0.0000 
     48 CA         15.8190   23.6090    6.4840 C.3       6 GLP5        0.0000 
     49 CA         13.9875   23.7475    2.9605 C.3       3 GLC5        0.0000 
     50 CA         12.3165   25.3325    2.1235 C.3       3 GLC5        0.0000 
     51 CA         11.6680   25.6070    0.0110 C.3       6 GLP5        0.0000 
     52 CA         11.7445   27.3740    5.6735 C.3       3 GLC5        0.0000 
     53 CA         13.8650   26.8060    5.5060 C.3       9 GLL5        0.0000 
     54 CA         15.1197   25.2298    5.7825 C.3       3 GLC5        0.0000 
@<TRIPOS>BOND
@<TRIPOS>SUBSTRUCTURE
     1 ALC1        1 GROUP        1 X    ALC  0     ROOT ALC X 1
     2 SEC2       12 GROUP        1 X    SEC  0     **** SEC X 2
     3 GLC5        6 GROUP        1 X    GLC  0     **** GLC X 6
     4 ALP1        3 GROUP        1 Y    ALP  0     ROOT ALP Y 8
     5 SEP2       14 GROUP        1 Y    SEP  0     **** SEP Y 9
     6 GLP5        8 GROUP        1 Y    GLP  0     **** GLP Y 13
     7 ALL1        2 GROUP        1 Z    ALL  0     ROOT ALL Z 15
     8 SEL2       13 GROUP        1 Z    SEL  0     **** SEL Z 16
     9 GLL5        7 GROUP        1 Z    GLL  0     **** GLL Z 20
@<TRIPOS>SET

