#    Name: 3b5i_SAH_2_ligand
#    Modification time : Mon Mar 24 18:53:10 2014

@<TRIPOS>MOLECULE
3b5i_SAH_2_ligand
   46    48     1     0     0
SMALL
NO_CHARGES


@<TRIPOS>ATOM
      1 N           7.6840   31.7170    8.4180 N.4       1 SAH401      0.0000 
      2 CA          7.6050   31.8430    9.8690 C.3       1 SAH401      0.0000 
      3 CB          8.9720   31.8960   10.5480 C.3       1 SAH401      0.0000 
      4 CG         10.1700   32.0360    9.6330 C.3       1 SAH401      0.0000 
      5 SD         11.7980   31.9000   10.4030 S.3       1 SAH401      0.0000 
      6 C           6.8710   33.0870   10.3090 C.2       1 SAH401      0.0000 
      7 O           6.3230   33.8170    9.4730 O.co2     1 SAH401      0.0000 
      8 OXT         6.8250   33.3580   11.5220 O.co2     1 SAH401      0.0000 
      9 C5'        12.6060   31.1650    8.9720 C.3       1 SAH401      0.0000 
     10 C4'        12.1710   29.6280    8.8240 C.3       1 SAH401      0.0000 
     11 O4'        12.4690   29.2010    7.5020 O.3       1 SAH401      0.0000 
     12 C3'        12.8450   28.6570    9.8030 C.3       1 SAH401      0.0000 
     13 O3'        11.8600   27.8930   10.4820 O.3       1 SAH401      0.0000 
     14 C2'        13.7280   27.8040    8.9230 C.3       1 SAH401      0.0000 
     15 O2'        13.7700   26.4690    9.3710 O.3       1 SAH401      0.0000 
     16 C1'        13.0510   27.9280    7.5560 C.3       1 SAH401      0.0000 
     17 N9         14.0180   27.7480    6.4630 N.pl3     1 SAH401      0.0000 
     18 C8         15.2110   28.4040    6.2250 C.2       1 SAH401      0.0000 
     19 N7         15.7870   27.8720    5.1140 N.2       1 SAH401      0.0000 
     20 C5         14.9760   26.8950    4.6560 C.ar      1 SAH401      0.0000 
     21 C6         15.0820   26.0310    3.5650 C.ar      1 SAH401      0.0000 
     22 N6         16.1410   26.0930    2.7440 N.pl3     1 SAH401      0.0000 
     23 N1         14.0490   25.1150    3.3620 N.ar      1 SAH401      0.0000 
     24 C2         12.9650   25.0580    4.2360 C.ar      1 SAH401      0.0000 
     25 N3         12.8710   25.9130    5.3200 N.ar      1 SAH401      0.0000 
     26 C4         13.8650   26.8060    5.5060 C.ar      1 SAH401      0.0000 
     27 H           7.0724   30.9867   10.3024 H         1 SAH401      0.0000 
     28 H           9.0942   30.9764   11.1654 H         1 SAH401      0.0000 
     29 H           8.9715   32.7408   11.2747 H         1 SAH401      0.0000 
     30 H          10.2294   33.0123    9.1445 H         1 SAH401      0.0000 
     31 H          10.2173   31.2632    8.8610 H         1 SAH401      0.0000 
     32 H          13.6316   31.2600    9.1834 H         1 SAH401      0.0000 
     33 H          12.2660   31.7446    8.1634 H         1 SAH401      0.0000 
     34 H          11.0943   29.5953    8.9924 H         1 SAH401      0.0000 
     35 H          13.4613   29.2341   10.4514 H         1 SAH401      0.0000 
     36 H          14.6805   28.2751    8.8542 H         1 SAH401      0.0000 
     37 H          12.2929   27.1536    7.5076 H         1 SAH401      0.0000 
     38 H          15.5635   29.1158    6.7626 H         1 SAH401      0.0000 
     39 H          16.8034   26.8176    2.9343 H         1 SAH401      0.0000 
     40 H          16.1734   25.4091    2.0152 H         1 SAH401      0.0000 
     41 H          12.2163   24.3596    4.0670 H         1 SAH401      0.0000 
     42 H           8.1625   30.8831    8.1432 H         1 SAH401      0.0000 
     43 H           6.7771   31.6865    7.9979 H         1 SAH401      0.0000 
     44 H           8.1728   32.4852    8.0045 H         1 SAH401      0.0000 
     45 H          11.5538   27.2141    9.8147 H         1 SAH401      0.0000 
     46 H          12.8251   26.1467    9.3128 H         1 SAH401      0.0000 
@<TRIPOS>BOND
     1    2    1 1    
     2   42    1 1    
     3   43    1 1    
     4   44    1 1    
     5    3    2 1    
     6    6    2 1    
     7   27    2 1    
     8    4    3 1    
     9   28    3 1    
    10   29    3 1    
    11    5    4 1    
    12   30    4 1    
    13   31    4 1    
    14    9    5 1    
    15    7    6 ar   
    16    8    6 ar   
    17   10    9 1    
    18   32    9 1    
    19   33    9 1    
    20   11   10 1    
    21   12   10 1    
    22   34   10 1    
    23   16   11 1    
    24   13   12 1    
    25   14   12 1    
    26   35   12 1    
    27   45   13 1    
    28   15   14 1    
    29   16   14 1    
    30   36   14 1    
    31   46   15 1    
    32   17   16 1    
    33   37   16 1    
    34   18   17 1    
    35   26   17 1    
    36   19   18 2    
    37   38   18 1    
    38   20   19 1    
    39   21   20 ar   
    40   26   20 ar   
    41   22   21 1    
    42   23   21 ar   
    43   39   22 1    
    44   40   22 1    
    45   24   23 ar   
    46   25   24 ar   
    47   41   24 1    
    48   26   25 ar   
@<TRIPOS>SUBSTRUCTURE
     1 SAH401      1 GROUP   
@<TRIPOS>SET

