#    Name: 1tiq_COA_3_INTS_M
#    Modification time : Tue Mar 25 05:19:56 2014

@<TRIPOS>MOLECULE
1tiq_COA_3_INTS_M
   90     0    12     0     0
SMALL
NO_CHARGES


@<TRIPOS>ATOM
      1 CA         22.2050   98.9580   65.0865 C.3       4 GLC5        0.0000 
      2 CA         21.2780  100.1480   66.0440 C.3      12 GLL5        0.0000 
      3 CA         23.1320   97.7680   64.1290 C.3       8 GLP5        0.0000 
      4 CA         20.6545  100.4175   62.3155 C.3       4 GLC5        0.0000 
      5 CA         20.4040  101.6160   64.1390 C.3      12 GLL5        0.0000 
      6 CA         20.9050   99.2190   60.4920 C.3       8 GLP5        0.0000 
      7 CA         22.9565   99.7520   64.3995 C.3       4 GLC5        0.0000 
      8 CA         22.7810  101.7360   64.6700 C.3      12 GLL5        0.0000 
      9 O          25.5250  102.3880   64.6525 O.2       1 ALC1        0.0000 
     10 O          24.0850  102.2600   64.4510 O.2       9 ALL1        0.0000 
     11 O          26.9650  102.5160   64.8540 O.2       5 ALP1        0.0000 
     12 CA         16.9025  100.1940   63.1160 C.3       4 GLC5        0.0000 
     13 CA         18.0710  101.8310   63.2600 C.3      12 GLL5        0.0000 
     14 CA         15.7340   98.5570   62.9720 C.3       8 GLP5        0.0000 
     15 NZ         12.1665  104.1820   61.0685 N.4       3 LYC4        0.0000 
     16 NZ         13.0410  103.9420   62.2540 N.4      11 LYL4        0.0000 
     17 NZ         11.2920  104.4220   59.8830 N.4       7 LYP4        0.0000 
     18 N          12.1665  104.1820   61.0685 N.am      2 SEC2        0.0000 
     19 N          13.0410  103.9420   62.2540 N.am     10 SEL2        0.0000 
     20 N          11.2920  104.4220   59.8830 N.am      6 SEP2        0.0000 
     21 NZ         13.0035  101.3655   64.4225 N.4       3 LYC4        0.0000 
     22 NZ         12.3490  102.8890   64.2730 N.4      11 LYL4        0.0000 
     23 NZ         13.6580   99.8420   64.5720 N.4       7 LYP4        0.0000 
     24 CA         16.0115  100.6080   62.4260 C.3       4 GLC5        0.0000 
     25 CA         16.2890  102.6590   61.8800 C.3      12 GLL5        0.0000 
     26 CA         15.4515  104.2010   59.0715 C.3       4 GLC5        0.0000 
     27 CA         16.2730  104.0020   61.1130 C.3      12 GLL5        0.0000 
     28 CA         14.6300  104.4000   57.0300 C.3       8 GLP5        0.0000 
     29 N          17.0710  105.5905   57.4685 N.am      2 SEC2        0.0000 
     30 N          17.3580  105.9980   58.7940 N.am     10 SEL2        0.0000 
     31 N          16.7840  105.1830   56.1430 N.am      6 SEP2        0.0000 
     32 N          16.9685  108.0510   60.4955 N.am      2 SEC2        0.0000 
     33 N          17.7420  107.0080   60.9340 N.am     10 SEL2        0.0000 
     34 N          16.1950  109.0940   60.0570 N.am      6 SEP2        0.0000 
     35 N          19.2180  107.6055   57.4980 N.am      2 SEC2        0.0000 
     36 N          20.0070  107.8170   58.8010 N.am     10 SEL2        0.0000 
     37 N          18.4290  107.3940   56.1950 N.am      6 SEP2        0.0000 
     38 N          21.1615  108.1095   61.1865 N.am      2 SEC2        0.0000 
     39 N          21.5650  106.9960   60.3500 N.am     10 SEL2        0.0000 
     40 N          20.7580  109.2230   62.0230 N.am      6 SEP2        0.0000 
     41 CA         21.8835  106.6230   56.5900 C.3       4 GLC5        0.0000 
     42 CA         21.6780  104.7500   57.7530 C.3      12 GLL5        0.0000 
     43 CA         22.0890  108.4960   55.4270 C.3       8 GLP5        0.0000 
     44 CA         20.3225  105.4420   56.7335 C.3       4 GLC5        0.0000 
     45 CA         18.9670  106.1340   55.7140 C.3       8 GLP5        0.0000 
     46 CA         20.6335  103.1500   58.2600 C.3       4 GLC5        0.0000 
     47 CA         19.5890  101.5500   58.7670 C.3       8 GLP5        0.0000 
     48 CA         22.6345  104.3285   54.1335 C.3       4 GLC5        0.0000 
     49 CA         23.0620  104.6550   55.9580 C.3      12 GLL5        0.0000 
     50 CA         22.2070  104.0020   52.3090 C.3       8 GLP5        0.0000 
     51 CA         24.4180  105.7725   54.5650 C.3       4 GLC5        0.0000 
     52 CA         25.7740  106.8900   53.1720 C.3       8 GLP5        0.0000 
     53 CA         22.5755  106.5755   55.6925 C.3       4 GLC5        0.0000 
     54 CA         21.0145  105.3945   55.8360 C.3       4 GLC5        0.0000 
     55 CA         24.8010  101.3470   58.5330 C.3       4 GLC5        0.0000 
     56 CA         23.8680  103.2040   57.9380 C.3      12 GLL5        0.0000 
     57 CA         25.7340   99.4900   59.1280 C.3       8 GLP5        0.0000 
     58 CA         22.4950  101.8955   57.5690 C.3       4 GLC5        0.0000 
     59 CA         21.1220  100.5870   57.2000 C.3       8 GLP5        0.0000 
     60 CA         23.6625  107.6060   57.1580 C.3       4 GLC5        0.0000 
     61 CA         24.1790  105.9610   58.0760 C.3      12 GLL5        0.0000 
     62 CA         23.1460  109.2510   56.2400 C.3       8 GLP5        0.0000 
     63 CA         24.3425  107.6625   58.9865 C.3       4 GLC5        0.0000 
     64 CA         24.5060  109.3640   59.8970 C.3       8 GLP5        0.0000 
     65 N          25.3895  107.3345   55.5660 N.am      2 SEC2        0.0000 
     66 N          25.7540  106.2020   56.3120 N.am     10 SEL2        0.0000 
     67 N          25.0250  108.4670   54.8200 N.am      6 SEP2        0.0000 
     68 CA         28.7690  105.2970   55.1825 C.3       4 GLC5        0.0000 
     69 CA         28.6010  104.7150   56.8710 C.3      12 GLL5        0.0000 
     70 CA         28.9370  105.8790   53.4940 C.3       8 GLP5        0.0000 
     71 N          28.8090  101.3825   58.6990 N.am      2 SEC2        0.0000 
     72 N          28.2080  102.4990   57.7440 N.am     10 SEL2        0.0000 
     73 N          29.4100  100.2660   59.6540 N.am      6 SEP2        0.0000 
     74 O          26.7885  103.4900   54.2900 O.2       1 ALC1        0.0000 
     75 O          27.6920  102.8610   55.4850 O.2       9 ALL1        0.0000 
     76 O          25.8850  104.1190   53.0950 O.2       5 ALP1        0.0000 
     77 CA         25.5350  101.8530   53.9605 C.3       4 GLC5        0.0000 
     78 CA         27.2110  101.5520   55.1000 C.3      12 GLL5        0.0000 
     79 CA         23.8590  102.1540   52.8210 C.3       8 GLP5        0.0000 
     80 CA         27.2240  101.4695   50.6140 C.3       4 GLC5        0.0000 
     81 CA         27.9380  101.0510   52.4250 C.3      12 GLL5        0.0000 
     82 CA         26.5100  101.8880   48.8030 C.3       8 GLP5        0.0000 
     83 CA         25.8985  101.6025   52.6230 C.3       4 GLC5        0.0000 
     84 CA         15.6820  101.6268   60.6767 C.3       4 GLC5        0.0000 
     85 CA         15.0830   99.9230   59.8570 C.3       8 GLP5        0.0000 
     86 CA         27.2060  100.2785   56.2913 C.3       4 GLC5        0.0000 
     87 CA         26.6730   99.3930   57.9320 C.3       8 GLP5        0.0000 
     88 CA         29.0418  102.5553   52.7260 C.3       4 GLC5        0.0000 
     89 CA         28.2670  100.7760   54.2010 C.3      12 GLL5        0.0000 
     90 CA         29.9810  104.1970   52.1390 C.3       8 GLP5        0.0000 
@<TRIPOS>BOND
@<TRIPOS>SUBSTRUCTURE
     1 ALC1        9 GROUP        1 X    ALC  0     ROOT ALC X 1
     2 SEC2       18 GROUP        1 X    SEC  0     **** SEC X 2
     3 LYC4       15 GROUP        1 X    LYC  0     **** LYC X 4
     4 GLC5        1 GROUP        1 X    GLC  0     **** GLC X 6
     5 ALP1       11 GROUP        1 Y    ALP  0     ROOT ALP Y 8
     6 SEP2       20 GROUP        1 Y    SEP  0     **** SEP Y 9
     7 LYP4       17 GROUP        1 Y    LYP  0     **** LYP Y 11
     8 GLP5        3 GROUP        1 Y    GLP  0     **** GLP Y 13
     9 ALL1       10 GROUP        1 Z    ALL  0     ROOT ALL Z 15
    10 SEL2       19 GROUP        1 Z    SEL  0     **** SEL Z 16
    11 LYL4       16 GROUP        1 Z    LYL  0     **** LYL Z 18
    12 GLL5        2 GROUP        1 Z    GLL  0     **** GLL Z 20
@<TRIPOS>SET

