#    Name: 1tiq_COA_3_ligand
#    Modification time : Tue Mar 25 05:19:56 2014

@<TRIPOS>MOLECULE
1tiq_COA_3_ligand
   79    81     1     0     0
SMALL
NO_CHARGES


@<TRIPOS>ATOM
      1 N1A        22.5650  100.7460   65.7330 N.ar      1 COA302      0.0000 
      2 C2A        21.2780  100.1480   66.0440 C.ar      1 COA302      0.0000 
      3 N3A        20.1920  100.6280   65.2060 N.ar      1 COA302      0.0000 
      4 C4A        20.4040  101.6160   64.1390 C.ar      1 COA302      0.0000 
      5 C5A        21.6670  102.2040   63.8490 C.ar      1 COA302      0.0000 
      6 C6A        22.7810  101.7360   64.6700 C.ar      1 COA302      0.0000 
      7 N6A        24.0850  102.2600   64.4510 N.pl3     1 COA302      0.0000 
      8 N7A        21.5580  103.1000   62.7970 N.2       1 COA302      0.0000 
      9 C8A        20.1970  103.0720   62.4530 C.2       1 COA302      0.0000 
     10 N9A        19.4720  102.1720   63.2680 N.pl3     1 COA302      0.0000 
     11 C1B        18.0710  101.8310   63.2600 C.3       1 COA302      0.0000 
     12 C2B        17.1160  102.6790   64.1570 C.3       1 COA302      0.0000 
     13 O2B        16.6350  101.9660   65.2740 O.3       1 COA302      0.0000 
     14 C3B        16.0040  103.1830   63.2370 C.3       1 COA302      0.0000 
     15 O3B        14.6980  102.7820   63.7310 O.3       1 COA302      0.0000 
     16 P3B        13.4190  103.6880   63.6660 P.3       1 COA302      0.0000 
     17 O7A        13.5620  104.9790   64.3340 O.co2     1 COA302      0.0000 
     18 O8A        13.0410  103.9420   62.2540 O.co2     1 COA302      0.0000 
     19 O9A        12.3490  102.8890   64.2730 O.co2     1 COA302      0.0000 
     20 C4B        16.2890  102.6590   61.8800 C.3       1 COA302      0.0000 
     21 O4B        17.4980  101.8710   61.9190 O.3       1 COA302      0.0000 
     22 C5B        16.2730  104.0020   61.1130 C.3       1 COA302      0.0000 
     23 O5B        17.5960  104.4090   60.7650 O.3       1 COA302      0.0000 
     24 P1A        18.0170  105.8290   60.0410 P.3       1 COA302      0.0000 
     25 O1A        17.3580  105.9980   58.7940 O.co2     1 COA302      0.0000 
     26 O2A        17.7420  107.0080   60.9340 O.co2     1 COA302      0.0000 
     27 O3A        19.5780  105.6280   59.9440 O.3       1 COA302      0.0000 
     28 P2A        20.6230  106.6120   59.3360 P.3       1 COA302      0.0000 
     29 O4A        20.0070  107.8170   58.8010 O.co2     1 COA302      0.0000 
     30 O5A        21.5650  106.9960   60.3500 O.co2     1 COA302      0.0000 
     31 O6A        21.4970  106.0070   58.3480 O.3       1 COA302      0.0000 
     32 CBP        23.2780  104.6150   57.5110 C.3       1 COA302      0.0000 
     33 CCP        21.6780  104.7500   57.7530 C.3       1 COA302      0.0000 
     34 CDP        23.0620  104.6550   55.9580 C.3       1 COA302      0.0000 
     35 CEP        23.8680  103.2040   57.9380 C.3       1 COA302      0.0000 
     36 CAP        24.1790  105.9610   58.0760 C.3       1 COA302      0.0000 
     37 OAP        24.2280  105.6560   59.5080 O.3       1 COA302      0.0000 
     38 C9P        25.6040  105.9520   57.4970 C.2       1 COA302      0.0000 
     39 O9P        25.7540  106.2020   56.3120 O.2       1 COA302      0.0000 
     40 N8P        26.6880  105.6530   58.3740 N.am      1 COA302      0.0000 
     41 C7P        28.1180  105.5740   58.1160 C.3       1 COA302      0.0000 
     42 C6P        28.6010  104.7150   56.8710 C.3       1 COA302      0.0000 
     43 C5P        28.1610  103.2680   56.7710 C.2       1 COA302      0.0000 
     44 O5P        28.2080  102.4990   57.7440 O.2       1 COA302      0.0000 
     45 N4P        27.6920  102.8610   55.4850 N.am      1 COA302      0.0000 
     46 C3P        27.2110  101.5520   55.1000 C.3       1 COA302      0.0000 
     47 C2P        28.2670  100.7760   54.2010 C.3       1 COA302      0.0000 
     48 S1P        27.9380  101.0510   52.4250 S.3       1 COA302      0.0000 
     49 H          21.1557   99.4948   66.7401 H         1 COA302      0.0000 
     50 H          24.8093  101.8967   65.0370 H         1 COA302      0.0000 
     51 H          24.1675  102.9475   63.7295 H         1 COA302      0.0000 
     52 H          19.8008  103.5987   61.7496 H         1 COA302      0.0000 
     53 H          17.9357  100.7754   63.6243 H         1 COA302      0.0000 
     54 H          17.7002  103.5631   64.4513 H         1 COA302      0.0000 
     55 H          16.0868  104.2704   63.2128 H         1 COA302      0.0000 
     56 H          15.4183  102.1079   61.5753 H         1 COA302      0.0000 
     57 H          15.7729  104.7386   61.7588 H         1 COA302      0.0000 
     58 H          15.6395  103.8611   60.2251 H         1 COA302      0.0000 
     59 H          21.2348  104.6535   56.7796 H         1 COA302      0.0000 
     60 H          21.4154  103.9207   58.3828 H         1 COA302      0.0000 
     61 H          23.6290  106.7798   57.8493 H         1 COA302      0.0000 
     62 H          26.4106  105.4490   59.4079 H         1 COA302      0.0000 
     63 H          28.6650  105.1606   59.0050 H         1 COA302      0.0000 
     64 H          28.5581  106.5968   57.9726 H         1 COA302      0.0000 
     65 H          29.7189  104.7680   56.8565 H         1 COA302      0.0000 
     66 H          28.2792  105.2683   55.9528 H         1 COA302      0.0000 
     67 H          27.6938  103.6010   54.7165 H         1 COA302      0.0000 
     68 H          26.2869  101.6092   54.5122 H         1 COA302      0.0000 
     69 H          27.0158  100.9128   55.9695 H         1 COA302      0.0000 
     70 H          28.1858   99.7284   54.2989 H         1 COA302      0.0000 
     71 H          29.2476  101.1468   54.3219 H         1 COA302      0.0000 
     72 H          23.8998  104.4298   55.4606 H         1 COA302      0.0000 
     73 H          22.3623  104.0041   55.6635 H         1 COA302      0.0000 
     74 H          22.7705  105.5595   55.6467 H         1 COA302      0.0000 
     75 H          24.8540  103.1504   57.7798 H         1 COA302      0.0000 
     76 H          23.7163  103.0163   58.9084 H         1 COA302      0.0000 
     77 H          23.4478  102.4552   57.4254 H         1 COA302      0.0000 
     78 H          15.6676  101.8032   65.0800 H         1 COA302      0.0000 
     79 H          23.3952  106.0595   59.8871 H         1 COA302      0.0000 
@<TRIPOS>BOND
     1    2    1 ar   
     2    6    1 ar   
     3    3    2 ar   
     4   49    2 1    
     5    4    3 ar   
     6    5    4 ar   
     7   10    4 1    
     8    6    5 ar   
     9    8    5 1    
    10    7    6 1    
    11   50    7 1    
    12   51    7 1    
    13    9    8 2    
    14   10    9 1    
    15   52    9 1    
    16   11   10 1    
    17   12   11 1    
    18   21   11 1    
    19   53   11 1    
    20   13   12 1    
    21   14   12 1    
    22   54   12 1    
    23   78   13 1    
    24   15   14 1    
    25   20   14 1    
    26   55   14 1    
    27   16   15 1    
    28   17   16 ar   
    29   18   16 ar   
    30   19   16 ar   
    31   21   20 1    
    32   22   20 1    
    33   56   20 1    
    34   23   22 1    
    35   57   22 1    
    36   58   22 1    
    37   24   23 1    
    38   25   24 ar   
    39   26   24 ar   
    40   27   24 1    
    41   28   27 1    
    42   29   28 ar   
    43   30   28 ar   
    44   31   28 1    
    45   33   31 1    
    46   33   32 1    
    47   34   32 1    
    48   35   32 1    
    49   36   32 1    
    50   59   33 1    
    51   60   33 1    
    52   72   34 1    
    53   73   34 1    
    54   74   34 1    
    55   75   35 1    
    56   76   35 1    
    57   77   35 1    
    58   37   36 1    
    59   38   36 1    
    60   61   36 1    
    61   79   37 1    
    62   39   38 2    
    63   40   38 am   
    64   41   40 1    
    65   62   40 1    
    66   42   41 1    
    67   63   41 1    
    68   64   41 1    
    69   43   42 1    
    70   65   42 1    
    71   66   42 1    
    72   44   43 2    
    73   45   43 am   
    74   46   45 1    
    75   67   45 1    
    76   47   46 1    
    77   68   46 1    
    78   69   46 1    
    79   48   47 1    
    80   70   47 1    
    81   71   47 1    
@<TRIPOS>SUBSTRUCTURE
     1 COA302      1 GROUP   
@<TRIPOS>SET

