#    Name: 1pq9_44B_2_INTS_M
#    Modification time : Mon Mar 24 22:05:27 2014

@<TRIPOS>MOLECULE
1pq9_44B_2_INTS_M
   80     0     6     0     0
SMALL
NO_CHARGES


@<TRIPOS>ATOM
      1 CA          8.9370   58.1935   56.8830 C.3       2 GLC5        0.0000 
      2 CA          8.8750   56.0810   57.1540 C.3       6 GLL5        0.0000 
      3 CA          8.9990   60.3060   56.6120 C.3       4 GLP5        0.0000 
      4 CA          8.3950   56.5860   58.6365 C.3       2 GLC5        0.0000 
      5 CA          7.9150   57.0910   60.1190 C.3       4 GLP5        0.0000 
      6 CA          7.9085   52.7505   56.9550 C.3       2 GLC5        0.0000 
      7 CA          8.1550   54.3570   56.0170 C.3       6 GLL5        0.0000 
      8 CA          7.6620   51.1440   57.8930 C.3       4 GLP5        0.0000 
      9 CA          8.5495   58.3175   55.8835 C.3       2 GLC5        0.0000 
     10 CA          8.1000   56.3290   55.1550 C.3       6 GLL5        0.0000 
     11 CA          8.8110   57.3595   53.4750 C.3       2 GLC5        0.0000 
     12 CA          9.5220   58.3900   51.7950 C.3       4 GLP5        0.0000 
     13 CA         11.2905   54.6630   53.4020 C.3       2 GLC5        0.0000 
     14 CA         10.2350   55.2990   55.2730 C.3       6 GLL5        0.0000 
     15 CA         12.3460   54.0270   51.5310 C.3       4 GLP5        0.0000 
     16 N           9.4655   53.8030   53.6010 N.am      1 SEC2        0.0000 
     17 N          10.0640   54.9410   53.8850 N.am      5 SEL2        0.0000 
     18 N           8.8670   52.6650   53.3170 N.am      3 SEP2        0.0000 
     19 CA         12.3235   57.6665   58.0195 C.3       2 GLC5        0.0000 
     20 CA         11.3510   57.0910   56.5190 C.3       6 GLL5        0.0000 
     21 CA         13.2960   58.2420   59.5200 C.3       4 GLP5        0.0000 
     22 CA         13.4735   57.9360   55.0030 C.3       2 GLC5        0.0000 
     23 CA         12.1410   56.5170   54.6120 C.3       6 GLL5        0.0000 
     24 CA         14.8060   59.3550   55.3940 C.3       4 GLP5        0.0000 
     25 CA         13.9010   55.9145   54.4415 C.3       2 GLC5        0.0000 
     26 CA         15.6610   55.3120   54.2710 C.3       4 GLP5        0.0000 
     27 CA         13.0640   57.1500   53.2360 C.3       2 GLC5        0.0000 
     28 CA         13.9870   57.7830   51.8600 C.3       4 GLP5        0.0000 
     29 CA         12.2435   55.2720   53.0715 C.3       2 GLC5        0.0000 
     30 CA          9.6975   54.4175   58.8665 C.3       2 GLC5        0.0000 
     31 CA         11.1940   54.1700   57.4610 C.3       6 GLL5        0.0000 
     32 CA          8.2010   54.6650   60.2720 C.3       4 GLP5        0.0000 
     33 CA         13.7260   54.2890   54.7520 C.3       2 GLC5        0.0000 
     34 CA         11.7910   53.2660   55.2330 C.3       6 GLL5        0.0000 
     35 CA         12.0725   51.2250   60.9015 C.3       2 GLC5        0.0000 
     36 CA         12.9130   50.5410   59.1530 C.3       6 GLL5        0.0000 
     37 CA         11.2320   51.9090   62.6500 C.3       4 GLP5        0.0000 
     38 CA         13.2480   47.9330   60.9335 C.3       2 GLC5        0.0000 
     39 CA         12.0980   48.5220   59.8280 C.3       6 GLL5        0.0000 
     40 CA         14.3980   47.3440   62.0390 C.3       4 GLP5        0.0000 
     41 CA         11.6650   50.2155   61.2390 C.3       2 GLC5        0.0000 
     42 CA         11.2475   47.8930   61.1340 C.3       2 GLC5        0.0000 
     43 CA         10.3970   47.2640   62.4400 C.3       4 GLP5        0.0000 
     44 CA         14.3850   48.3625   56.4145 C.3       2 GLC5        0.0000 
     45 CA         13.1740   48.4820   57.9470 C.3       6 GLL5        0.0000 
     46 CA         15.5960   48.2430   54.8820 C.3       4 GLP5        0.0000 
     47 CA         13.4250   46.7525   57.6770 C.3       2 GLC5        0.0000 
     48 CA         13.6760   45.0230   57.4070 C.3       4 GLP5        0.0000 
     49 CA         11.3055   49.4495   55.8970 C.3       2 GLC5        0.0000 
     50 CA         11.2470   49.3630   58.0200 C.3       6 GLL5        0.0000 
     51 CA         11.3640   49.5360   53.7740 C.3       4 GLP5        0.0000 
     52 CA          9.5645   49.6345   57.6725 C.3       2 GLC5        0.0000 
     53 CA          7.8820   49.9060   57.3250 C.3       4 GLP5        0.0000 
     54 CA          8.3483   54.8023   58.1205 C.3       2 GLC5        0.0000 
     55 CA          8.8360   55.5220   55.9210 C.3       6 GLL5        0.0000 
     56 CA          8.2568   53.4213   55.0315 C.3       2 GLC5        0.0000 
     57 CA          8.0180   51.9030   54.0940 C.3       4 GLP5        0.0000 
     58 CA          6.6038   55.0171   56.3381 C.3       2 GLC5        0.0000 
     59 CA          4.9050   54.3300   56.9600 C.3       4 GLP5        0.0000 
     60 CA          7.4859   55.3181   53.8185 C.3       2 GLC5        0.0000 
     61 CA          6.6740   55.0020   52.0750 C.3       4 GLP5        0.0000 
     62 CA          7.1948   56.8956   56.0286 C.3       2 GLC5        0.0000 
     63 CA          6.0870   58.0870   56.3410 C.3       4 GLP5        0.0000 
     64 CA          9.8723   58.7899   55.9537 C.3       2 GLC5        0.0000 
     65 CA         10.3180   57.6690   54.6880 C.3       6 GLL5        0.0000 
     66 CA         11.7082   58.9519   55.1328 C.3       2 GLC5        0.0000 
     67 CA         12.6710   60.6300   54.9700 C.3       4 GLP5        0.0000 
     68 CA         10.2325   57.7601   53.3069 C.3       2 GLC5        0.0000 
     69 CA         11.7728   51.1508   54.6620 C.3       2 GLC5        0.0000 
     70 CA          9.6199   52.9595   54.7673 C.3       2 GLC5        0.0000 
     71 CA         14.0699   51.9726   55.4442 C.3       2 GLC5        0.0000 
     72 CA         12.5720   52.2650   55.8670 C.3       6 GLL5        0.0000 
     73 CA         15.7160   51.4600   54.4680 C.3       4 GLP5        0.0000 
     74 CA         13.9743   47.8495   59.5817 C.3       2 GLC5        0.0000 
     75 CA         12.3590   49.2080   58.7220 C.3       6 GLL5        0.0000 
     76 CA         15.1820   46.8540   60.8290 C.3       4 GLP5        0.0000 
     77 CA         10.3220   49.2602   59.5460 C.3       2 GLC5        0.0000 
     78 CA          8.8410   49.2350   60.7210 C.3       4 GLP5        0.0000 
     79 CA         11.1779   47.5600   58.3688 C.3       2 GLC5        0.0000 
     80 CA         10.6180   46.0060   58.0900 C.3       4 GLP5        0.0000 
@<TRIPOS>BOND
@<TRIPOS>SUBSTRUCTURE
     1 SEC2       16 GROUP        1 X    SEC  0     ROOT SEC X 2
     2 GLC5        1 GROUP        1 X    GLC  0     **** GLC X 6
     3 SEP2       18 GROUP        1 Y    SEP  0     ROOT SEP Y 9
     4 GLP5        3 GROUP        1 Y    GLP  0     **** GLP Y 13
     5 SEL2       17 GROUP        1 Z    SEL  0     ROOT SEL Z 16
     6 GLL5        2 GROUP        1 Z    GLL  0     **** GLL Z 20
@<TRIPOS>SET

