#    Name: 1pq9_44B_2_ligand
#    Modification time : Mon Mar 24 22:05:27 2014

@<TRIPOS>MOLECULE
1pq9_44B_2_ligand
   30    30     1     0     0
SMALL
NO_CHARGES


@<TRIPOS>ATOM
      1 F35         8.8750   56.0810   57.1540 F         1 44B2501     0.0000 
      2 C34         8.8360   55.5220   55.9210 C.3       1 44B2501     0.0000 
      3 F37         8.1550   54.3570   56.0170 F         1 44B2501     0.0000 
      4 F36         8.1000   56.3290   55.1550 F         1 44B2501     0.0000 
      5 C33        10.2350   55.2990   55.2730 C.3       1 44B2501     0.0000 
      6 O42        10.0640   54.9410   53.8850 O.3       1 44B2501     0.0000 
      7 C38        10.9950   56.6660   55.2870 C.3       1 44B2501     0.0000 
      8 F39        11.3510   57.0910   56.5190 F         1 44B2501     0.0000 
      9 F40        12.1410   56.5170   54.6120 F         1 44B2501     0.0000 
     10 F41        10.3180   57.6690   54.6880 F         1 44B2501     0.0000 
     11 C26        11.0700   54.2330   56.0230 C.ar      1 44B2501     0.0000 
     12 C27        11.1940   54.1700   57.4610 C.ar      1 44B2501     0.0000 
     13 C28        11.9850   53.1760   58.0800 C.ar      1 44B2501     0.0000 
     14 C25        11.7910   53.2660   55.2330 C.ar      1 44B2501     0.0000 
     15 C24        12.5720   52.2650   55.8670 C.ar      1 44B2501     0.0000 
     16 C23        12.6660   52.2050   57.2910 C.ar      1 44B2501     0.0000 
     17 N15        13.5210   51.1820   57.9560 N.pl3     1 44B2501     0.0000 
     18 C16        12.9130   50.5410   59.1530 C.3       1 44B2501     0.0000 
     19 C19        12.3590   49.2080   58.7220 C.3       1 44B2501     0.0000 
     20 F22        12.0980   48.5220   59.8280 F         1 44B2501     0.0000 
     21 F21        13.1740   48.4820   57.9470 F         1 44B2501     0.0000 
     22 F20        11.2470   49.3630   58.0200 F         1 44B2501     0.0000 
     23 H          10.6966   54.8612   58.0274 H         1 44B2501     0.0000 
     24 H          12.0720   53.1494   59.0969 H         1 44B2501     0.0000 
     25 H          11.7332   53.3099   54.2189 H         1 44B2501     0.0000 
     26 H          13.0747   51.5770   55.3016 H         1 44B2501     0.0000 
     27 H          14.3947   50.9552   57.6367 H         1 44B2501     0.0000 
     28 H          12.1114   51.1562   59.5399 H         1 44B2501     0.0000 
     29 H          13.6635   50.3891   59.9175 H         1 44B2501     0.0000 
     30 H          10.6414   55.5184   54.4624 H         1 44B2501     0.0000 
@<TRIPOS>BOND
     1    2    1 1    
     2    3    2 1    
     3    4    2 1    
     4    5    2 1    
     5    6    5 1    
     6    7    5 1    
     7   11    5 1    
     8   30    6 1    
     9    8    7 1    
    10    9    7 1    
    11   10    7 1    
    12   12   11 ar   
    13   14   11 ar   
    14   13   12 ar   
    15   23   12 1    
    16   16   13 ar   
    17   24   13 1    
    18   15   14 ar   
    19   25   14 1    
    20   16   15 ar   
    21   26   15 1    
    22   17   16 1    
    23   18   17 1    
    24   27   17 1    
    25   19   18 1    
    26   28   18 1    
    27   29   18 1    
    28   20   19 1    
    29   21   19 1    
    30   22   19 1    
@<TRIPOS>SUBSTRUCTURE
     1 44B2501     1 GROUP   
@<TRIPOS>SET

