#    Name: 3d80_Q22_1_INTS_M
#    Modification time : Mon Mar 24 22:51:28 2014

@<TRIPOS>MOLECULE
3d80_Q22_1_INTS_M
   61     0     9     0     0
SMALL
NO_CHARGES


@<TRIPOS>ATOM
      1 CA         -4.7135    3.7055   17.0945 C.3       3 GLC5        0.0000 
      2 CA         -4.1870    3.4130   15.2770 C.3       9 GLL5        0.0000 
      3 CA         -5.2400    3.9980   18.9120 C.3       6 GLP5        0.0000 
      4 CA         -2.2465    5.1245   12.6485 C.3       3 GLC5        0.0000 
      5 CA         -2.1160    4.1220   14.5370 C.3       9 GLL5        0.0000 
      6 CA         -2.3770    6.1270   10.7600 C.3       6 GLP5        0.0000 
      7 N          -1.4300    6.4010   14.8090 N.am      2 SEC2        0.0000 
      8 N          -1.2330    5.0990   14.3040 N.am      8 SEL2        0.0000 
      9 N          -1.6270    7.7030   15.3140 N.am      5 SEP2        0.0000 
     10 CA          1.2900    4.5385   12.2025 C.3       3 GLC5        0.0000 
     11 CA         -0.0360    4.8350   13.7710 C.3       9 GLL5        0.0000 
     12 CA          2.6160    4.2420   10.6340 C.3       6 GLP5        0.0000 
     13 CA          1.5620    3.6980   14.3060 C.3       3 GLC5        0.0000 
     14 CA          3.1600    2.5610   14.8410 C.3       6 GLP5        0.0000 
     15 CA          0.4210    5.3110   15.6480 C.3       3 GLC5        0.0000 
     16 CA          0.8780    5.7870   17.5250 C.3       6 GLP5        0.0000 
     17 CA         -1.2065    5.4810   12.2655 C.3       3 GLC5        0.0000 
     18 O           0.5545    7.0740   14.0195 O.2       1 ALC1        0.0000 
     19 O           0.8360    5.7830   13.5740 O.2       7 ALL1        0.0000 
     20 O           0.2730    8.3650   14.4650 O.2       4 ALP1        0.0000 
     21 CA          1.2890    2.5810   14.2020 C.3       3 GLC5        0.0000 
     22 CA         -0.5820    2.6010   13.5630 C.3       9 GLL5        0.0000 
     23 O           1.1370    1.1595   12.9240 O.2       1 ALC1        0.0000 
     24 O          -0.2690    1.3830   13.1860 O.2       7 ALL1        0.0000 
     25 O           2.5430    0.9360   12.6620 O.2       4 ALP1        0.0000 
     26 O           0.8315    0.2775   13.8780 O.2       1 ALC1        0.0000 
     27 O           1.9320   -0.8280   14.5700 O.2       4 ALP1        0.0000 
     28 CA         -3.1250    0.2465   15.6510 C.3       3 GLC5        0.0000 
     29 CA         -4.8590    0.8930   15.1290 C.3       9 GLL5        0.0000 
     30 CA         -1.3910   -0.4000   16.1730 C.3       6 GLP5        0.0000 
     31 CA         -5.4730   -2.5220   15.4830 C.3       3 GLC5        0.0000 
     32 CA         -6.4390   -0.9990   16.8030 C.3       9 GLL5        0.0000 
     33 CA         -4.5070   -4.0450   14.1630 C.3       6 GLP5        0.0000 
     34 CA         -6.8700    3.1070   17.9905 C.3       3 GLC5        0.0000 
     35 CA         -8.5000    2.2160   17.0690 C.3       9 GLL5        0.0000 
     36 CA         -9.5690    0.7805   12.1485 C.3       3 GLC5        0.0000 
     37 CA         -8.5910    2.6200   12.3290 C.3       9 GLL5        0.0000 
     38 CA        -10.5470   -1.0590   11.9680 C.3       6 GLP5        0.0000 
     39 CA         -7.5960   -1.2132   14.7625 C.3       3 GLC5        0.0000 
     40 CA         -7.1070    0.2360   16.2090 C.3       9 GLL5        0.0000 
     41 CA         -8.4190   -2.0450   13.0190 C.3       6 GLP5        0.0000 
     42 CA         -8.0102   -2.6834   18.1553 C.3       3 GLC5        0.0000 
     43 CA         -7.4870   -0.6930   18.9350 C.3       9 GLL5        0.0000 
     44 CA         -8.9890   -4.4080   18.1230 C.3       6 GLP5        0.0000 
     45 CA         -5.4062   -1.8369   19.0433 C.3       3 GLC5        0.0000 
     46 CA         -6.7130   -1.4500   18.0770 C.3       9 GLL5        0.0000 
     47 CA         -3.7810   -2.7150   19.8990 C.3       6 GLP5        0.0000 
     48 CA         -7.5975   -0.5344   20.4190 C.3       3 GLC5        0.0000 
     49 CA         -7.5980   -0.7700   22.3290 C.3       6 GLP5        0.0000 
     50 CA         -6.4784    1.6191   18.9044 C.3       3 GLC5        0.0000 
     51 CA         -5.1170    2.7920   19.8180 C.3       6 GLP5        0.0000 
     52 CA         -8.1028    4.5395   16.5583 C.3       3 GLC5        0.0000 
     53 CA         -7.6690    6.5080   16.6360 C.3       6 GLP5        0.0000 
     54 CA        -10.3681    1.6984   14.6528 C.3       3 GLC5        0.0000 
     55 CA         -8.5730    2.9260   15.8920 C.3       9 GLL5        0.0000 
     56 CA        -12.1240    0.5530   14.8430 C.3       6 GLP5        0.0000 
     57 CA         -7.8065   -0.2025   12.9766 C.3       3 GLC5        0.0000 
     58 CA         -7.0230    1.6890   14.4230 C.3       9 GLL5        0.0000 
     59 CA         -8.1252    1.4070   10.3513 C.3       3 GLC5        0.0000 
     60 CA         -7.5100    1.7880   12.0920 C.3       9 GLL5        0.0000 
     61 CA         -8.2000    0.6100    8.4920 C.3       6 GLP5        0.0000 
@<TRIPOS>BOND
@<TRIPOS>SUBSTRUCTURE
     1 ALC1       18 GROUP        1 X    ALC  0     ROOT ALC X 1
     2 SEC2        7 GROUP        1 X    SEC  0     **** SEC X 2
     3 GLC5        1 GROUP        1 X    GLC  0     **** GLC X 6
     4 ALP1       20 GROUP        1 Y    ALP  0     ROOT ALP Y 8
     5 SEP2        9 GROUP        1 Y    SEP  0     **** SEP Y 9
     6 GLP5        3 GROUP        1 Y    GLP  0     **** GLP Y 13
     7 ALL1       19 GROUP        1 Z    ALL  0     ROOT ALL Z 15
     8 SEL2        8 GROUP        1 Z    SEL  0     **** SEL Z 16
     9 GLL5        2 GROUP        1 Z    GLL  0     **** GLL Z 20
@<TRIPOS>SET

