#    Name: 3d80_Q22_1_ligand
#    Modification time : Mon Mar 24 22:51:28 2014

@<TRIPOS>MOLECULE
3d80_Q22_1_ligand
   48    52     1     0     0
SMALL
NO_CHARGES


@<TRIPOS>ATOM
      1 C7*        -4.1870    3.4130   15.2770 C.ar      1 Q22188      0.0000 
      2 N8*        -3.3200    4.3660   15.0670 N.ar      1 Q22188      0.0000 
      3 C8         -2.1160    4.1220   14.5370 C.ar      1 Q22188      0.0000 
      4 N1*        -1.2330    5.0990   14.3040 N.ar      1 Q22188      0.0000 
      5 C2*        -0.0360    4.8350   13.7710 C.ar      1 Q22188      0.0000 
      6 N2*         0.8360    5.7830   13.5740 N.pl3     1 Q22188      0.0000 
      7 N3*         0.2650    3.6070   13.3660 N.ar      1 Q22188      0.0000 
      8 C4*        -0.5820    2.6010   13.5630 C.ar      1 Q22188      0.0000 
      9 N4*        -0.2690    1.3830   13.1860 N.pl3     1 Q22188      0.0000 
     10 C4         -1.8220    2.8390   14.1400 C.ar      1 Q22188      0.0000 
     11 N5*        -2.7100    1.8590   14.3420 N.ar      1 Q22188      0.0000 
     12 C6*        -3.9040    2.1130   14.8850 C.ar      1 Q22188      0.0000 
     13 C9*        -4.8590    0.8930   15.1290 C.3       1 Q22188      0.0000 
     14 N*0        -6.3070    1.1100   15.3050 N.3       1 Q22188      0.0000 
     15 C*0        -7.1070    0.2360   16.2090 C.3       1 Q22188      0.0000 
     16 C*1        -6.4390   -0.9990   16.8030 C.2       1 Q22188      0.0000 
     17 C*2        -6.7130   -1.4500   18.0770 C.2       1 Q22188      0.0000 
     18 C*3        -7.4870   -0.6930   18.9350 C.3       1 Q22188      0.0000 
     19 C*4        -8.0940    0.4740   18.5120 C.2       1 Q22188      0.0000 
     20 C*5        -7.8890    1.0020   17.2580 C.2       1 Q22188      0.0000 
     21 C*6        -8.5000    2.2160   17.0690 C.2       1 Q22188      0.0000 
     22 C6         -8.5730    2.9260   15.8920 C.2       1 Q22188      0.0000 
     23 C*7        -8.1000    2.4950   14.6760 C.ar      1 Q22188      0.0000 
     24 C*8        -8.8880    2.9770   13.6410 C.ar      1 Q22188      0.0000 
     25 C7         -7.0230    1.6890   14.4230 C.ar      1 Q22188      0.0000 
     26 C9         -6.7330    1.2950   13.1300 C.ar      1 Q22188      0.0000 
     27 C11        -7.5100    1.7880   12.0920 C.ar      1 Q22188      0.0000 
     28 C*9        -8.5910    2.6200   12.3290 C.ar      1 Q22188      0.0000 
     29 O1         -9.3370    3.1130   11.3110 O.3       1 Q22188      0.0000 
     30 H          -5.1072    3.5925   15.7390 H         1 Q22188      0.0000 
     31 H           0.5573    6.7021   13.8527 H         1 Q22188      0.0000 
     32 H           1.7036    5.5042   13.1623 H         1 Q22188      0.0000 
     33 H           0.5631    0.9988   13.5860 H         1 Q22188      0.0000 
     34 H          -0.8913    0.9508   12.5333 H         1 Q22188      0.0000 
     35 H          -4.4415    0.3360   16.0226 H         1 Q22188      0.0000 
     36 H          -4.6786    0.1720   14.2742 H         1 Q22188      0.0000 
     37 H          -7.9568   -0.2099   15.5280 H         1 Q22188      0.0000 
     38 H          -5.7682   -1.4715   16.1828 H         1 Q22188      0.0000 
     39 H          -6.3372   -2.3605   18.3931 H         1 Q22188      0.0000 
     40 H          -6.8632   -0.4618   19.8935 H         1 Q22188      0.0000 
     41 H          -8.2983   -1.3829   19.4116 H         1 Q22188      0.0000 
     42 H          -8.7358    0.9752   19.1746 H         1 Q22188      0.0000 
     43 H          -8.9732    2.6621   17.9323 H         1 Q22188      0.0000 
     44 H          -9.0351    3.8904   15.9278 H         1 Q22188      0.0000 
     45 H          -9.6841    3.5921   13.8391 H         1 Q22188      0.0000 
     46 H          -5.9614    0.6529   12.9403 H         1 Q22188      0.0000 
     47 H          -7.2741    1.5258   11.1131 H         1 Q22188      0.0000 
     48 H          -8.6734    3.4134   10.6259 H         1 Q22188      0.0000 
@<TRIPOS>BOND
     1    2    1 ar   
     2   12    1 ar   
     3   30    1 1    
     4    3    2 ar   
     5    4    3 ar   
     6   10    3 ar   
     7    5    4 ar   
     8    6    5 1    
     9    7    5 ar   
    10   31    6 1    
    11   32    6 1    
    12    8    7 ar   
    13    9    8 1    
    14   10    8 ar   
    15   33    9 1    
    16   34    9 1    
    17   11   10 ar   
    18   12   11 ar   
    19   13   12 1    
    20   14   13 1    
    21   35   13 1    
    22   36   13 1    
    23   15   14 1    
    24   25   14 1    
    25   16   15 1    
    26   20   15 1    
    27   37   15 1    
    28   17   16 2    
    29   38   16 1    
    30   18   17 1    
    31   39   17 1    
    32   19   18 1    
    33   40   18 1    
    34   41   18 1    
    35   20   19 2    
    36   42   19 1    
    37   21   20 1    
    38   22   21 2    
    39   43   21 1    
    40   23   22 1    
    41   44   22 1    
    42   24   23 ar   
    43   25   23 ar   
    44   28   24 ar   
    45   45   24 1    
    46   26   25 ar   
    47   27   26 ar   
    48   46   26 1    
    49   28   27 ar   
    50   47   27 1    
    51   29   28 1    
    52   48   29 1    
@<TRIPOS>SUBSTRUCTURE
     1 Q22188      1 GROUP   
@<TRIPOS>SET

