#    Name: 3MDZ_1_CAVITY_N1_6.mol2
#    Modification time : Tue Mar 11 13:25:55 2014

@<TRIPOS>MOLECULE
3MDZ_1_CAVITY_N1_6.mol2
   85     0     6     0     0
SMALL
NO_CHARGES


@<TRIPOS>ATOM
      1 CA         14.9890    4.0927   84.4606 C.3       5 GLY6        0.0000 
      2 CA         14.1045    3.6112   83.3489 C.3       5 GLY6        0.0000 
      3 CA         15.2945    3.5240   82.4399 C.3       5 GLY6        0.0000 
      4 CA         14.4100    3.0425   81.3282 C.3       5 GLY6        0.0000 
      5 CZ         15.3409    6.5608   87.1595 C.ar      4 PHE5        0.0000 
      6 DU         13.2664    6.1666   86.9569 H         6 CUB7        0.0000 
      7 N          14.4564    6.0794   86.0478 N.2       2 ALA2        0.0000 
      8 DU         13.5719    5.5979   84.9362 H         6 CUB7        0.0000 
      9 N          14.7619    5.5106   84.0271 N.2       2 ALA2        0.0000 
     10 N          15.9519    5.4234   83.1181 N.2       2 ALA2        0.0000 
     11 DU         13.8774    5.0292   82.9155 H         6 CUB7        0.0000 
     12 CA         15.0674    4.9419   82.0065 C.3       5 GLY6        0.0000 
     13 CZ         11.8029    4.6350   82.7128 C.ar      4 PHE5        0.0000 
     14 CZ         12.9929    4.5477   81.8038 C.ar      4 PHE5        0.0000 
     15 CA         14.1829    4.4605   80.8948 C.3       5 GLY6        0.0000 
     16 CZ         12.1084    4.0663   80.6921 C.ar      4 PHE5        0.0000 
     17 CA         13.9238    8.0660   87.6351 C.3       5 GLY6        0.0000 
     18 CZ         15.1138    7.9788   86.7261 C.ar      4 PHE5        0.0000 
     19 O          11.8493    7.6719   87.4324 O.2       2 ALA2        0.0000 
     20 DU         13.0393    7.5846   86.5234 H         6 CUB7        0.0000 
     21 OG         14.2293    7.4973   85.6144 O.2       1 SER1        0.0000 
     22 DU         12.1548    7.1031   85.4117 H         6 CUB7        0.0000 
     23 DU         13.3448    7.0159   84.5027 H         6 CUB7        0.0000 
     24 OG         14.5348    6.9286   83.5937 O.2       1 SER1        0.0000 
     25 OG         15.7248    6.8413   82.6847 O.2       1 SER1        0.0000 
     26 DU         11.2703    6.6217   84.3000 H         6 CUB7        0.0000 
     27 DU         12.4603    6.5344   83.3910 H         6 CUB7        0.0000 
     28 DU         13.6503    6.4471   82.4820 H         6 CUB7        0.0000 
     29 CA         14.8403    6.3599   81.5730 C.3       5 GLY6        0.0000 
     30 O           9.1958    6.2275   84.0974 O.2       2 ALA2        0.0000 
     31 O          10.3858    6.1402   83.1884 O.2       2 ALA2        0.0000 
     32 O          11.5758    6.0529   82.2794 O.2       2 ALA2        0.0000 
     33 CZ         12.7658    5.9657   81.3703 C.ar      4 PHE5        0.0000 
     34 CA         13.9558    5.8784   80.4613 C.3       5 GLY6        0.0000 
     35 CZ         13.0713    5.3970   79.3496 C.ar      4 PHE5        0.0000 
     36 CA         13.6967    9.4840   87.2017 C.3       5 GLY6        0.0000 
     37 OG         14.8867    9.3967   86.2927 O.2       1 SER1        0.0000 
     38 DU         12.8123    9.0025   86.0900 H         6 CUB7        0.0000 
     39 OG         14.0022    8.9153   85.1810 O.2       1 SER1        0.0000 
     40 N          10.7378    8.6084   85.8873 N.2       2 ALA2        0.0000 
     41 N          11.9278    8.5211   84.9783 N.2       2 ALA2        0.0000 
     42 OG         13.1178    8.4338   84.0693 O.2       1 SER1        0.0000 
     43 OG         14.3077    8.3465   83.1603 O.2       1 SER1        0.0000 
     44 OG         15.4977    8.2593   82.2513 O.2       1 SER1        0.0000 
     45 O          11.0433    8.0396   83.8666 O.2       2 ALA2        0.0000 
     46 O          12.2333    7.9524   82.9576 O.2       2 ALA2        0.0000 
     47 O          13.4233    7.8651   82.0486 O.2       2 ALA2        0.0000 
     48 CA         14.6132    7.7778   81.1396 C.3       5 GLY6        0.0000 
     49 O          12.5388    7.3836   80.9369 O.2       2 ALA2        0.0000 
     50 CA         13.7288    7.2964   80.0279 C.3       5 GLY6        0.0000 
     51 CZ         11.6543    6.9022   79.8252 C.ar      4 PHE5        0.0000 
     52 CA         12.8443    6.8149   78.9162 C.3       5 GLY6        0.0000 
     53 CA         14.6597   10.8147   85.8593 C.3       5 GLY6        0.0000 
     54 O          12.5852   10.4205   85.6566 O.2       2 ALA2        0.0000 
     55 OG         13.7752   10.3332   84.7476 O.2       1 SER1        0.0000 
     56 N          11.7007    9.9390   84.5449 N.2       2 ALA2        0.0000 
     57 O          12.8907    9.8518   83.6359 O.2       2 ALA2        0.0000 
     58 OG         14.0807    9.7645   82.7269 O.2       1 SER1        0.0000 
     59 OG         15.2707    9.6772   81.8179 O.2       1 SER1        0.0000 
     60 O          16.4607    9.5899   80.9089 O.2       2 ALA2        0.0000 
     61 O          12.0062    9.3703   82.5242 O.2       2 ALA2        0.0000 
     62 O          13.1962    9.2830   81.6152 O.2       2 ALA2        0.0000 
     63 DU         14.3862    9.1958   80.7062 H         6 CUB7        0.0000 
     64 CA         15.5762    9.1085   79.7972 C.3       5 GLY6        0.0000 
     65 O          12.3117    8.8016   80.5035 O.2       2 ALA2        0.0000 
     66 CA         13.5017    8.7143   79.5945 C.3       5 GLY6        0.0000 
     67 CA         14.6917    8.6270   78.6855 C.3       5 GLY6        0.0000 
     68 CA         13.8072    8.1456   77.5738 C.3       5 GLY6        0.0000 
     69 CA         13.2426   12.3199   86.3349 C.3       5 GLY6        0.0000 
     70 CA         14.4326   12.2326   85.4259 C.3       5 GLY6        0.0000 
     71 CA         12.3581   11.8384   85.2232 C.3       5 GLY6        0.0000 
     72 CA         13.5481   11.7512   84.3142 C.3       5 GLY6        0.0000 
     73 N          14.7381   11.6639   83.4052 N.2       2 ALA2        0.0000 
     74 N          11.4736   11.3570   84.1115 N.2       2 ALA2        0.0000 
     75 N          12.6636   11.2697   83.2025 N.2       2 ALA2        0.0000 
     76 N          13.8536   11.1824   82.2935 N.2       2 ALA2        0.0000 
     77 OD1        15.0436   11.0952   81.3845 O.3       3 ASP3        0.0000 
     78 OG         16.2336   11.0079   80.4755 O.2       1 SER1        0.0000 
     79 N          14.1591   10.6137   80.2728 N.2       2 ALA2        0.0000 
     80 OD1        15.3491   10.5264   79.3638 O.3       3 ASP3        0.0000 
     81 CA         16.5391   10.4392   78.4548 C.3       5 GLY6        0.0000 
     82 CA         13.2746   10.1323   79.1611 C.3       5 GLY6        0.0000 
     83 CA         14.4646   10.0450   78.2521 C.3       5 GLY6        0.0000 
     84 CA         15.6546    9.9577   77.3431 C.3       5 GLY6        0.0000 
     85 OD1        15.1220   11.9444   78.9304 O.3       3 ASP3        0.0000 
@<TRIPOS>BOND
@<TRIPOS>SUBSTRUCTURE
     1 SER1       21 GROUP   
     2 ALA2        7 GROUP   
     3 ASP3       77 GROUP   
     4 PHE5        5 GROUP   
     5 GLY6        1 GROUP   
     6 CUB7        6 GROUP   
@<TRIPOS>SET

