#    Name: 3mdz_EZL_1_INTS_M
#    Modification time : Mon Mar 24 23:04:15 2014

@<TRIPOS>MOLECULE
3mdz_EZL_1_INTS_M
   35     0    12     0     0
SMALL
NO_CHARGES


@<TRIPOS>ATOM
      1 O          17.1370   12.8410   81.2255 O.2       1 ALC1        0.0000 
      2 O          15.8730   12.5730   80.9780 O.2       9 ALL1        0.0000 
      3 O          18.4010   13.1090   81.4730 O.2       5 ALP1        0.0000 
      4 Zn         15.3130   13.3400   80.9425 Zn        3 ZIC7        0.0000 
      5 Zn         15.8730   12.5730   80.9780 Zn       11 ZIL7        0.0000 
      6 Zn         14.7530   14.1070   80.9070 Zn        7 ZIP7        0.0000 
      7 N          18.0835   10.8695   79.6370 N.am      2 SEC2        0.0000 
      8 N          16.7720   11.2790   79.0280 N.am     10 SEL2        0.0000 
      9 N          19.3950   10.4600   80.2460 N.am      6 SEP2        0.0000 
     10 N          16.3690    9.1360   82.9065 N.am      2 SEC2        0.0000 
     11 N          15.8370    9.1190   81.4750 N.am     10 SEL2        0.0000 
     12 N          16.9010    9.1530   84.3380 N.am      6 SEP2        0.0000 
     13 CA         12.4045    9.8300   78.9260 C.3       4 GLC5        0.0000 
     14 CA         13.7630    8.9930   79.9280 C.3      12 GLL5        0.0000 
     15 CA         11.0460   10.6670   77.9240 C.3       8 GLP5        0.0000 
     16 CA         15.1395    7.8355   79.1580 C.3       4 GLC5        0.0000 
     17 CA         16.5160    6.6780   78.3880 C.3       8 GLP5        0.0000 
     18 CA         16.8095    8.3385   83.8315 C.3       4 GLC5        0.0000 
     19 CA         15.6290    6.8790   82.6620 C.3      12 GLL5        0.0000 
     20 CA         17.9900    9.7980   85.0010 C.3       8 GLP5        0.0000 
     21 CA         11.2055    2.9895   80.8025 C.3       4 GLC5        0.0000 
     22 CA         12.6010    2.0430   81.9650 C.3      12 GLL5        0.0000 
     23 CA          9.8100    3.9360   79.6400 C.3       8 GLP5        0.0000 
     24 CA         11.8515    0.5545   80.7340 C.3       4 GLC5        0.0000 
     25 CA         11.1020   -0.9340   79.5030 C.3       8 GLP5        0.0000 
     26 CA         15.2779    6.8966   79.8033 C.3       4 GLC5        0.0000 
     27 CA         14.0870    7.6460   80.9600 C.3      12 GLL5        0.0000 
     28 CA         13.3990    2.3822   80.2485 C.3       4 GLC5        0.0000 
     29 CA         13.6890    3.1060   82.2510 C.3      12 GLL5        0.0000 
     30 CA         13.6530    2.1900   78.3890 C.3       8 GLP5        0.0000 
     31 CA         16.6438    4.8372   83.1365 C.3       4 GLC5        0.0000 
     32 CA         14.9260    5.6800   82.7960 C.3      12 GLL5        0.0000 
     33 CA         18.0100    3.3950   83.5440 C.3       8 GLP5        0.0000 
     34 CA         16.2606    5.6805   81.2740 C.3       4 GLC5        0.0000 
     35 CA         17.5250    5.1340   80.0240 C.3       8 GLP5        0.0000 
@<TRIPOS>BOND
@<TRIPOS>SUBSTRUCTURE
     1 ALC1        1 GROUP        1 X    ALC  0     ROOT ALC X 1
     2 SEC2        7 GROUP        1 X    SEC  0     **** SEC X 2
     3 ZIC7        4 GROUP        1 X    ZIC  0     **** ZIC X 5
     4 GLC5       13 GROUP        1 X    GLC  0     **** GLC X 6
     5 ALP1        3 GROUP        1 Y    ALP  0     ROOT ALP Y 8
     6 SEP2        9 GROUP        1 Y    SEP  0     **** SEP Y 9
     7 ZIP7        6 GROUP        1 Y    ZIP  0     **** ZIP Y 12
     8 GLP5       15 GROUP        1 Y    GLP  0     **** GLP Y 13
     9 ALL1        2 GROUP        1 Z    ALL  0     ROOT ALL Z 15
    10 SEL2        8 GROUP        1 Z    SEL  0     **** SEL Z 16
    11 ZIL7        5 GROUP        1 Z    ZIL  0     **** ZIL Z 19
    12 GLL5       14 GROUP        1 Z    GLL  0     **** GLL Z 20
@<TRIPOS>SET

