#    Name: 3mdz_EZL_1_ligand
#    Modification time : Mon Mar 24 23:04:15 2014

@<TRIPOS>MOLECULE
3mdz_EZL_1_ligand
   25    26     1     0     0
SMALL
NO_CHARGES


@<TRIPOS>ATOM
      1 N1         15.8730   12.5730   80.9780 N.pl3     1 EZL264      0.0000 
      2 C2         15.2480    7.8930   81.7440 C.ar      1 EZL264      0.0000 
      3 C3         14.0870    7.6460   80.9600 C.ar      1 EZL264      0.0000 
      4 C4         13.4120    6.4610   81.0850 C.ar      1 EZL264      0.0000 
      5 C5         13.8010    5.4700   81.9760 C.ar      1 EZL264      0.0000 
      6 C8         13.6890    3.1060   82.2510 C.3       1 EZL264      0.0000 
      7 O1         16.7720   11.2790   79.0280 O.2       1 EZL264      0.0000 
      8 O2         14.4110   11.6960   79.0050 O.2       1 EZL264      0.0000 
      9 S1         15.5860   11.4040   79.8610 S.o2      1 EZL264      0.0000 
     10 C1         15.1850    9.8450   80.5200 C.2       1 EZL264      0.0000 
     11 N2         15.8370    9.1190   81.4750 N.2       1 EZL264      0.0000 
     12 S2         13.7630    8.9930   79.9280 S.3       1 EZL264      0.0000 
     13 C6         14.9260    5.6800   82.7960 C.ar      1 EZL264      0.0000 
     14 C7         15.6290    6.8790   82.6620 C.ar      1 EZL264      0.0000 
     15 O3         12.9920    4.3580   82.0000 O.3       1 EZL264      0.0000 
     16 C9         12.6010    2.0430   81.9650 C.3       1 EZL264      0.0000 
     17 H          16.8302   12.7148   81.2305 H         1 EZL264      0.0000 
     18 H          12.5663    6.2876   80.4872 H         1 EZL264      0.0000 
     19 H          13.9868    3.0118   83.2676 H         1 EZL264      0.0000 
     20 H          14.4912    2.9523   81.5700 H         1 EZL264      0.0000 
     21 H          15.2138    4.9759   83.4645 H         1 EZL264      0.0000 
     22 H          16.4688    7.0457   83.2554 H         1 EZL264      0.0000 
     23 H          12.9458    1.1137   82.0975 H         1 EZL264      0.0000 
     24 H          11.8095    2.1505   82.5666 H         1 EZL264      0.0000 
     25 H          12.2646    2.0995   81.0250 H         1 EZL264      0.0000 
@<TRIPOS>BOND
     1    9    1 1    
     2   17    1 1    
     3    3    2 ar   
     4   11    2 1    
     5   14    2 ar   
     6    4    3 ar   
     7   12    3 1    
     8    5    4 ar   
     9   18    4 1    
    10   13    5 ar   
    11   15    5 1    
    12   15    6 1    
    13   16    6 1    
    14   19    6 1    
    15   20    6 1    
    16    9    7 2    
    17    9    8 2    
    18   10    9 1    
    19   11   10 2    
    20   12   10 1    
    21   14   13 ar   
    22   21   13 1    
    23   22   14 1    
    24   23   16 1    
    25   24   16 1    
    26   25   16 1    
@<TRIPOS>SUBSTRUCTURE
     1 EZL264      1 GROUP   
@<TRIPOS>SET

