#    Name: 3fzm_3GO_1_INTS_M
#    Modification time : Tue Mar 25 06:48:13 2014

@<TRIPOS>MOLECULE
3fzm_3GO_1_INTS_M
   53     0     9     0     0
SMALL
NO_CHARGES


@<TRIPOS>ATOM
      1 N          19.6225   -1.7635   -0.4830 N.am      2 SEC2        0.0000 
      2 N          19.4270   -3.3130   -0.1280 N.am      8 SEL2        0.0000 
      3 N          19.8180   -0.2140   -0.8380 N.am      5 SEP2        0.0000 
      4 CA         19.2900   -5.7870   -3.7360 C.3       3 GLC5        0.0000 
      5 CA         19.0840   -4.8210   -2.0650 C.3       9 GLL5        0.0000 
      6 CA         19.4960   -6.7530   -5.4070 C.3       6 GLP5        0.0000 
      7 N          18.1625   -6.1180   -3.7830 N.am      2 SEC2        0.0000 
      8 N          18.1320   -5.5930   -2.6900 N.am      8 SEL2        0.0000 
      9 N          18.1930   -6.6430   -4.8760 N.am      5 SEP2        0.0000 
     10 CA         16.1835   -6.5795   -0.5610 C.3       3 GLC5        0.0000 
     11 CA         16.8480   -5.6560   -2.1650 C.3       9 GLL5        0.0000 
     12 CA         15.5190   -7.5030    1.0430 C.3       6 GLP5        0.0000 
     13 CA         18.4435   -7.0400   -1.6250 C.3       3 GLC5        0.0000 
     14 CA         20.0390   -8.4240   -1.0850 C.3       6 GLP5        0.0000 
     15 CA         18.1720   -6.2045   -3.7860 C.3       3 GLC5        0.0000 
     16 CA         17.5875   -4.0210   -3.4995 C.3       3 GLC5        0.0000 
     17 CA         18.3270   -2.3860   -4.8340 C.3       6 GLP5        0.0000 
     18 CA         15.5560   -5.8235   -3.3680 C.3       3 GLC5        0.0000 
     19 CA         14.2640   -5.9910   -4.5710 C.3       6 GLP5        0.0000 
     20 CA         16.4890   -5.8585    0.3060 C.3       3 GLC5        0.0000 
     21 CA         17.4590   -4.2140   -0.4310 C.3       9 GLL5        0.0000 
     22 CA         16.3210   -1.5435    0.4850 C.3       3 GLC5        0.0000 
     23 CA         16.1980   -3.2950    1.5040 C.3       9 GLL5        0.0000 
     24 CA         16.4440    0.2080   -0.5340 C.3       6 GLP5        0.0000 
     25 N          15.4560   -5.9850    2.4880 N.am      2 SEC2        0.0000 
     26 N          16.3280   -5.1810    3.0120 N.am      8 SEL2        0.0000 
     27 N          14.5840   -6.7890    1.9640 N.am      5 SEP2        0.0000 
     28 O          17.1105   -6.0625    3.7075 O.2       1 ALC1        0.0000 
     29 O          16.3280   -5.1810    3.0120 O.2       7 ALL1        0.0000 
     30 O          17.8930   -6.9440    4.4030 O.2       4 ALP1        0.0000 
     31 N          14.4125   -5.3220    2.8555 N.am      2 SEC2        0.0000 
     32 N          14.2410   -3.8550    3.7470 N.am      8 SEL2        0.0000 
     33 CA         17.3000    0.4855    6.5200 C.3       3 GLC5        0.0000 
     34 CA         17.6000    0.2950    4.4940 C.3       9 GLL5        0.0000 
     35 CA         17.0000    0.6760    8.5460 C.3       6 GLP5        0.0000 
     36 CA         20.9147   -5.0475    3.4170 C.3       3 GLC5        0.0000 
     37 CA         20.6320   -3.1070    3.8350 C.3       9 GLL5        0.0000 
     38 CA         20.8710   -6.0260    1.8700 C.3       6 GLP5        0.0000 
     39 CA         21.9925   -4.7073    2.9692 C.3       3 GLC5        0.0000 
     40 CA         22.8290   -3.7920    4.5580 C.3       9 GLL5        0.0000 
     41 CA         21.3810   -4.1485    2.3285 C.3       3 GLC5        0.0000 
     42 CA         21.2010   -2.3040    2.8500 C.3       9 GLL5        0.0000 
     43 CA         19.4915   -3.0482   -2.4045 C.3       3 GLC5        0.0000 
     44 CA         18.7400   -4.1200   -0.9270 C.3       9 GLL5        0.0000 
     45 CA         20.0710   -1.6260   -3.3130 C.3       6 GLP5        0.0000 
     46 CA         19.0823   -5.5511   -0.0547 C.3       3 GLC5        0.0000 
     47 CA         19.9790   -6.7600    0.8540 C.3       6 GLP5        0.0000 
     48 CA         15.9305   -5.5128    1.6250 C.3       3 GLC5        0.0000 
     49 CA         15.9213   -0.4820    1.3767 C.3       3 GLC5        0.0000 
     50 CA         15.1350   -1.7640    2.9050 C.3       9 GLL5        0.0000 
     51 CA         13.7030   -1.5201    3.8310 C.3       3 GLC5        0.0000 
     52 CA         15.6620   -0.5800    3.6700 C.3       9 GLL5        0.0000 
     53 CA         11.9370   -1.5460    4.1730 C.3       6 GLP5        0.0000 
@<TRIPOS>BOND
@<TRIPOS>SUBSTRUCTURE
     1 ALC1       28 GROUP        1 X    ALC  0     ROOT ALC X 1
     2 SEC2        1 GROUP        1 X    SEC  0     **** SEC X 2
     3 GLC5        4 GROUP        1 X    GLC  0     **** GLC X 6
     4 ALP1       30 GROUP        1 Y    ALP  0     ROOT ALP Y 8
     5 SEP2        3 GROUP        1 Y    SEP  0     **** SEP Y 9
     6 GLP5        6 GROUP        1 Y    GLP  0     **** GLP Y 13
     7 ALL1       29 GROUP        1 Z    ALL  0     ROOT ALL Z 15
     8 SEL2        2 GROUP        1 Z    SEL  0     **** SEL Z 16
     9 GLL5        5 GROUP        1 Z    GLL  0     **** GLL Z 20
@<TRIPOS>SET

