#    Name: 3fzm_3GO_1_ligand
#    Modification time : Tue Mar 25 06:48:13 2014

@<TRIPOS>MOLECULE
3fzm_3GO_1_ligand
   66    71     1     0     0
SMALL
NO_CHARGES


@<TRIPOS>ATOM
      1 C28        20.6320   -3.1070    3.8350 C.ar      1 3GO401      0.0000 
      2 C35        21.4440   -3.8510    4.6870 C.ar      1 3GO401      0.0000 
      3 C40        20.8790   -4.6590    5.6670 C.ar      1 3GO401      0.0000 
      4 C39        21.7080   -5.3940    6.4990 C.ar      1 3GO401      0.0000 
      5 C38        23.0940   -5.3020    6.3420 C.ar      1 3GO401      0.0000 
      6 N37        23.6240   -4.5150    5.3880 N.ar      1 3GO401      0.0000 
      7 C36        22.8290   -3.7920    4.5580 C.ar      1 3GO401      0.0000 
      8 C27        23.3990   -2.9850    3.5790 C.ar      1 3GO401      0.0000 
      9 C26        22.5810   -2.2380    2.7240 C.ar      1 3GO401      0.0000 
     10 C25        21.2010   -2.3040    2.8500 C.ar      1 3GO401      0.0000 
     11 C24        20.3040   -1.4800    1.9120 C.3       1 3GO401      0.0000 
     12 N23        18.9400   -2.0780    1.8550 N.pl3     1 3GO401      0.0000 
     13 C6         18.6090   -2.9060    0.8550 C.2       1 3GO401      0.0000 
     14 N7         19.4270   -3.3130   -0.1280 N.2       1 3GO401      0.0000 
     15 C8         18.7400   -4.1200   -0.9270 C.ar      1 3GO401      0.0000 
     16 C4         19.0840   -4.8210   -2.0650 C.ar      1 3GO401      0.0000 
     17 N10        20.3260   -4.7450   -2.5600 N.pl3     1 3GO401      0.0000 
     18 N1         18.1320   -5.5930   -2.6900 N.ar      1 3GO401      0.0000 
     19 C2         16.8480   -5.6560   -2.1650 C.ar      1 3GO401      0.0000 
     20 N3         16.5350   -4.9750   -1.0610 N.ar      1 3GO401      0.0000 
     21 C9         17.4590   -4.2140   -0.4310 C.ar      1 3GO401      0.0000 
     22 N5         17.3970   -3.4770    0.6610 N.pl3     1 3GO401      0.0000 
     23 C11        16.1980   -3.2950    1.5040 C.3       1 3GO401      0.0000 
     24 O12        15.9350   -1.8970    1.6440 O.3       1 3GO401      0.0000 
     25 C31        16.4860   -3.7500    2.9100 C.3       1 3GO401      0.0000 
     26 O34        16.3280   -5.1810    3.0120 O.3       1 3GO401      0.0000 
     27 C32        15.4170   -3.0530    3.7110 C.3       1 3GO401      0.0000 
     28 O33        14.2410   -3.8550    3.7470 O.3       1 3GO401      0.0000 
     29 C13        15.1350   -1.7640    2.9050 C.3       1 3GO401      0.0000 
     30 C14        15.6620   -0.5800    3.6700 C.3       1 3GO401      0.0000 
     31 O15        17.0940   -0.6270    3.6440 O.3       1 3GO401      0.0000 
     32 C16        17.6000    0.2950    4.4940 C.3       1 3GO401      0.0000 
     33 C17        18.9010    0.0150    5.2340 C.ar      1 3GO401      0.0000 
     34 C18        20.0110    0.8220    5.0170 C.ar      1 3GO401      0.0000 
     35 C19        21.1950    0.5650    5.6890 C.ar      1 3GO401      0.0000 
     36 C20        21.2670   -0.4990    6.5940 C.ar      1 3GO401      0.0000 
     37 C29        22.4870   -0.7620    7.3000 C.1       1 3GO401      0.0000 
     38 N30        23.4510   -0.9730    7.8660 N.1       1 3GO401      0.0000 
     39 C21        20.1540   -1.3010    6.8130 C.ar      1 3GO401      0.0000 
     40 C22        18.9720   -1.0450    6.1290 C.ar      1 3GO401      0.0000 
     41 H          19.6087   -3.1507    3.9335 H         1 3GO401      0.0000 
     42 H          19.8616   -4.7090    5.7711 H         1 3GO401      0.0000 
     43 H          21.3146   -6.0005    7.2238 H         1 3GO401      0.0000 
     44 H          23.7002   -5.8551    6.9789 H         1 3GO401      0.0000 
     45 H          24.4199   -2.9348    3.4806 H         1 3GO401      0.0000 
     46 H          23.0079   -1.6418    2.0041 H         1 3GO401      0.0000 
     47 H          20.7558   -1.4707    0.9217 H         1 3GO401      0.0000 
     48 H          20.2555   -0.4597    2.2882 H         1 3GO401      0.0000 
     49 H          18.3035   -1.8144    2.6120 H         1 3GO401      0.0000 
     50 H          20.9630   -4.1567   -2.0618 H         1 3GO401      0.0000 
     51 H          20.5052   -5.2833   -3.3835 H         1 3GO401      0.0000 
     52 H          16.1422   -6.2452   -2.6537 H         1 3GO401      0.0000 
     53 H          15.3704   -3.8140    1.1286 H         1 3GO401      0.0000 
     54 H          17.4269   -3.4036    3.2055 H         1 3GO401      0.0000 
     55 H          15.7907   -2.7847    4.6477 H         1 3GO401      0.0000 
     56 H          14.1247   -1.6840    2.7045 H         1 3GO401      0.0000 
     57 H          15.2793   -0.6286    4.6917 H         1 3GO401      0.0000 
     58 H          15.2838    0.3316    3.2024 H         1 3GO401      0.0000 
     59 H          16.8426    0.5854    5.3108 H         1 3GO401      0.0000 
     60 H          17.7570    1.3121    3.9783 H         1 3GO401      0.0000 
     61 H          19.9520    1.6095    4.3573 H         1 3GO401      0.0000 
     62 H          22.0225    1.1518    5.5269 H         1 3GO401      0.0000 
     63 H          20.2047   -2.0817    7.4792 H         1 3GO401      0.0000 
     64 H          18.1480   -1.6416    6.2858 H         1 3GO401      0.0000 
     65 H          16.6895   -5.4175    3.9139 H         1 3GO401      0.0000 
     66 H          14.5251   -4.7467    3.3945 H         1 3GO401      0.0000 
@<TRIPOS>BOND
     1    2    1 ar   
     2   10    1 ar   
     3   41    1 1    
     4    3    2 ar   
     5    7    2 ar   
     6    4    3 ar   
     7   42    3 1    
     8    5    4 ar   
     9   43    4 1    
    10    6    5 ar   
    11   44    5 1    
    12    7    6 ar   
    13    8    7 ar   
    14    9    8 ar   
    15   45    8 1    
    16   10    9 ar   
    17   46    9 1    
    18   11   10 1    
    19   12   11 1    
    20   47   11 1    
    21   48   11 1    
    22   13   12 1    
    23   49   12 1    
    24   14   13 2    
    25   22   13 1    
    26   15   14 1    
    27   16   15 ar   
    28   21   15 ar   
    29   17   16 1    
    30   18   16 ar   
    31   50   17 1    
    32   51   17 1    
    33   19   18 ar   
    34   20   19 ar   
    35   52   19 1    
    36   21   20 ar   
    37   22   21 1    
    38   23   22 1    
    39   24   23 1    
    40   25   23 1    
    41   53   23 1    
    42   29   24 1    
    43   26   25 1    
    44   27   25 1    
    45   54   25 1    
    46   65   26 1    
    47   28   27 1    
    48   29   27 1    
    49   55   27 1    
    50   66   28 1    
    51   30   29 1    
    52   56   29 1    
    53   31   30 1    
    54   57   30 1    
    55   58   30 1    
    56   32   31 1    
    57   33   32 1    
    58   59   32 1    
    59   60   32 1    
    60   34   33 ar   
    61   40   33 ar   
    62   35   34 ar   
    63   61   34 1    
    64   36   35 ar   
    65   62   35 1    
    66   37   36 1    
    67   39   36 ar   
    68   38   37 3    
    69   40   39 ar   
    70   63   39 1    
    71   64   40 1    
@<TRIPOS>SUBSTRUCTURE
     1 3GO401      1 GROUP   
@<TRIPOS>SET

