#    Name: 3h30_RFZ_3_INTS_M
#    Modification time : Tue Mar 25 13:31:15 2014

@<TRIPOS>MOLECULE
3h30_RFZ_3_INTS_M
   52     0     6     0     0
SMALL
NO_CHARGES


@<TRIPOS>ATOM
      1 CA         33.3700  -15.4325  -22.9420 C.3       2 GLC5        0.0000 
      2 CA         32.5150  -17.4060  -22.7500 C.3       6 GLL5        0.0000 
      3 CA         34.2250  -13.4590  -23.1340 C.3       4 GLP5        0.0000 
      4 CA         28.2630  -16.0910  -23.1795 C.3       2 GLC5        0.0000 
      5 CA         29.5920  -14.7750  -22.1820 C.3       6 GLL5        0.0000 
      6 CA         26.9340  -17.4070  -24.1770 C.3       4 GLP5        0.0000 
      7 CA         28.0265  -15.5515  -21.2080 C.3       2 GLC5        0.0000 
      8 CA         26.4610  -16.3280  -20.2340 C.3       4 GLP5        0.0000 
      9 CA         29.5990  -13.8860  -24.0570 C.3       2 GLC5        0.0000 
     10 CA         29.6060  -12.9970  -25.9320 C.3       4 GLP5        0.0000 
     11 CA         31.2525  -13.8545  -23.1805 C.3       2 GLC5        0.0000 
     12 CA         32.9130  -12.9340  -24.1790 C.3       4 GLP5        0.0000 
     13 CA         32.5670  -14.4080  -21.0865 C.3       2 GLC5        0.0000 
     14 CA         31.3180  -16.1840  -20.5910 C.3       6 GLL5        0.0000 
     15 CA         33.8160  -12.6320  -21.5820 C.3       4 GLP5        0.0000 
     16 CA         29.3010  -16.8455  -19.5105 C.3       2 GLC5        0.0000 
     17 CA         30.5730  -15.4390  -19.2490 C.3       6 GLL5        0.0000 
     18 CA         28.0290  -18.2520  -19.7720 C.3       4 GLP5        0.0000 
     19 CA         32.5530  -19.8920  -23.8090 C.3       2 GLC5        0.0000 
     20 CA         33.1620  -18.1380  -25.0400 C.3       6 GLL5        0.0000 
     21 CA         31.9440  -21.6460  -22.5780 C.3       4 GLP5        0.0000 
     22 CA         35.9785  -22.6125  -24.9325 C.3       2 GLC5        0.0000 
     23 CA         34.8000  -20.9750  -25.1550 C.3       6 GLL5        0.0000 
     24 CA         37.1570  -24.2500  -24.7100 C.3       4 GLP5        0.0000 
     25 O          35.9950  -22.8175  -26.5255 O.2       1 ALC1        0.0000 
     26 O          36.0150  -21.3870  -25.7850 O.2       5 ALL1        0.0000 
     27 O          35.9750  -24.2480  -27.2660 O.2       3 ALP1        0.0000 
     28 CA         33.1320  -20.1735  -27.1815 C.3       2 GLC5        0.0000 
     29 CA         34.7620  -18.8300  -26.6820 C.3       6 GLL5        0.0000 
     30 CA         31.5020  -21.5170  -27.6810 C.3       4 GLP5        0.0000 
     31 CA         31.0122  -18.5180  -22.5090 C.3       2 GLC5        0.0000 
     32 CA         30.0260  -20.0780  -22.1570 C.3       4 GLP5        0.0000 
     33 CA         34.2510  -16.6410  -21.3052 C.3       2 GLC5        0.0000 
     34 CA         35.7770  -15.7340  -20.5080 C.3       4 GLP5        0.0000 
     35 CA         32.0457  -14.5685  -23.3055 C.3       2 GLC5        0.0000 
     36 CA         31.4820  -16.5100  -22.9720 C.3       6 GLL5        0.0000 
     37 CA         30.5613  -18.0590  -21.6992 C.3       2 GLC5        0.0000 
     38 CA         30.8750  -15.8960  -21.8920 C.3       6 GLL5        0.0000 
     39 CA         29.6678  -13.8938  -20.8425 C.3       2 GLC5        0.0000 
     40 CA         29.1020  -12.4520  -19.6480 C.3       4 GLP5        0.0000 
     41 CA         30.0237  -14.1318  -19.7840 C.3       2 GLC5        0.0000 
     42 CA         33.8015  -16.1827  -20.4905 C.3       2 GLC5        0.0000 
     43 CA         31.3302  -18.7312  -21.5310 C.3       2 GLC5        0.0000 
     44 CA         32.3340  -17.0790  -20.3550 C.3       6 GLL5        0.0000 
     45 CA         29.8721  -17.4058  -20.2851 C.3       2 GLC5        0.0000 
     46 CA         31.7499  -15.9496  -18.2293 C.3       2 GLC5        0.0000 
     47 CA         31.8600  -15.4540  -16.3210 C.3       4 GLP5        0.0000 
     48 CA         32.9565  -21.0105  -26.6558 C.3       2 GLC5        0.0000 
     49 CA         34.0760  -22.4000  -26.0188 C.3       2 GLC5        0.0000 
     50 CA         34.0220  -20.0330  -26.1060 C.3       6 GLL5        0.0000 
     51 CA         33.7410  -24.2960  -26.4070 C.3       4 GLP5        0.0000 
     52 CA         33.1775  -21.0750  -24.1043 C.3       2 GLC5        0.0000 
@<TRIPOS>BOND
@<TRIPOS>SUBSTRUCTURE
     1 ALC1       25 GROUP        1 X    ALC  0     ROOT ALC X 1
     2 GLC5        1 GROUP        1 X    GLC  0     **** GLC X 6
     3 ALP1       27 GROUP        1 Y    ALP  0     ROOT ALP Y 8
     4 GLP5        3 GROUP        1 Y    GLP  0     **** GLP Y 13
     5 ALL1       26 GROUP        1 Z    ALL  0     ROOT ALL Z 15
     6 GLL5        2 GROUP        1 Z    GLL  0     **** GLL Z 20
@<TRIPOS>SET

