#    Name: 3h30_RFZ_3_ligand
#    Modification time : Tue Mar 25 13:31:15 2014

@<TRIPOS>MOLECULE
3h30_RFZ_3_ligand
   32    34     1     0     0
SMALL
NO_CHARGES


@<TRIPOS>ATOM
      1 C6         32.5150  -17.4060  -22.7500 C.ar      1 RFZ336      0.0000 
      2 C5         31.4820  -16.5100  -22.9720 C.ar      1 RFZ336      0.0000 
      3 C4         30.8750  -15.8960  -21.8920 C.ar      1 RFZ336      0.0000 
      4 CL2        29.5920  -14.7750  -22.1820 Cl        1 RFZ336      0.0000 
      5 C3         31.3180  -16.1840  -20.5910 C.ar      1 RFZ336      0.0000 
      6 CL1        30.5730  -15.4390  -19.2490 Cl        1 RFZ336      0.0000 
      7 C2         32.3340  -17.0790  -20.3550 C.ar      1 RFZ336      0.0000 
      8 C7         32.9350  -17.6900  -21.4550 C.ar      1 RFZ336      0.0000 
      9 N2         33.9120  -18.5720  -21.5600 N.2       1 RFZ336      0.0000 
     10 C1         34.1130  -18.8400  -22.8440 C.2       1 RFZ336      0.0000 
     11 N1         33.2570  -18.1320  -23.5780 N.pl3     1 RFZ336      0.0000 
     12 C1'        33.1620  -18.1380  -25.0400 C.3       1 RFZ336      0.0000 
     13 O4'        32.8390  -19.4800  -25.4770 O.3       1 RFZ336      0.0000 
     14 C4'        34.0220  -20.0330  -26.1060 C.3       1 RFZ336      0.0000 
     15 C5'        34.8000  -20.9750  -25.1550 C.3       1 RFZ336      0.0000 
     16 O5'        36.0150  -21.3870  -25.7850 O.3       1 RFZ336      0.0000 
     17 C3'        34.7620  -18.8300  -26.6820 C.3       1 RFZ336      0.0000 
     18 O3'        34.1100  -18.4170  -27.8870 O.3       1 RFZ336      0.0000 
     19 C2'        34.5480  -17.7900  -25.5970 C.3       1 RFZ336      0.0000 
     20 O2'        34.5630  -16.4650  -26.1390 O.3       1 RFZ336      0.0000 
     21 H          31.1716  -16.3051  -23.9278 H         1 RFZ336      0.0000 
     22 H          32.6444  -17.2951  -19.4120 H         1 RFZ336      0.0000 
     23 H          34.7830  -19.4590  -23.1977 H         1 RFZ336      0.0000 
     24 H          32.4677  -17.4307  -25.3850 H         1 RFZ336      0.0000 
     25 H          33.6786  -20.6388  -26.9751 H         1 RFZ336      0.0000 
     26 H          34.1466  -21.8209  -24.9289 H         1 RFZ336      0.0000 
     27 H          34.9830  -20.4240  -24.2295 H         1 RFZ336      0.0000 
     28 H          35.7646  -19.0496  -26.7704 H         1 RFZ336      0.0000 
     29 H          35.2600  -17.9482  -24.8304 H         1 RFZ336      0.0000 
     30 H          35.8186  -22.2940  -26.1575 H         1 RFZ336      0.0000 
     31 H          33.8708  -17.4579  -27.7360 H         1 RFZ336      0.0000 
     32 H          33.7747  -16.0081  -25.7270 H         1 RFZ336      0.0000 
@<TRIPOS>BOND
     1    2    1 ar   
     2    8    1 ar   
     3   11    1 1    
     4    3    2 ar   
     5   21    2 1    
     6    4    3 1    
     7    5    3 ar   
     8    6    5 1    
     9    7    5 ar   
    10    8    7 ar   
    11   22    7 1    
    12    9    8 1    
    13   10    9 2    
    14   11   10 1    
    15   23   10 1    
    16   12   11 1    
    17   13   12 1    
    18   19   12 1    
    19   24   12 1    
    20   14   13 1    
    21   15   14 1    
    22   17   14 1    
    23   25   14 1    
    24   16   15 1    
    25   26   15 1    
    26   27   15 1    
    27   30   16 1    
    28   18   17 1    
    29   19   17 1    
    30   28   17 1    
    31   31   18 1    
    32   20   19 1    
    33   29   19 1    
    34   32   20 1    
@<TRIPOS>SUBSTRUCTURE
     1 RFZ336      1 GROUP   
@<TRIPOS>SET

