#    Name: 2ijg_FAD_2_INTS_M
#    Modification time : Tue Mar 25 18:18:51 2014

@<TRIPOS>MOLECULE
2ijg_FAD_2_INTS_M
   93     0     9     0     0
SMALL
NO_CHARGES


@<TRIPOS>ATOM
      1 N         -28.4765   20.0015    3.6115 N.am      2 SEC2        0.0000 
      2 N         -28.5430   21.2040    4.3200 N.am      8 SEL2        0.0000 
      3 N         -28.4100   18.7990    2.9030 N.am      5 SEP2        0.0000 
      4 N         -27.0175   22.1725    6.9855 N.am      2 SEC2        0.0000 
      5 N         -27.4640   23.0230    5.9800 N.am      8 SEL2        0.0000 
      6 N         -26.5710   21.3220    7.9910 N.am      5 SEP2        0.0000 
      7 CA        -33.2445   23.1660    8.1255 C.3       3 GLC5        0.0000 
      8 CA        -31.6150   23.6180    7.0560 C.3       9 GLL5        0.0000 
      9 CA        -34.8740   22.7140    9.1950 C.3       6 GLP5        0.0000 
     10 CA        -33.4150   24.2725    8.5140 C.3       3 GLC5        0.0000 
     11 CA        -31.9560   25.8310    7.8330 C.3       9 GLL5        0.0000 
     12 CA        -33.3585   26.8110    8.9030 C.3       3 GLC5        0.0000 
     13 CA        -34.7610   27.7910    9.9730 C.3       6 GLP5        0.0000 
     14 O         -27.4915   31.5070    8.9860 O.2       1 ALC1        0.0000 
     15 O         -27.6620   29.9510    8.9340 O.2       7 ALL1        0.0000 
     16 O         -27.3210   33.0630    9.0380 O.2       4 ALP1        0.0000 
     17 N         -29.6035   31.7490    8.4710 N.am      2 SEC2        0.0000 
     18 N         -29.9440   30.4590    9.0410 N.am      8 SEL2        0.0000 
     19 N         -29.2630   33.0390    7.9010 N.am      5 SEP2        0.0000 
     20 CA        -30.6280   29.1235   10.6520 C.3       3 GLC5        0.0000 
     21 CA        -31.2280   30.0320    8.9170 C.3       9 GLL5        0.0000 
     22 CA        -30.0280   28.2150   12.3870 C.3       6 GLP5        0.0000 
     23 CA        -32.7135   29.4425    9.9220 C.3       3 GLC5        0.0000 
     24 CA        -34.1990   28.8530   10.9270 C.3       6 GLP5        0.0000 
     25 CA        -32.2685   31.3610    7.7630 C.3       3 GLC5        0.0000 
     26 CA        -33.3090   32.6900    6.6090 C.3       6 GLP5        0.0000 
     27 CA        -32.6830   27.8610    9.1760 C.3       3 GLC5        0.0000 
     28 CA        -30.6050   27.9310    8.3790 C.3       9 GLL5        0.0000 
     29 O         -34.0895   31.5910    2.1290 O.2       1 ALC1        0.0000 
     30 O         -33.1280   32.0750    2.9790 O.2       7 ALL1        0.0000 
     31 O         -35.0510   31.1070    1.2790 O.2       4 ALP1        0.0000 
     32 N         -34.3385   34.1435    2.3430 N.am      2 SEC2        0.0000 
     33 N         -32.8320   34.2760    2.5250 N.am      8 SEL2        0.0000 
     34 N         -35.8450   34.0110    2.1610 N.am      5 SEP2        0.0000 
     35 N         -30.2115   35.3715    2.7775 N.am      2 SEC2        0.0000 
     36 N         -30.0610   34.1640    3.5010 N.am      8 SEL2        0.0000 
     37 N         -30.3620   36.5790    2.0540 N.am      5 SEP2        0.0000 
     38 CA        -23.7035   36.9210    4.1400 C.3       3 GLC5        0.0000 
     39 CA        -25.5550   36.0060    4.4510 C.3       9 GLL5        0.0000 
     40 CA        -21.8520   37.8360    3.8290 C.3       6 GLP5        0.0000 
     41 CA        -25.9155   35.6535    2.3585 C.3       3 GLC5        0.0000 
     42 CA        -26.2760   35.3010    0.2660 C.3       6 GLP5        0.0000 
     43 CA        -26.7165   37.3090    3.9540 C.3       3 GLC5        0.0000 
     44 CA        -27.8780   38.6120    3.4570 C.3       6 GLP5        0.0000 
     45 CA        -23.0455   32.5895    5.9745 C.3       3 GLC5        0.0000 
     46 CA        -24.6380   33.2040    5.3130 C.3       9 GLL5        0.0000 
     47 CA        -21.4530   31.9750    6.6360 C.3       6 GLP5        0.0000 
     48 CA        -27.8345   30.7990    2.8990 C.3       3 GLC5        0.0000 
     49 CA        -29.1720   30.1050    4.3450 C.3       9 GLL5        0.0000 
     50 CA        -26.4970   31.4930    1.4530 C.3       6 GLP5        0.0000 
     51 CA        -26.3135   28.2350    4.7950 C.3       3 GLC5        0.0000 
     52 CA        -28.2340   29.0580    4.8290 C.3       9 GLL5        0.0000 
     53 CA        -24.3930   27.4120    4.7610 C.3       6 GLP5        0.0000 
     54 N         -26.0310   29.2545    5.2425 N.am      2 SEC2        0.0000 
     55 N         -26.9330   29.3230    4.2960 N.am      8 SEL2        0.0000 
     56 N         -25.1290   29.1860    6.1890 N.am      5 SEP2        0.0000 
     57 CA        -31.4385   26.0810    2.6040 C.3       3 GLC5        0.0000 
     58 CA        -29.9730   26.0390    3.2230 C.3       9 GLL5        0.0000 
     59 CA        -32.9040   26.1230    1.9850 C.3       6 GLP5        0.0000 
     60 CA        -29.5655   25.8400    1.0605 C.3       3 GLC5        0.0000 
     61 CA        -29.1580   25.6410   -1.1020 C.3       6 GLP5        0.0000 
     62 N         -29.9410   21.3880    1.7695 N.am      2 SEC2        0.0000 
     63 N         -29.6580   22.4010    2.3400 N.am      8 SEL2        0.0000 
     64 N         -30.2240   20.3750    1.1990 N.am      5 SEP2        0.0000 
     65 N         -31.2155   21.8385    1.9145 N.am      2 SEC2        0.0000 
     66 N         -32.7730   21.2760    1.4890 N.am      5 SEP2        0.0000 
     67 N         -27.0320   22.5840    1.9195 N.am      2 SEC2        0.0000 
     68 N         -27.7770   24.0190    2.3160 N.am      8 SEL2        0.0000 
     69 N         -26.2870   21.1490    1.5230 N.am      5 SEP2        0.0000 
     70 CA        -29.9905   23.1662    8.7910 C.3       3 GLC5        0.0000 
     71 CA        -30.2470   22.9830    7.2060 C.3       9 GLL5        0.0000 
     72 CA        -29.0500   23.0320   10.4510 C.3       6 GLP5        0.0000 
     73 CA        -32.5198   25.6398    4.0530 C.3       3 GLC5        0.0000 
     74 CA        -31.7940   24.5420    5.8310 C.3       9 GLL5        0.0000 
     75 CA        -34.1393   24.2948    5.8450 C.3       3 GLC5        0.0000 
     76 CA        -36.1430   23.4330    5.5690 C.3       6 GLP5        0.0000 
     77 CA        -29.9429   28.3151   10.4496 C.3       3 GLC5        0.0000 
     78 CA        -29.2860   28.2290    8.4690 C.3       9 GLL5        0.0000 
     79 CA        -29.9610   35.3637    4.3225 C.3       3 GLC5        0.0000 
     80 CA        -28.7270   33.9040    3.9270 C.3       9 GLL5        0.0000 
     81 CA        -31.6660   36.2860    4.6850 C.3       6 GLP5        0.0000 
     82 CA        -27.9905   34.6663    5.7545 C.3       3 GLC5        0.0000 
     83 CA        -27.7250   34.8910    7.5490 C.3       6 GLP5        0.0000 
     84 CA        -25.1273   33.9218    3.2380 C.3       3 GLC5        0.0000 
     85 CA        -26.4800   34.7850    4.4170 C.3       9 GLL5        0.0000 
     86 CA        -24.2370   32.4480    2.0420 C.3       6 GLP5        0.0000 
     87 CA        -26.8712   35.1432    5.9915 C.3       3 GLC5        0.0000 
     88 CA        -24.7885   32.8972    3.5530 C.3       3 GLC5        0.0000 
     89 CA        -26.0420   33.4890    4.8150 C.3       9 GLL5        0.0000 
     90 CA        -26.5325   34.1187    6.3065 C.3       3 GLC5        0.0000 
     91 CA        -27.1186   32.1525    2.9401 C.3       3 GLC5        0.0000 
     92 CA        -26.9720   32.3890    4.7420 C.3       9 GLL5        0.0000 
     93 CA        -27.6780   33.6842    6.0345 C.3       3 GLC5        0.0000 
@<TRIPOS>BOND
@<TRIPOS>SUBSTRUCTURE
     1 ALC1       14 GROUP        1 X    ALC  0     ROOT ALC X 1
     2 SEC2        1 GROUP        1 X    SEC  0     **** SEC X 2
     3 GLC5        7 GROUP        1 X    GLC  0     **** GLC X 6
     4 ALP1       16 GROUP        1 Y    ALP  0     ROOT ALP Y 8
     5 SEP2        3 GROUP        1 Y    SEP  0     **** SEP Y 9
     6 GLP5        9 GROUP        1 Y    GLP  0     **** GLP Y 13
     7 ALL1       15 GROUP        1 Z    ALL  0     ROOT ALL Z 15
     8 SEL2        2 GROUP        1 Z    SEL  0     **** SEL Z 16
     9 GLL5        8 GROUP        1 Z    GLL  0     **** GLL Z 20
@<TRIPOS>SET

