#    Name: 2ijg_FAD_2_ligand
#    Modification time : Tue Mar 25 18:18:52 2014

@<TRIPOS>MOLECULE
2ijg_FAD_2_ligand
   84    89     1     0     0
SMALL
NO_CHARGES


@<TRIPOS>ATOM
      1 PA        -28.4660   22.0490    5.5190 P.3       1 FAD526      0.0000 
      2 O1A       -28.5430   21.2040    4.3200 O.co2     1 FAD526      0.0000 
      3 O2A       -27.4640   23.0230    5.9800 O.co2     1 FAD526      0.0000 
      4 O5B       -29.9400   22.2590    6.0440 O.3       1 FAD526      0.0000 
      5 C5B       -30.2470   22.9830    7.2060 C.3       1 FAD526      0.0000 
      6 C4B       -31.6150   23.6180    7.0560 C.3       1 FAD526      0.0000 
      7 O4B       -31.7260   24.4700    8.2220 O.3       1 FAD526      0.0000 
      8 C3B       -31.7940   24.5420    5.8310 C.3       1 FAD526      0.0000 
      9 O3B       -32.4990   23.9680    4.7480 O.3       1 FAD526      0.0000 
     10 C2B       -32.4770   25.7710    6.4110 C.3       1 FAD526      0.0000 
     11 O2B       -33.8810   25.8170    6.3350 O.3       1 FAD526      0.0000 
     12 C1B       -31.9560   25.8310    7.8330 C.3       1 FAD526      0.0000 
     13 N9A       -30.7040   26.6000    8.0360 N.pl3     1 FAD526      0.0000 
     14 C8A       -29.3960   26.1960    7.9420 C.2       1 FAD526      0.0000 
     15 N7A       -28.5120   27.1270    8.1920 N.2       1 FAD526      0.0000 
     16 C5A       -29.2860   28.2290    8.4690 C.ar      1 FAD526      0.0000 
     17 C6A       -28.9350   29.5700    8.8220 C.ar      1 FAD526      0.0000 
     18 N6A       -27.6620   29.9510    8.9340 N.pl3     1 FAD526      0.0000 
     19 N1A       -29.9440   30.4590    9.0410 N.ar      1 FAD526      0.0000 
     20 C2A       -31.2280   30.0320    8.9170 C.ar      1 FAD526      0.0000 
     21 N3A       -31.6690   28.8030    8.5940 N.ar      1 FAD526      0.0000 
     22 C4A       -30.6050   27.9310    8.3790 C.ar      1 FAD526      0.0000 
     23 N1        -31.4200   30.6910    3.7980 N.2       1 FAD526      0.0000 
     24 C2        -32.7000   30.8290    3.4330 C.2       1 FAD526      0.0000 
     25 O2        -33.5000   29.8550    3.4290 O.2       1 FAD526      0.0000 
     26 N3        -33.1280   32.0750    2.9790 N.am      1 FAD526      0.0000 
     27 C4        -32.3350   33.2310    2.9660 C.2       1 FAD526      0.0000 
     28 O4        -32.8320   34.2760    2.5250 O.2       1 FAD526      0.0000 
     29 C4X       -30.9840   33.0780    3.4570 C.2       1 FAD526      0.0000 
     30 N5        -30.0610   34.1640    3.5010 N.2       1 FAD526      0.0000 
     31 C5X       -28.7270   33.9040    3.9270 C.ar      1 FAD526      0.0000 
     32 C6        -27.7850   34.9790    3.9930 C.ar      1 FAD526      0.0000 
     33 C7        -26.4800   34.7850    4.4170 C.ar      1 FAD526      0.0000 
     34 C7M       -25.5550   36.0060    4.4510 C.3       1 FAD526      0.0000 
     35 C8        -26.0420   33.4890    4.8150 C.ar      1 FAD526      0.0000 
     36 C8M       -24.6380   33.2040    5.3130 C.3       1 FAD526      0.0000 
     37 C9        -26.9720   32.3890    4.7420 C.ar      1 FAD526      0.0000 
     38 C9A       -28.2900   32.5660    4.2980 C.ar      1 FAD526      0.0000 
     39 N10       -29.2880   31.5220    4.2020 N.pl3     1 FAD526      0.0000 
     40 C10       -30.5780   31.7900    3.8160 C.2       1 FAD526      0.0000 
     41 C1'       -29.1720   30.1050    4.3450 C.3       1 FAD526      0.0000 
     42 C2'       -28.2340   29.0580    4.8290 C.3       1 FAD526      0.0000 
     43 O2'       -26.9330   29.3230    4.2960 O.3       1 FAD526      0.0000 
     44 C3'       -29.1390   28.0290    4.1590 C.3       1 FAD526      0.0000 
     45 O3'       -30.3580   28.0030    4.9250 O.3       1 FAD526      0.0000 
     46 C4'       -28.7720   26.5520    4.0190 C.3       1 FAD526      0.0000 
     47 O4'       -27.5510   26.5350    3.2590 O.3       1 FAD526      0.0000 
     48 C5'       -29.9730   26.0390    3.2230 C.3       1 FAD526      0.0000 
     49 O5'       -30.0940   24.6610    2.8090 O.3       1 FAD526      0.0000 
     50 P         -29.0330   23.5440    2.9310 P.3       1 FAD526      0.0000 
     51 O1P       -29.6580   22.4010    2.3400 O.co2     1 FAD526      0.0000 
     52 O2P       -27.7770   24.0190    2.3160 O.co2     1 FAD526      0.0000 
     53 O3P       -28.7700   23.3090    4.5310 O.3       1 FAD526      0.0000 
     54 H         -29.5242   23.7886    7.3971 H         1 FAD526      0.0000 
     55 H         -30.2719   22.3439    8.0997 H         1 FAD526      0.0000 
     56 H         -32.3695   22.8818    7.0724 H         1 FAD526      0.0000 
     57 H         -30.7811   24.8634    5.5517 H         1 FAD526      0.0000 
     58 H         -32.0079   26.6426    5.8992 H         1 FAD526      0.0000 
     59 H         -32.7462   26.2417    8.4627 H         1 FAD526      0.0000 
     60 H         -29.1664   25.2419    7.6955 H         1 FAD526      0.0000 
     61 H         -27.5087   30.9150    9.1512 H         1 FAD526      0.0000 
     62 H         -26.9752   29.2384    8.7907 H         1 FAD526      0.0000 
     63 H         -32.0000   30.7903    9.1054 H         1 FAD526      0.0000 
     64 H         -34.1193   32.1578    2.6186 H         1 FAD526      0.0000 
     65 H         -28.1066   35.9231    3.7114 H         1 FAD526      0.0000 
     66 H         -26.6427   31.4554    5.0274 H         1 FAD526      0.0000 
     67 H         -29.5466   29.6462    3.2373 H         1 FAD526      0.0000 
     68 H         -30.2643   29.7506    4.8541 H         1 FAD526      0.0000 
     69 H         -28.3555   28.9900    5.8469 H         1 FAD526      0.0000 
     70 H         -29.4178   28.4043    3.1553 H         1 FAD526      0.0000 
     71 H         -28.7335   26.1267    4.9449 H         1 FAD526      0.0000 
     72 H         -30.0688   26.7258    2.3050 H         1 FAD526      0.0000 
     73 H         -30.9089   26.3450    3.8180 H         1 FAD526      0.0000 
     74 H         -24.6383   35.7686    4.7723 H         1 FAD526      0.0000 
     75 H         -25.4508   36.4183    3.5459 H         1 FAD526      0.0000 
     76 H         -25.9033   36.7190    5.0595 H         1 FAD526      0.0000 
     77 H         -23.9475   33.4266    4.6248 H         1 FAD526      0.0000 
     78 H         -24.4189   33.7361    6.1308 H         1 FAD526      0.0000 
     79 H         -24.5163   32.2400    5.5492 H         1 FAD526      0.0000 
     80 H         -31.8817   24.0491    3.9654 H         1 FAD526      0.0000 
     81 H         -34.1316   25.0669    5.7229 H         1 FAD526      0.0000 
     82 H         -26.5902   28.4329    3.9957 H         1 FAD526      0.0000 
     83 H         -31.0251   28.4958    4.3664 H         1 FAD526      0.0000 
     84 H         -27.5105   25.6212    2.8550 H         1 FAD526      0.0000 
@<TRIPOS>BOND
     1    2    1 ar   
     2    3    1 ar   
     3    4    1 1    
     4   53    1 1    
     5    5    4 1    
     6    6    5 1    
     7   54    5 1    
     8   55    5 1    
     9    7    6 1    
    10    8    6 1    
    11   56    6 1    
    12   12    7 1    
    13    9    8 1    
    14   10    8 1    
    15   57    8 1    
    16   80    9 1    
    17   11   10 1    
    18   12   10 1    
    19   58   10 1    
    20   81   11 1    
    21   13   12 1    
    22   59   12 1    
    23   14   13 1    
    24   22   13 1    
    25   15   14 2    
    26   60   14 1    
    27   16   15 1    
    28   17   16 ar   
    29   22   16 ar   
    30   18   17 1    
    31   19   17 ar   
    32   61   18 1    
    33   62   18 1    
    34   20   19 ar   
    35   21   20 ar   
    36   63   20 1    
    37   22   21 ar   
    38   24   23 1    
    39   40   23 2    
    40   25   24 2    
    41   26   24 am   
    42   27   26 am   
    43   64   26 1    
    44   28   27 2    
    45   29   27 1    
    46   30   29 2    
    47   40   29 1    
    48   31   30 1    
    49   32   31 ar   
    50   38   31 ar   
    51   33   32 ar   
    52   65   32 1    
    53   34   33 1    
    54   35   33 ar   
    55   74   34 1    
    56   75   34 1    
    57   76   34 1    
    58   36   35 1    
    59   37   35 ar   
    60   77   36 1    
    61   78   36 1    
    62   79   36 1    
    63   38   37 ar   
    64   66   37 1    
    65   39   38 1    
    66   40   39 1    
    67   41   39 1    
    68   42   41 1    
    69   67   41 1    
    70   68   41 1    
    71   43   42 1    
    72   44   42 1    
    73   69   42 1    
    74   82   43 1    
    75   45   44 1    
    76   46   44 1    
    77   70   44 1    
    78   83   45 1    
    79   47   46 1    
    80   48   46 1    
    81   71   46 1    
    82   84   47 1    
    83   49   48 1    
    84   72   48 1    
    85   73   48 1    
    86   50   49 1    
    87   51   50 ar   
    88   52   50 ar   
    89   53   50 1    
@<TRIPOS>SUBSTRUCTURE
     1 FAD526      1 GROUP   
@<TRIPOS>SET

