#    Name: 3in4_BX2_1_INTS_M
#    Modification time : Tue Mar 25 16:46:44 2014

@<TRIPOS>MOLECULE
3in4_BX2_1_INTS_M
   57     0     9     0     0
SMALL
NO_CHARGES


@<TRIPOS>ATOM
      1 CA         17.0925  -14.3200   14.3335 C.3       3 GLC5        0.0000 
      2 CA         16.3090  -13.2410   15.5770 C.3       9 GLL5        0.0000 
      3 CA         17.8760  -15.3990   13.0900 C.3       6 GLP5        0.0000 
      4 CA         16.1910  -14.7890   16.2660 C.3       3 GLC5        0.0000 
      5 CA         16.0730  -16.3370   16.9550 C.3       6 GLP5        0.0000 
      6 CA         14.6450  -11.3870   13.4080 C.3       3 GLC5        0.0000 
      7 CA         15.6960  -11.9340   15.0960 C.3       9 GLL5        0.0000 
      8 CA         13.5940  -10.8400   11.7200 C.3       6 GLP5        0.0000 
      9 O          15.2940   -7.3065   14.1490 O.2       1 ALC1        0.0000 
     10 O          14.8550   -6.7880   15.3480 O.2       7 ALL1        0.0000 
     11 O          15.7330   -7.8250   12.9500 O.2       4 ALP1        0.0000 
     12 O          16.2590   -5.4970   13.5020 O.2       1 ALC1        0.0000 
     13 O          16.4320   -5.1830   14.8490 O.2       7 ALL1        0.0000 
     14 O          16.0860   -5.8110   12.1550 O.2       4 ALP1        0.0000 
     15 O          16.0825   -6.5040   13.8995 O.2       1 ALC1        0.0000 
     16 O          16.9405   -3.9185   14.8975 O.2       1 ALC1        0.0000 
     17 O          17.4490   -2.6540   14.9460 O.2       4 ALP1        0.0000 
     18 CA         14.9390  -12.7130   19.5280 C.3       3 GLC5        0.0000 
     19 CA         15.9700  -10.8660   19.8630 C.3       9 GLL5        0.0000 
     20 CA         13.9080  -14.5600   19.1930 C.3       6 GLP5        0.0000 
     21 OD1        16.2590   -5.4970   13.5020 O.co2     2 ASC3        0.0000 
     22 OD1        15.5450   -5.7480   15.6900 O.co2     8 ASL3        0.0000 
     23 OD1        16.0860   -5.8110   12.1550 O.co2     5 ASP3        0.0000 
     24 OD1        15.2940   -7.3065   14.1490 O.co2     2 ASC3        0.0000 
     25 OD1        15.7330   -7.8250   12.9500 O.co2     5 ASP3        0.0000 
     26 OD1        16.9405   -3.9185   14.8975 O.co2     2 ASC3        0.0000 
     27 OD1        17.4490   -2.6540   14.9460 O.co2     5 ASP3        0.0000 
     28 CA         12.2935   -3.7670   13.5725 C.3       3 GLC5        0.0000 
     29 CA         10.4490   -4.1010   14.4970 C.3       9 GLL5        0.0000 
     30 CA         14.1380   -3.4330   12.6480 C.3       6 GLP5        0.0000 
     31 CA          7.1200   -2.2690   14.1550 C.3       3 GLC5        0.0000 
     32 CA          8.8380   -2.5170   14.8220 C.3       9 GLL5        0.0000 
     33 CA          5.4020   -2.0210   13.4880 C.3       6 GLP5        0.0000 
     34 CA          8.4500   -2.4895   12.8160 C.3       3 GLC5        0.0000 
     35 CA          8.0620   -2.4620   10.8100 C.3       6 GLP5        0.0000 
     36 CA         17.1547  -11.1792   14.5653 C.3       3 GLC5        0.0000 
     37 CA         18.3070   -9.7710   13.7940 C.3       6 GLP5        0.0000 
     38 CA         16.7748  -10.0383   14.9280 C.3       3 GLC5        0.0000 
     39 CA         15.4910  -10.9380   16.2090 C.3       9 GLL5        0.0000 
     40 CA         13.4772  -10.3842   15.0520 C.3       3 GLC5        0.0000 
     41 CA         11.7120  -10.4630   14.0420 C.3       6 GLP5        0.0000 
     42 CA         17.2295  -12.8152   20.4025 C.3       3 GLC5        0.0000 
     43 CA         17.7370  -14.7160   20.8390 C.3       6 GLP5        0.0000 
     44 CA         15.6500  -11.2982   21.6460 C.3       3 GLC5        0.0000 
     45 CA         17.4740  -10.9630   20.0690 C.3       9 GLL5        0.0000 
     46 CA         14.5780  -11.6820   23.3260 C.3       6 GLP5        0.0000 
     47 CA         12.0195   -9.1977   15.3380 C.3       3 GLC5        0.0000 
     48 CA         11.9360   -8.4980   16.7650 C.3       9 GLL5        0.0000 
     49 CA         10.9715   -9.1562   15.2410 C.3       3 GLC5        0.0000 
     50 CA         10.5480   -8.4390   16.6340 C.3       9 GLL5        0.0000 
     51 CA         11.2602   -6.6065   13.9370 C.3       3 GLC5        0.0000 
     52 CA         10.6620   -6.1100   15.9770 C.3       9 GLL5        0.0000 
     53 CA         11.1610   -7.0650   11.8290 C.3       6 GLP5        0.0000 
     54 CA         10.6988   -5.7717   13.4322 C.3       3 GLC5        0.0000 
     55 CA          7.6347   -4.9612   16.2257 C.3       3 GLC5        0.0000 
     56 CA         10.0240   -4.8560   15.5740 C.3       9 GLL5        0.0000 
     57 CA          5.7890   -5.3410   16.5480 C.3       6 GLP5        0.0000 
@<TRIPOS>BOND
@<TRIPOS>SUBSTRUCTURE
     1 ALC1        9 GROUP        1 X    ALC  0     ROOT ALC X 1
     2 ASC3       21 GROUP        1 X    ASC  0     **** ASC X 3
     3 GLC5        1 GROUP        1 X    GLC  0     **** GLC X 6
     4 ALP1       11 GROUP        1 Y    ALP  0     ROOT ALP Y 8
     5 ASP3       23 GROUP        1 Y    ASP  0     **** ASP Y 10
     6 GLP5        3 GROUP        1 Y    GLP  0     **** GLP Y 13
     7 ALL1       10 GROUP        1 Z    ALL  0     ROOT ALL Z 15
     8 ASL3       22 GROUP        1 Z    ASL  0     **** ASL Z 17
     9 GLL5        2 GROUP        1 Z    GLL  0     **** GLL Z 20
@<TRIPOS>SET

