#    Name: 3in4_BX2_1_ligand
#    Modification time : Tue Mar 25 16:46:45 2014

@<TRIPOS>MOLECULE
3in4_BX2_1_ligand
   55    58     1     0     0
SMALL
NO_CHARGES


@<TRIPOS>ATOM
      1 C1         16.3090  -13.2410   15.5770 C.3       1 BX21        0.0000 
      2 N1         15.8040  -11.3220   17.4690 N.ar      1 BX21        0.0000 
      3 O1         14.3490   -6.1890   18.8260 O.2       1 BX21        0.0000 
      4 C2         15.6960  -11.9340   15.0960 C.3       1 BX21        0.0000 
      5 N2         15.4290   -5.3490   16.9710 N.am      1 BX21        0.0000 
      6 C3         15.4910  -10.9380   16.2090 C.ar      1 BX21        0.0000 
      7 N3         14.8550   -6.7880   15.3480 N.pl3     1 BX21        0.0000 
      8 C4         14.9940   -9.6730   15.9150 C.ar      1 BX21        0.0000 
      9 N4         16.4320   -5.1830   14.8490 N.pl3     1 BX21        0.0000 
     10 C5         14.7990   -8.7380   16.9380 C.ar      1 BX21        0.0000 
     11 N5          9.8820   -2.9390   14.0970 N.ar      1 BX21        0.0000 
     12 C6         15.1230   -9.1390   18.2420 C.ar      1 BX21        0.0000 
     13 N6          8.3250   -3.1510   15.8840 N.ar      1 BX21        0.0000 
     14 C7         15.6180  -10.4230   18.4660 C.ar      1 BX21        0.0000 
     15 C8         15.9700  -10.8660   19.8630 C.3       1 BX21        0.0000 
     16 C9         17.4740  -10.9630   20.0690 C.3       1 BX21        0.0000 
     17 C10        14.2470   -7.3370   16.6190 C.3       1 BX21        0.0000 
     18 C11        14.6650   -6.2530   17.6450 C.2       1 BX21        0.0000 
     19 C12        15.5450   -5.7480   15.6900 C.cat     1 BX21        0.0000 
     20 C13        16.0040   -4.1780   17.5850 C.3       1 BX21        0.0000 
     21 C14        12.7180   -7.3670   16.5030 C.ar      1 BX21        0.0000 
     22 C15        11.9360   -8.4980   16.7650 C.ar      1 BX21        0.0000 
     23 C16        10.5480   -8.4390   16.6340 C.ar      1 BX21        0.0000 
     24 C17         9.9140   -7.2600   16.2460 C.ar      1 BX21        0.0000 
     25 C18        10.6620   -6.1100   15.9770 C.ar      1 BX21        0.0000 
     26 C19        12.0570   -6.1860   16.1130 C.ar      1 BX21        0.0000 
     27 C20        10.0240   -4.8560   15.5740 C.ar      1 BX21        0.0000 
     28 C21        10.4490   -4.1010   14.4970 C.ar      1 BX21        0.0000 
     29 C22         8.8380   -2.5170   14.8220 C.ar      1 BX21        0.0000 
     30 C23         8.9370   -4.3070   16.2330 C.ar      1 BX21        0.0000 
     31 H          14.7297  -12.1498   14.6156 H         1 BX21        0.0000 
     32 H          16.3511  -11.4951   14.3283 H         1 BX21        0.0000 
     33 H          14.6863   -7.2141   14.5295 H         1 BX21        0.0000 
     34 H          14.7679   -9.4199   14.9444 H         1 BX21        0.0000 
     35 H          16.4848   -5.5807   13.9330 H         1 BX21        0.0000 
     36 H          16.9588   -4.4161   15.2154 H         1 BX21        0.0000 
     37 H          14.9955   -8.4899   19.0228 H         1 BX21        0.0000 
     38 H          15.5191  -11.8461   20.0612 H         1 BX21        0.0000 
     39 H          15.5560  -10.1547   20.5882 H         1 BX21        0.0000 
     40 H          12.3877   -9.3745   17.0549 H         1 BX21        0.0000 
     41 H           9.9825   -9.2823   16.8277 H         1 BX21        0.0000 
     42 H           8.8889   -7.2339   16.1564 H         1 BX21        0.0000 
     43 H          12.6276   -5.3366   15.9183 H         1 BX21        0.0000 
     44 H          11.2878   -4.4718   13.9472 H         1 BX21        0.0000 
     45 H           8.3707   -1.5873   14.5251 H         1 BX21        0.0000 
     46 H           8.5628   -4.8447   17.0777 H         1 BX21        0.0000 
     47 H          17.2047  -13.0983   15.9981 H         1 BX21        0.0000 
     48 H          15.7333  -13.6926   16.2586 H         1 BX21        0.0000 
     49 H          16.4379  -13.8891   14.8265 H         1 BX21        0.0000 
     50 H          17.8928  -11.6217   19.4439 H         1 BX21        0.0000 
     51 H          17.9272  -10.0848   19.9161 H         1 BX21        0.0000 
     52 H          17.7037  -11.2535   20.9979 H         1 BX21        0.0000 
     53 H          16.6258   -4.4171   18.3308 H         1 BX21        0.0000 
     54 H          16.5280   -3.6343   16.9294 H         1 BX21        0.0000 
     55 H          15.3025   -3.5778   17.9693 H         1 BX21        0.0000 
@<TRIPOS>BOND
     1    4    1 1    
     2   47    1 1    
     3   48    1 1    
     4   49    1 1    
     5    6    2 ar   
     6   14    2 ar   
     7   18    3 2    
     8    6    4 1    
     9   31    4 1    
    10   32    4 1    
    11   18    5 am   
    12   19    5 ar   
    13   20    5 1    
    14    8    6 ar   
    15   17    7 1    
    16   19    7 ar   
    17   33    7 1    
    18   10    8 ar   
    19   34    8 1    
    20   19    9 ar   
    21   35    9 1    
    22   36    9 1    
    23   12   10 ar   
    24   17   10 1    
    25   28   11 ar   
    26   29   11 ar   
    27   14   12 ar   
    28   37   12 1    
    29   29   13 ar   
    30   30   13 ar   
    31   15   14 1    
    32   16   15 1    
    33   38   15 1    
    34   39   15 1    
    35   50   16 1    
    36   51   16 1    
    37   52   16 1    
    38   18   17 1    
    39   21   17 1    
    40   53   20 1    
    41   54   20 1    
    42   55   20 1    
    43   22   21 ar   
    44   26   21 ar   
    45   23   22 ar   
    46   40   22 1    
    47   24   23 ar   
    48   41   23 1    
    49   25   24 ar   
    50   42   24 1    
    51   26   25 ar   
    52   27   25 1    
    53   43   26 1    
    54   28   27 ar   
    55   30   27 ar   
    56   44   28 1    
    57   45   29 1    
    58   46   30 1    
@<TRIPOS>SUBSTRUCTURE
     1 BX21        1 GROUP   
@<TRIPOS>SET

