#    Name: 1xbt_TTP_7_INTS_M
#    Modification time : Tue Mar 25 09:41:55 2014

@<TRIPOS>MOLECULE
1xbt_TTP_7_INTS_M
   80     0    15     0     0
SMALL
NO_CHARGES


@<TRIPOS>ATOM
      1 Zn         27.0120   34.4280   -2.6175 Zn        4 ZIC7        0.0000 
      2 Zn         26.4890   35.2370   -2.2900 Zn       14 ZIL7        0.0000 
      3 Zn         27.5350   33.6190   -2.9450 Zn        9 ZIP7        0.0000 
      4 NZ         27.4445   38.3250   -2.0800 N.4       3 LYC4        0.0000 
      5 NZ         26.1160   37.8090   -2.0130 N.4      13 LYL4        0.0000 
      6 NZ         28.7730   38.8410   -2.1470 N.4       8 LYP4        0.0000 
      7 N          27.4445   38.3250   -2.0800 N.am      2 SEC2        0.0000 
      8 N          26.1160   37.8090   -2.0130 N.am     12 SEL2        0.0000 
      9 N          28.7730   38.8410   -2.1470 N.am      7 SEP2        0.0000 
     10 Zn         27.1225   34.0200   -3.9165 Zn        4 ZIC7        0.0000 
     11 Zn         26.7100   34.4210   -4.8880 Zn       14 ZIL7        0.0000 
     12 N          28.3415   37.7415   -6.0615 N.am      2 SEC2        0.0000 
     13 N          28.1430   36.5330   -5.1830 N.am     12 SEL2        0.0000 
     14 N          28.5400   38.9500   -6.9400 N.am      7 SEP2        0.0000 
     15 Zn         28.2990   34.1955   -3.2950 Zn        4 ZIC7        0.0000 
     16 Zn         29.0630   34.7720   -3.6450 Zn       14 ZIL7        0.0000 
     17 N          30.3725   34.2540   -2.6135 N.am      2 SEC2        0.0000 
     18 N          29.0630   34.7720   -3.6450 N.am     12 SEL2        0.0000 
     19 N          31.6820   33.7360   -1.5820 N.am      7 SEP2        0.0000 
     20 N          31.4665   36.2240   -5.7170 N.am      2 SEC2        0.0000 
     21 N          30.1890   35.4550   -5.8280 N.am     12 SEL2        0.0000 
     22 N          32.7440   36.9930   -5.6060 N.am      7 SEP2        0.0000 
     23 NZ         29.4180   37.9710   -3.0305 N.4       3 LYC4        0.0000 
     24 NZ         30.0630   37.1010   -3.9140 N.4      13 LYL4        0.0000 
     25 N          31.3545   36.6010   -3.4195 N.am      2 SEC2        0.0000 
     26 N          30.0630   37.1010   -3.9140 N.am     12 SEL2        0.0000 
     27 N          32.6460   36.1010   -2.9250 N.am      7 SEP2        0.0000 
     28 N          29.4180   37.9710   -3.0305 N.am      2 SEC2        0.0000 
     29 CA         23.5290   39.0550   -1.6125 C.3       5 GLC5        0.0000 
     30 CA         23.3380   37.3830   -2.4960 C.3      15 GLL5        0.0000 
     31 CA         23.7200   40.7270   -0.7290 C.3      10 GLP5        0.0000 
     32 CA         21.0870   36.7390   -0.4870 C.3       5 GLC5        0.0000 
     33 CA         21.8990   36.9260   -2.3380 C.3      15 GLL5        0.0000 
     34 CA         20.2750   36.5520    1.3640 C.3      10 GLP5        0.0000 
     35 N          19.1525   35.7660   -4.8900 N.am      2 SEC2        0.0000 
     36 N          20.3610   35.6370   -3.6670 N.am     12 SEL2        0.0000 
     37 N          17.9440   35.8950   -6.1130 N.am      7 SEP2        0.0000 
     38 O          20.6975   34.4785   -3.0645 O.2       1 ALC1        0.0000 
     39 O          20.3610   35.6370   -3.6670 O.2      11 ALL1        0.0000 
     40 O          21.0340   33.3200   -2.4620 O.2       6 ALP1        0.0000 
     41 CA         21.7275   39.0010   -4.7235 C.3       5 GLC5        0.0000 
     42 CA         20.3430   38.0310   -3.8070 C.3      15 GLL5        0.0000 
     43 CA         23.1120   39.9710   -5.6400 C.3      10 GLP5        0.0000 
     44 CA         18.4810   36.9680   -3.9430 C.3       5 GLC5        0.0000 
     45 CA         16.6190   35.9050   -4.0790 C.3      10 GLP5        0.0000 
     46 CA         19.6940   37.9865   -0.5630 C.3       5 GLC5        0.0000 
     47 CA         20.1000   38.4430   -2.3540 C.3      15 GLL5        0.0000 
     48 CA         19.2880   37.5300    1.2280 C.3      10 GLP5        0.0000 
     49 N          16.4840   39.5515   -1.4845 N.am      2 SEC2        0.0000 
     50 N          17.9330   39.5470   -1.1480 N.am     12 SEL2        0.0000 
     51 N          15.0350   39.5560   -1.8210 N.am      7 SEP2        0.0000 
     52 O          17.3640   41.9340   -0.9290 O.2       1 ALC1        0.0000 
     53 O          18.5980   41.6530   -1.3660 O.2      11 ALL1        0.0000 
     54 O          16.1300   42.2150   -0.4920 O.2       6 ALP1        0.0000 
     55 N          19.8425   45.1260   -1.8015 N.am      2 SEC2        0.0000 
     56 N          19.2370   43.7750   -1.5680 N.am     12 SEL2        0.0000 
     57 N          20.4480   46.4770   -2.0350 N.am      7 SEP2        0.0000 
     58 CA         22.4295   41.5575   -4.2670 C.3       5 GLC5        0.0000 
     59 CA         21.7470   43.1440   -2.8940 C.3      15 GLL5        0.0000 
     60 CA         21.5815   44.5585   -1.3825 C.3       5 GLC5        0.0000 
     61 CA         21.4160   45.9730    0.1290 C.3      10 GLP5        0.0000 
     62 CA         21.0160   45.1575   -3.1020 C.3       5 GLC5        0.0000 
     63 CA         20.2850   47.1710   -3.3100 C.3      10 GLP5        0.0000 
     64 CA         23.0305   43.8920   -4.1230 C.3       5 GLC5        0.0000 
     65 CA         24.3140   44.6400   -5.3520 C.3      10 GLP5        0.0000 
     66 CA         22.0035   40.3615   -4.1290 C.3       5 GLC5        0.0000 
     67 CA         20.8950   40.7520   -2.6180 C.3      15 GLL5        0.0000 
     68 CA         19.7520   41.0355   -4.0710 C.3       5 GLC5        0.0000 
     69 CA         18.6090   41.3190   -5.5240 C.3      10 GLP5        0.0000 
     70 CA         22.5784   37.6416   -4.6945 C.3       5 GLC5        0.0000 
     71 CA         21.2050   36.7900   -3.6810 C.3      15 GLL5        0.0000 
     72 CA         23.2450   38.3110   -6.3400 C.3      10 GLP5        0.0000 
     73 CA         19.5658   39.2165   -4.6833 C.3       5 GLC5        0.0000 
     74 CA         18.9100   40.1960   -6.2860 C.3      10 GLP5        0.0000 
     75 CA         20.9218   41.6060   -0.5792 C.3       5 GLC5        0.0000 
     76 CA         20.7220   42.1280   -2.4350 C.3      15 GLL5        0.0000 
     77 CA         21.0350   41.7720    1.3680 C.3      10 GLP5        0.0000 
     78 CA         20.2357   42.5830   -4.2177 C.3       5 GLC5        0.0000 
     79 CA         19.2370   42.5300   -5.7710 C.3      10 GLP5        0.0000 
     80 CA         22.3924   41.2105   -1.6851 C.3       5 GLC5        0.0000 
@<TRIPOS>BOND
@<TRIPOS>SUBSTRUCTURE
     1 ALC1       38 GROUP        1 X    ALC  0     ROOT ALC X 1
     2 SEC2        7 GROUP        1 X    SEC  0     **** SEC X 2
     3 LYC4        4 GROUP        1 X    LYC  0     **** LYC X 4
     4 ZIC7        1 GROUP        1 X    ZIC  0     **** ZIC X 5
     5 GLC5       29 GROUP        1 X    GLC  0     **** GLC X 6
     6 ALP1       40 GROUP        1 Y    ALP  0     ROOT ALP Y 8
     7 SEP2        9 GROUP        1 Y    SEP  0     **** SEP Y 9
     8 LYP4        6 GROUP        1 Y    LYP  0     **** LYP Y 11
     9 ZIP7        3 GROUP        1 Y    ZIP  0     **** ZIP Y 12
    10 GLP5       31 GROUP        1 Y    GLP  0     **** GLP Y 13
    11 ALL1       39 GROUP        1 Z    ALL  0     ROOT ALL Z 15
    12 SEL2        8 GROUP        1 Z    SEL  0     **** SEL Z 16
    13 LYL4        5 GROUP        1 Z    LYL  0     **** LYL Z 18
    14 ZIL7        2 GROUP        1 Z    ZIL  0     **** ZIL Z 19
    15 GLL5       30 GROUP        1 Z    GLL  0     **** GLL Z 20
@<TRIPOS>SET

