#    Name: 1xbt_TTP_7_ligand
#    Modification time : Tue Mar 25 09:41:55 2014

@<TRIPOS>MOLECULE
1xbt_TTP_7_ligand
   42    43     1     0     0
SMALL
NO_CHARGES


@<TRIPOS>ATOM
      1 PA         25.7950   36.5110   -2.6810 P.3       1 TTP7195     0.0000 
      2 O1A        26.4890   35.2370   -2.2900 O.co2     1 TTP7195     0.0000 
      3 O2A        26.1160   37.8090   -2.0130 O.co2     1 TTP7195     0.0000 
      4 O3A        25.8290   36.7430   -4.2680 O.3       1 TTP7195     0.0000 
      5 PB         26.6900   35.8670   -5.3020 P.3       1 TTP7195     0.0000 
      6 O1B        26.7100   34.4210   -4.8880 O.co2     1 TTP7195     0.0000 
      7 O2B        26.2410   36.2680   -6.6790 O.co2     1 TTP7195     0.0000 
      8 O3B        28.1430   36.5330   -5.1830 O.3       1 TTP7195     0.0000 
      9 PG         29.4710   35.8820   -4.5760 P.3       1 TTP7195     0.0000 
     10 O1G        29.0630   34.7720   -3.6450 O.co2     1 TTP7195     0.0000 
     11 O2G        30.1890   35.4550   -5.8280 O.co2     1 TTP7195     0.0000 
     12 O3G        30.0630   37.1010   -3.9140 O.co2     1 TTP7195     0.0000 
     13 O5'        24.2100   36.2590   -2.5060 O.3       1 TTP7195     0.0000 
     14 C5'        23.3380   37.3830   -2.4960 C.3       1 TTP7195     0.0000 
     15 C4'        21.8990   36.9260   -2.3380 C.3       1 TTP7195     0.0000 
     16 O4'        21.2080   37.9450   -1.6090 O.3       1 TTP7195     0.0000 
     17 C3'        21.2050   36.7900   -3.6810 C.3       1 TTP7195     0.0000 
     18 O3'        20.3610   35.6370   -3.6670 O.3       1 TTP7195     0.0000 
     19 C2'        20.3430   38.0310   -3.8070 C.3       1 TTP7195     0.0000 
     20 C1'        20.1000   38.4430   -2.3540 C.3       1 TTP7195     0.0000 
     21 N1         19.9480   39.8930   -2.1760 N.am      1 TTP7195     0.0000 
     22 C2         18.8100   40.3450   -1.5640 C.2       1 TTP7195     0.0000 
     23 O2         17.9330   39.5470   -1.1480 O.2       1 TTP7195     0.0000 
     24 N3         18.5980   41.6530   -1.3660 N.am      1 TTP7195     0.0000 
     25 C4         19.4770   42.5690   -1.7690 C.2       1 TTP7195     0.0000 
     26 O4         19.2370   43.7750   -1.5680 O.2       1 TTP7195     0.0000 
     27 C5         20.7220   42.1280   -2.4350 C.2       1 TTP7195     0.0000 
     28 C5M        21.7470   43.1440   -2.8940 C.3       1 TTP7195     0.0000 
     29 C6         20.8950   40.7520   -2.6180 C.2       1 TTP7195     0.0000 
     30 H          23.4080   37.9603   -3.4289 H         1 TTP7195     0.0000 
     31 H          23.5671   38.0681   -1.6674 H         1 TTP7195     0.0000 
     32 H          21.8719   35.9987   -1.8260 H         1 TTP7195     0.0000 
     33 H          21.9200   36.7823   -4.4460 H         1 TTP7195     0.0000 
     34 H          19.4194   37.7891   -4.2673 H         1 TTP7195     0.0000 
     35 H          20.8764   38.7968   -4.3094 H         1 TTP7195     0.0000 
     36 H          19.1888   37.9312   -2.0312 H         1 TTP7195     0.0000 
     37 H          17.7126   41.9614   -0.8789 H         1 TTP7195     0.0000 
     38 H          21.7476   40.4148   -3.0900 H         1 TTP7195     0.0000 
     39 H          22.0937   43.6918   -2.1326 H         1 TTP7195     0.0000 
     40 H          22.5368   42.7066   -3.3239 H         1 TTP7195     0.0000 
     41 H          21.3645   43.7811   -3.5632 H         1 TTP7195     0.0000 
     42 H          20.8811   34.9417   -3.1709 H         1 TTP7195     0.0000 
@<TRIPOS>BOND
     1    2    1 ar   
     2    3    1 ar   
     3    4    1 1    
     4   13    1 1    
     5    5    4 1    
     6    6    5 ar   
     7    7    5 ar   
     8    8    5 1    
     9    9    8 1    
    10   10    9 ar   
    11   11    9 ar   
    12   12    9 ar   
    13   14   13 1    
    14   15   14 1    
    15   30   14 1    
    16   31   14 1    
    17   16   15 1    
    18   17   15 1    
    19   32   15 1    
    20   20   16 1    
    21   18   17 1    
    22   19   17 1    
    23   33   17 1    
    24   42   18 1    
    25   20   19 1    
    26   34   19 1    
    27   35   19 1    
    28   21   20 1    
    29   36   20 1    
    30   22   21 1    
    31   29   21 1    
    32   23   22 2    
    33   24   22 1    
    34   25   24 1    
    35   37   24 1    
    36   26   25 2    
    37   27   25 1    
    38   28   27 1    
    39   29   27 2    
    40   39   28 1    
    41   40   28 1    
    42   41   28 1    
    43   38   29 1    
@<TRIPOS>SUBSTRUCTURE
     1 TTP7195     1 GROUP   
@<TRIPOS>SET

