#    Name: 2YW2_2_CAVITY_N1_6.mol2
#    Modification time : Tue Mar 11 04:22:39 2014

@<TRIPOS>MOLECULE
2YW2_2_CAVITY_N1_6.mol2
  102     0     6     0     0
SMALL
NO_CHARGES


@<TRIPOS>ATOM
      1 O         -33.0928   15.2435   45.9022 O.2       1 ALA2        0.0000 
      2 OD1       -32.2831   14.6241   44.8018 O.3       2 ASP3        0.0000 
      3 OD1       -31.4735   14.0048   43.7014 O.3       2 ASP3        0.0000 
      4 OD1       -30.6638   13.3855   42.6010 O.3       2 ASP3        0.0000 
      5 NZ        -29.8542   12.7661   41.5006 N.2       3 LYS4        0.0000 
      6 CA        -33.5300   14.0253   44.2215 C.3       5 GLY6        0.0000 
      7 CA        -32.7203   13.4059   43.1211 C.3       5 GLY6        0.0000 
      8 DU        -31.9107   12.7866   42.0207 H         6 CUB7        0.0000 
      9 N         -31.1010   12.1672   40.9203 N.2       1 ALA2        0.0000 
     10 CA        -30.2914   11.5479   39.8199 C.3       5 GLY6        0.0000 
     11 CA        -33.9672   12.8071   42.5408 C.3       5 GLY6        0.0000 
     12 DU        -33.1575   12.1877   41.4404 H         6 CUB7        0.0000 
     13 DU        -32.3479   11.5684   40.3400 H         6 CUB7        0.0000 
     14 N         -31.5382   10.9490   39.2396 N.2       1 ALA2        0.0000 
     15 O         -35.2140   12.2082   41.9604 O.2       1 ALA2        0.0000 
     16 DU        -34.4043   11.5889   40.8600 H         6 CUB7        0.0000 
     17 OD1       -33.5947   10.9695   39.7596 O.3       2 ASP3        0.0000 
     18 OD1       -32.7851   10.3502   38.6592 O.3       2 ASP3        0.0000 
     19 O         -36.4608   11.6093   41.3801 O.2       1 ALA2        0.0000 
     20 CA        -35.6512   10.9900   40.2797 C.3       5 GLY6        0.0000 
     21 CA        -34.8415   10.3707   39.1793 C.3       5 GLY6        0.0000 
     22 OD1       -29.6167   15.2122   42.3433 O.3       2 ASP3        0.0000 
     23 OD1       -28.8071   14.5929   41.2429 O.3       2 ASP3        0.0000 
     24 N         -31.0741   11.5490   45.3775 N.2       1 ALA2        0.0000 
     25 CA        -30.2644   10.9296   44.2771 C.3       5 GLY6        0.0000 
     26 NZ        -29.4548   10.3103   43.1767 N.2       3 LYS4        0.0000 
     27 CA        -32.3209   10.9501   44.7972 C.3       5 GLY6        0.0000 
     28 CA        -31.5112   10.3308   43.6968 C.3       5 GLY6        0.0000 
     29 CA        -30.7016    9.7114   42.5964 C.3       5 GLY6        0.0000 
     30 NZ        -29.8920    9.0921   41.4960 N.2       3 LYS4        0.0000 
     31 O         -33.5677   10.3512   44.2169 O.2       1 ALA2        0.0000 
     32 CA        -32.7581    9.7319   43.1165 C.3       5 GLY6        0.0000 
     33 OD1       -31.9484    9.1126   42.0161 O.3       2 ASP3        0.0000 
     34 O         -34.8146    9.7524   43.6366 O.2       1 ALA2        0.0000 
     35 O         -34.0049    9.1330   42.5362 O.2       1 ALA2        0.0000 
     36 N         -35.2517    8.5342   41.9558 N.2       1 ALA2        0.0000 
     37 NZ        -28.4077   12.1371   42.9190 N.2       3 LYS4        0.0000 
     38 N         -32.0834   13.3962   45.6399 N.2       1 ALA2        0.0000 
     39 OD1       -31.2738   12.7769   44.5395 O.3       2 ASP3        0.0000 
     40 OD1       -30.4641   12.1575   43.4391 O.3       2 ASP3        0.0000 
     41 NZ        -29.6545   11.5382   42.3387 N.2       3 LYS4        0.0000 
     42 CA        -33.3302   12.7974   45.0595 C.3       5 GLY6        0.0000 
     43 CA        -32.5206   12.1780   43.9591 C.3       5 GLY6        0.0000 
     44 DU        -31.7110   11.5587   42.8587 H         6 CUB7        0.0000 
     45 NZ        -30.9013   10.9393   41.7583 N.2       3 LYS4        0.0000 
     46 CA        -30.0917   10.3200   40.6579 C.3       5 GLY6        0.0000 
     47 CA        -33.7674   11.5792   43.3788 C.3       5 GLY6        0.0000 
     48 DU        -32.9578   10.9598   42.2784 H         6 CUB7        0.0000 
     49 OD1       -32.1482   10.3405   41.1780 O.3       2 ASP3        0.0000 
     50 O         -35.0143   10.9803   42.7985 O.2       1 ALA2        0.0000 
     51 OD1       -34.2046   10.3609   41.6981 O.3       2 ASP3        0.0000 
     52 OD1       -33.3950    9.7416   40.5977 O.3       2 ASP3        0.0000 
     53 O         -36.2611   10.3814   42.2182 O.2       1 ALA2        0.0000 
     54 N         -35.4515    9.7621   41.1178 N.2       1 ALA2        0.0000 
     55 OD1       -34.6418    9.1427   40.0174 O.3       2 ASP3        0.0000 
     56 N         -35.8887    8.5439   39.4371 N.2       1 ALA2        0.0000 
     57 CA        -32.4828   15.8521   43.9637 C.3       5 GLY6        0.0000 
     58 OD1       -31.6732   15.2327   42.8633 O.3       2 ASP3        0.0000 
     59 OD1       -30.8636   14.6134   41.7629 O.3       2 ASP3        0.0000 
     60 N         -30.0539   13.9940   40.6625 N.2       1 ALA2        0.0000 
     61 CA        -34.5393   15.8725   44.4838 C.3       5 GLY6        0.0000 
     62 CA        -33.7297   15.2532   43.3834 C.3       5 GLY6        0.0000 
     63 DU        -32.9200   14.6339   42.2830 H         6 CUB7        0.0000 
     64 DU        -32.1104   14.0145   41.1826 H         6 CUB7        0.0000 
     65 N         -31.3007   13.3952   40.0822 N.2       1 ALA2        0.0000 
     66 CA        -34.9765   14.6543   42.8031 C.3       5 GLY6        0.0000 
     67 NZ        -34.1669   14.0350   41.7027 N.2       3 LYS4        0.0000 
     68 NZ        -33.3572   13.4156   40.6023 N.2       3 LYS4        0.0000 
     69 NZ        -32.5476   12.7963   39.5019 N.2       3 LYS4        0.0000 
     70 NZ        -35.4137   13.4361   41.1224 N.2       3 LYS4        0.0000 
     71 NZ        -34.6041   12.8168   40.0220 N.2       3 LYS4        0.0000 
     72 NZ        -33.7944   12.1974   38.9216 N.2       3 LYS4        0.0000 
     73 O         -37.4702   13.4566   41.6425 O.2       1 ALA2        0.0000 
     74 NZ        -36.6605   12.8373   40.5421 N.2       3 LYS4        0.0000 
     75 CA        -35.8509   12.2179   39.4417 C.3       5 GLY6        0.0000 
     76 N         -28.5696   17.0390   42.0855 N.2       1 ALA2        0.0000 
     77 OD1       -29.8164   16.4401   41.5052 O.3       2 ASP3        0.0000 
     78 CZ        -29.0068   15.8208   40.4048 C.ar      4 PHE5        0.0000 
     79 CA        -32.6826   17.0800   43.1257 C.3       5 GLY6        0.0000 
     80 N         -31.8729   16.4606   42.0253 N.2       1 ALA2        0.0000 
     81 DU        -31.0633   15.8413   40.9249 H         6 CUB7        0.0000 
     82 N         -30.2536   15.2219   39.8245 N.2       1 ALA2        0.0000 
     83 CA        -34.7390   17.1005   43.6458 C.3       5 GLY6        0.0000 
     84 NZ        -33.9294   16.4811   42.5454 N.2       3 LYS4        0.0000 
     85 NZ        -33.1197   15.8618   41.4450 N.2       3 LYS4        0.0000 
     86 NZ        -32.3101   15.2424   40.3446 N.2       3 LYS4        0.0000 
     87 N         -31.5005   14.6231   39.2442 N.2       1 ALA2        0.0000 
     88 O         -35.9859   16.5016   43.0655 O.2       1 ALA2        0.0000 
     89 NZ        -35.1762   15.8822   41.9651 N.2       3 LYS4        0.0000 
     90 CA        -37.2327   15.9027   42.4851 C.3       5 GLY6        0.0000 
     91 NZ        -37.6699   14.6845   40.8044 N.2       3 LYS4        0.0000 
     92 O         -38.9167   14.0857   40.2241 O.2       1 ALA2        0.0000 
     93 N         -28.7693   18.2669   41.2475 N.2       1 ALA2        0.0000 
     94 N         -30.8258   18.2874   41.7675 N.2       1 ALA2        0.0000 
     95 N         -30.0162   17.6681   40.6671 N.2       1 ALA2        0.0000 
     96 CZ        -29.2065   17.0487   39.5667 C.ar      4 PHE5        0.0000 
     97 O         -32.8823   18.3079   42.2876 O.2       1 ALA2        0.0000 
     98 N         -32.0726   17.6885   41.1872 N.2       1 ALA2        0.0000 
     99 O         -31.2630   17.0692   40.0868 O.2       1 ALA2        0.0000 
    100 NZ        -34.1291   17.7090   41.7073 N.2       3 LYS4        0.0000 
    101 NZ        -33.3195   17.0897   40.6069 N.2       3 LYS4        0.0000 
    102 O         -32.5098   16.4703   39.5065 O.2       1 ALA2        0.0000 
@<TRIPOS>BOND
@<TRIPOS>SUBSTRUCTURE
     1 ALA2        1 GROUP   
     2 ASP3        2 GROUP   
     3 LYS4        5 GROUP   
     4 PHE5       78 GROUP   
     5 GLY6        6 GROUP   
     6 CUB7        8 GROUP   
@<TRIPOS>SET

