#    Name: 2yw2_ATP_2_INTS_M
#    Modification time : Tue Mar 25 09:45:21 2014

@<TRIPOS>MOLECULE
2yw2_ATP_2_INTS_M
   72     0    12     0     0
SMALL
NO_CHARGES


@<TRIPOS>ATOM
      1 N         -36.2985   11.9375   43.8740 N.am      2 SEC2        0.0000 
      2 N         -35.5930   10.5210   43.3540 N.am     10 SEL2        0.0000 
      3 N         -37.0040   13.3540   44.3940 N.am      6 SEP2        0.0000 
      4 N         -35.9270    9.7685   44.5805 N.am      2 SEC2        0.0000 
      5 N         -36.2610    9.0160   45.8070 N.am      6 SEP2        0.0000 
      6 N         -33.5565    9.1695   45.2700 N.am      2 SEC2        0.0000 
      7 N         -33.4470   10.5720   44.8680 N.am     10 SEL2        0.0000 
      8 N         -33.6660    7.7670   45.6720 N.am      6 SEP2        0.0000 
      9 NZ        -31.7440    8.4825   40.4620 N.4       3 LYC4        0.0000 
     10 NZ        -31.1110    9.4840   41.1390 N.4      11 LYL4        0.0000 
     11 NZ        -32.3770    7.4810   39.7850 N.4       7 LYP4        0.0000 
     12 N         -31.7440    8.4825   40.4620 N.am      2 SEC2        0.0000 
     13 N         -31.1110    9.4840   41.1390 N.am     10 SEL2        0.0000 
     14 N         -32.3770    7.4810   39.7850 N.am      6 SEP2        0.0000 
     15 N         -30.5195   12.7495   40.7780 N.am      2 SEC2        0.0000 
     16 N         -31.7550   11.8960   41.2950 N.am     10 SEL2        0.0000 
     17 N         -29.2840   13.6030   40.2610 N.am      6 SEP2        0.0000 
     18 NZ        -30.4810   13.8900   44.8090 N.4       3 LYC4        0.0000 
     19 NZ        -31.7390   12.4180   44.8050 N.4      11 LYL4        0.0000 
     20 NZ        -29.2230   15.3620   44.8130 N.4       7 LYP4        0.0000 
     21 NZ        -29.7055   14.1900   43.8645 N.4       3 LYC4        0.0000 
     22 NZ        -30.1880   13.0180   42.9160 N.4      11 LYL4        0.0000 
     23 N         -29.7055   14.1900   43.8645 N.am      2 SEC2        0.0000 
     24 N         -30.1880   13.0180   42.9160 N.am     10 SEL2        0.0000 
     25 N         -29.2230   15.3620   44.8130 N.am      6 SEP2        0.0000 
     26 N         -29.7360   13.3105   41.5885 N.am      2 SEC2        0.0000 
     27 O         -24.0165   12.9270   44.6055 O.2       1 ALC1        0.0000 
     28 O         -25.3030   12.6530   44.5160 O.2       9 ALL1        0.0000 
     29 O         -22.7300   13.2010   44.6950 O.2       5 ALP1        0.0000 
     30 O         -23.6265   12.4400   45.8390 O.2       1 ALC1        0.0000 
     31 O         -24.5230   11.6790   46.9830 O.2       9 ALL1        0.0000 
     32 O         -23.4585   12.3400   46.9175 O.2       1 ALC1        0.0000 
     33 O         -22.3940   13.0010   46.8520 O.2       5 ALP1        0.0000 
     34 CA        -26.0475    8.3670   48.1550 C.3       4 GLC5        0.0000 
     35 CA        -25.7570    9.5960   46.5270 C.3      12 GLL5        0.0000 
     36 CA        -26.3380    7.1380   49.7830 C.3       8 GLP5        0.0000 
     37 N         -26.6885    6.1820   43.3680 N.am      2 SEC2        0.0000 
     38 N         -25.7260    6.6240   44.4510 N.am     10 SEL2        0.0000 
     39 N         -27.6510    5.7400   42.2850 N.am      6 SEP2        0.0000 
     40 CA        -26.5290    5.7360   44.2490 C.3       4 GLC5        0.0000 
     41 CA        -24.5880    6.4020   45.1520 C.3      12 GLL5        0.0000 
     42 CA        -28.4700    5.0700   43.3460 C.3       8 GLP5        0.0000 
     43 CA        -22.7360    3.8655   46.5965 C.3       4 GLC5        0.0000 
     44 CA        -23.6040    5.3790   45.1780 C.3      12 GLL5        0.0000 
     45 CA        -21.8680    2.3520   48.0150 C.3       8 GLP5        0.0000 
     46 O         -24.6625    3.9640   43.3865 O.2       1 ALC1        0.0000 
     47 O         -23.7020    4.2840   44.3370 O.2       9 ALL1        0.0000 
     48 O         -25.6230    3.6440   42.4360 O.2       5 ALP1        0.0000 
     49 O         -23.1775    2.9625   44.8970 O.2       1 ALC1        0.0000 
     50 O         -22.6530    1.6410   45.4570 O.2       5 ALP1        0.0000 
     51 N         -21.4500    4.6290   46.4005 N.am      2 SEC2        0.0000 
     52 N         -22.5690    5.4950   46.0390 N.am     10 SEL2        0.0000 
     53 N         -20.3310    3.7630   46.7620 N.am      6 SEP2        0.0000 
     54 CA        -22.1590    4.4475   47.4400 C.3       4 GLC5        0.0000 
     55 CA        -22.4500    6.5430   46.8650 C.3      12 GLL5        0.0000 
     56 CA        -20.7410    5.3545   46.5510 C.3       4 GLC5        0.0000 
     57 CA        -19.0320    4.1660   46.2370 C.3       8 GLP5        0.0000 
     58 CA        -21.1440    7.8570   46.4470 C.3       4 GLC5        0.0000 
     59 CA        -19.8380    9.1710   46.0290 C.3       8 GLP5        0.0000 
     60 CA        -25.3800    7.3170   47.9160 C.3       4 GLC5        0.0000 
     61 CA        -24.4220    7.4960   46.0490 C.3      12 GLL5        0.0000 
     62 CA        -23.5885    8.6100   44.5490 C.3       4 GLC5        0.0000 
     63 CA        -22.7550    9.7240   43.0490 C.3       8 GLP5        0.0000 
     64 CA        -27.3117   13.1220   45.1902 C.3       4 GLC5        0.0000 
     65 CA        -27.0860   11.2750   45.4830 C.3      12 GLL5        0.0000 
     66 CA        -27.9600   14.9410   45.4660 C.3       8 GLP5        0.0000 
     67 CA        -24.0085   10.3690   44.2372 C.3       4 GLC5        0.0000 
     68 CA        -25.6820   11.3220   44.8660 C.3      12 GLL5        0.0000 
     69 CA        -24.9075    4.6872   46.4310 C.3       4 GLC5        0.0000 
     70 CA        -25.7190    3.4840   47.6970 C.3       8 GLP5        0.0000 
     71 CA        -23.1380    6.6372   43.7770 C.3       4 GLC5        0.0000 
     72 CA        -22.1800    7.3840   42.3890 C.3       8 GLP5        0.0000 
@<TRIPOS>BOND
@<TRIPOS>SUBSTRUCTURE
     1 ALC1       27 GROUP        1 X    ALC  0     ROOT ALC X 1
     2 SEC2        1 GROUP        1 X    SEC  0     **** SEC X 2
     3 LYC4        9 GROUP        1 X    LYC  0     **** LYC X 4
     4 GLC5       34 GROUP        1 X    GLC  0     **** GLC X 6
     5 ALP1       29 GROUP        1 Y    ALP  0     ROOT ALP Y 8
     6 SEP2        3 GROUP        1 Y    SEP  0     **** SEP Y 9
     7 LYP4       11 GROUP        1 Y    LYP  0     **** LYP Y 11
     8 GLP5       36 GROUP        1 Y    GLP  0     **** GLP Y 13
     9 ALL1       28 GROUP        1 Z    ALL  0     ROOT ALL Z 15
    10 SEL2        2 GROUP        1 Z    SEL  0     **** SEL Z 16
    11 LYL4       10 GROUP        1 Z    LYL  0     **** LYL Z 18
    12 GLL5       35 GROUP        1 Z    GLL  0     **** GLL Z 20
@<TRIPOS>SET

