#    Name: 2yw2_ATP_2_ligand
#    Modification time : Tue Mar 25 09:45:21 2014

@<TRIPOS>MOLECULE
2yw2_ATP_2_ligand
   43    45     1     0     0
SMALL
NO_CHARGES


@<TRIPOS>ATOM
      1 PG        -34.0230   10.8800   43.3920 P.3       1 ATP647      0.0000 
      2 O1G       -33.8490   12.3170   43.0560 O.co2     1 ATP647      0.0000 
      3 O2G       -35.5930   10.5210   43.3540 O.co2     1 ATP647      0.0000 
      4 O3G       -33.4470   10.5720   44.8680 O.co2     1 ATP647      0.0000 
      5 PB        -31.7590   10.4680   42.0370 P.3       1 ATP647      0.0000 
      6 O1B       -31.1110    9.4840   41.1390 O.co2     1 ATP647      0.0000 
      7 O2B       -31.7550   11.8960   41.2950 O.co2     1 ATP647      0.0000 
      8 O3B       -33.2690    9.9530   42.3090 O.3       1 ATP647      0.0000 
      9 PA        -30.5760   11.9440   44.0540 P.3       1 ATP647      0.0000 
     10 O1A       -31.7390   12.4180   44.8050 O.co2     1 ATP647      0.0000 
     11 O2A       -30.1880   13.0180   42.9160 O.co2     1 ATP647      0.0000 
     12 O3A       -30.8950   10.4690   43.4300 O.3       1 ATP647      0.0000 
     13 O5'       -29.3650   11.7970   45.1050 O.3       1 ATP647      0.0000 
     14 C5'       -28.2040   11.2930   44.4430 C.3       1 ATP647      0.0000 
     15 C4'       -27.0860   11.2750   45.4830 C.3       1 ATP647      0.0000 
     16 O4'       -27.1310   10.0470   46.2690 O.3       1 ATP647      0.0000 
     17 C3'       -25.6820   11.3220   44.8660 C.3       1 ATP647      0.0000 
     18 O3'       -25.3030   12.6530   44.5160 O.3       1 ATP647      0.0000 
     19 C2'       -24.8420   10.7060   45.9850 C.3       1 ATP647      0.0000 
     20 O2'       -24.5230   11.6790   46.9830 O.3       1 ATP647      0.0000 
     21 C1'       -25.7570    9.5960   46.5270 C.3       1 ATP647      0.0000 
     22 N9        -25.4900    8.3210   45.8270 N.pl3     1 ATP647      0.0000 
     23 C8        -26.2560    7.7420   44.8400 C.2       1 ATP647      0.0000 
     24 N7        -25.7260    6.6240   44.4510 N.2       1 ATP647      0.0000 
     25 C5        -24.5880    6.4020   45.1520 C.ar      1 ATP647      0.0000 
     26 C6        -23.6040    5.3790   45.1780 C.ar      1 ATP647      0.0000 
     27 N6        -23.7020    4.2840   44.3370 N.pl3     1 ATP647      0.0000 
     28 N1        -22.5690    5.4950   46.0390 N.ar      1 ATP647      0.0000 
     29 C2        -22.4500    6.5430   46.8650 C.ar      1 ATP647      0.0000 
     30 N3        -23.3510    7.5240   46.8780 N.ar      1 ATP647      0.0000 
     31 C4        -24.4220    7.4960   46.0490 C.ar      1 ATP647      0.0000 
     32 H         -27.8920   11.9308   43.6253 H         1 ATP647      0.0000 
     33 H         -28.3462   10.2809   44.0849 H         1 ATP647      0.0000 
     34 H         -27.1892   12.1264   46.1375 H         1 ATP647      0.0000 
     35 H         -25.6809   10.6361   44.0453 H         1 ATP647      0.0000 
     36 H         -23.9949   10.2453   45.5422 H         1 ATP647      0.0000 
     37 H         -25.5865    9.5072   47.5728 H         1 ATP647      0.0000 
     38 H         -27.0847    8.1554   44.5061 H         1 ATP647      0.0000 
     39 H         -24.1701    4.4380   43.4668 H         1 ATP647      0.0000 
     40 H         -23.2962    3.4338   44.6725 H         1 ATP647      0.0000 
     41 H         -21.6219    6.5894   47.5194 H         1 ATP647      0.0000 
     42 H         -24.3166   12.6915   44.6756 H         1 ATP647      0.0000 
     43 H         -23.9991   12.3814   46.5013 H         1 ATP647      0.0000 
@<TRIPOS>BOND
     1    2    1 ar   
     2    3    1 ar   
     3    4    1 ar   
     4    8    1 1    
     5    6    5 ar   
     6    7    5 ar   
     7    8    5 1    
     8   12    5 1    
     9   10    9 ar   
    10   11    9 ar   
    11   12    9 1    
    12   13    9 1    
    13   14   13 1    
    14   15   14 1    
    15   32   14 1    
    16   33   14 1    
    17   16   15 1    
    18   17   15 1    
    19   34   15 1    
    20   21   16 1    
    21   18   17 1    
    22   19   17 1    
    23   35   17 1    
    24   42   18 1    
    25   20   19 1    
    26   21   19 1    
    27   36   19 1    
    28   43   20 1    
    29   22   21 1    
    30   37   21 1    
    31   23   22 1    
    32   31   22 1    
    33   24   23 2    
    34   38   23 1    
    35   25   24 1    
    36   26   25 ar   
    37   31   25 ar   
    38   27   26 1    
    39   28   26 ar   
    40   39   27 1    
    41   40   27 1    
    42   29   28 ar   
    43   30   29 ar   
    44   41   29 1    
    45   31   30 ar   
@<TRIPOS>SUBSTRUCTURE
     1 ATP647      1 GROUP   
@<TRIPOS>SET

