#    Name: 2oyu_IMS_1_INTS_M
#    Modification time : Mon Mar 24 18:02:54 2014

@<TRIPOS>MOLECULE
2oyu_IMS_1_INTS_M
   80     0     6     0     0
SMALL
NO_CHARGES


@<TRIPOS>ATOM
      1 CA         27.5340   53.5760   12.5845 C.3       2 GLC5        0.0000 
      2 CA         25.4210   53.0200   12.4750 C.3       6 GLL5        0.0000 
      3 CA         29.6470   54.1320   12.6940 C.3       4 GLP5        0.0000 
      4 CA         25.2695   54.3330   11.1965 C.3       2 GLC5        0.0000 
      5 CA         25.1180   55.6460    9.9180 C.3       4 GLP5        0.0000 
      6 CA         26.2240   51.6805   12.8895 C.3       2 GLC5        0.0000 
      7 CA         27.0270   50.3410   13.3040 C.3       4 GLP5        0.0000 
      8 O          18.3940   50.9060    7.3685 O.2       1 ALC1        0.0000 
      9 O          19.3340   49.8460    7.5390 O.2       5 ALL1        0.0000 
     10 O          17.4540   51.9660    7.1980 O.2       3 ALP1        0.0000 
     11 CA         20.7555   50.4405    6.7605 C.3       2 GLC5        0.0000 
     12 CA         18.8530   49.4610    6.2070 C.3       6 GLL5        0.0000 
     13 CA         22.6580   51.4200    7.3140 C.3       4 GLP5        0.0000 
     14 CA         22.0130   47.1290    6.2605 C.3       2 GLC5        0.0000 
     15 CA         21.0280   48.3140    5.6190 C.3       6 GLL5        0.0000 
     16 CA         22.9980   45.9440    6.9020 C.3       4 GLP5        0.0000 
     17 O          16.4510   48.2640    6.3200 O.2       1 ALC1        0.0000 
     18 O          17.1810   48.1140    5.0710 O.2       5 ALL1        0.0000 
     19 O          15.7210   48.4140    7.5690 O.2       3 ALP1        0.0000 
     20 CA         19.9290   52.2270    9.5905 C.3       2 GLC5        0.0000 
     21 CA         20.1760   50.2210    9.6700 C.3       6 GLL5        0.0000 
     22 CA         19.6820   54.2330    9.5110 C.3       4 GLP5        0.0000 
     23 CA         18.4030   50.1430    9.3495 C.3       2 GLC5        0.0000 
     24 CA         16.6300   50.0650    9.0290 C.3       4 GLP5        0.0000 
     25 CA         21.4170   50.8205    8.4920 C.3       2 GLC5        0.0000 
     26 CA         21.3925   48.3665    9.8780 C.3       2 GLC5        0.0000 
     27 CA         22.6090   46.5120   10.0860 C.3       4 GLP5        0.0000 
     28 CA         17.9900   46.5865   11.0900 C.3       2 GLC5        0.0000 
     29 CA         18.8570   47.8480   11.4390 C.3       6 GLL5        0.0000 
     30 CA         17.1230   45.3250   10.7410 C.3       4 GLP5        0.0000 
     31 CA         20.7330   47.1800   10.7625 C.3       2 GLC5        0.0000 
     32 CA         17.1190   48.9220   12.3600 C.3       2 GLC5        0.0000 
     33 CA         17.7930   48.4810   14.3570 C.3       6 GLL5        0.0000 
     34 CA         16.4450   49.3630   10.3630 C.3       4 GLP5        0.0000 
     35 CA         20.1370   47.4775   17.5820 C.3       2 GLC5        0.0000 
     36 CA         19.1370   47.6630   16.1890 C.3       6 GLL5        0.0000 
     37 CA         21.1370   47.2920   18.9750 C.3       4 GLP5        0.0000 
     38 CA         21.5850   52.9970   11.4623 C.3       2 GLC5        0.0000 
     39 CA         23.1730   51.9800   12.5790 C.3       6 GLL5        0.0000 
     40 CA         20.4370   54.2510   10.8290 C.3       4 GLP5        0.0000 
     41 CA         25.0998   51.0083   13.2530 C.3       2 GLC5        0.0000 
     42 CA         23.2058   51.7897   15.5510 C.3       2 GLC5        0.0000 
     43 CA         22.3170   50.3000   14.1050 C.3       6 GLL5        0.0000 
     44 CA         23.6670   52.7440   17.1370 C.3       4 GLP5        0.0000 
     45 CA         19.1872   50.5675   12.8355 C.3       2 GLC5        0.0000 
     46 CA         19.9190   48.8070   11.8580 C.3       6 GLL5        0.0000 
     47 CA         18.1700   51.8290   14.1990 C.3       4 GLP5        0.0000 
     48 CA         20.7003   52.1863   11.1597 C.3       2 GLC5        0.0000 
     49 CA         20.4900   49.8050   11.0860 C.3       6 GLL5        0.0000 
     50 CA         17.5572   49.4273    7.6098 C.3       2 GLC5        0.0000 
     51 CA         19.9733   51.3397    5.3715 C.3       2 GLC5        0.0000 
     52 CA         20.0920   49.4540    5.3190 C.3       6 GLL5        0.0000 
     53 CA         20.4740   53.2220    4.9800 C.3       4 GLP5        0.0000 
     54 CA         21.9360   50.0005    5.7920 C.3       2 GLC5        0.0000 
     55 CA         23.3120   51.1170    6.1150 C.3       4 GLP5        0.0000 
     56 CA         20.1041   48.8394    3.8215 C.3       2 GLC5        0.0000 
     57 CA         19.9580   48.7930    1.9520 C.3       4 GLP5        0.0000 
     58 CA         19.9145   51.0396   13.4781 C.3       2 GLC5        0.0000 
     59 CA         21.4370   50.4380   11.8950 C.3       6 GLL5        0.0000 
     60 CA         21.7149   48.1920   10.8848 C.3       2 GLC5        0.0000 
     61 CA         17.9879   48.9700   10.9093 C.3       2 GLC5        0.0000 
     62 CA         23.2304   49.4511   14.4423 C.3       2 GLC5        0.0000 
     63 CA         21.4450   49.8250   13.1340 C.3       6 GLL5        0.0000 
     64 CA         24.3660   48.5720   15.3350 C.3       4 GLP5        0.0000 
     65 CA         15.7380   49.4663   14.9050 C.3       2 GLC5        0.0000 
     66 CA         14.2380   50.4320   15.0450 C.3       4 GLP5        0.0000 
     67 CA         17.8550   50.1134   14.5478 C.3       2 GLC5        0.0000 
     68 CA         16.6830   48.5200   15.1730 C.3       6 GLL5        0.0000 
     69 CA         15.5605   48.0145   18.7015 C.3       2 GLC5        0.0000 
     70 CA         16.8100   48.1290   16.4970 C.3       6 GLL5        0.0000 
     71 CA         14.9030   47.8890   20.4430 C.3       4 GLP5        0.0000 
     72 CA         17.1480   46.4740   17.4985 C.3       2 GLC5        0.0000 
     73 CA         15.6260   48.1510   17.4230 C.3       6 GLL5        0.0000 
     74 CA         18.0780   44.8080   18.0370 C.3       4 GLP5        0.0000 
     75 CA         14.9170   48.1025   15.9520 C.3       2 GLC5        0.0000 
     76 CA         13.6160   48.0650   14.9440 C.3       4 GLP5        0.0000 
     77 CA         18.7218   48.7163   18.0078 C.3       2 GLC5        0.0000 
     78 CA         20.0230   49.5150   19.2660 C.3       4 GLP5        0.0000 
     79 CA         18.3310   46.2463   17.3163 C.3       2 GLC5        0.0000 
     80 CA         18.0310   47.7060   17.0020 C.3       6 GLL5        0.0000 
@<TRIPOS>BOND
@<TRIPOS>SUBSTRUCTURE
     1 ALC1        8 GROUP        1 X    ALC  0     ROOT ALC X 1
     2 GLC5        1 GROUP        1 X    GLC  0     **** GLC X 6
     3 ALP1       10 GROUP        1 Y    ALP  0     ROOT ALP Y 8
     4 GLP5        3 GROUP        1 Y    GLP  0     **** GLP Y 13
     5 ALL1        9 GROUP        1 Z    ALL  0     ROOT ALL Z 15
     6 GLL5        2 GROUP        1 Z    GLL  0     **** GLL Z 20
@<TRIPOS>SET

