#    Name: 2oyu_IMS_1_ligand
#    Modification time : Mon Mar 24 18:02:54 2014

@<TRIPOS>MOLECULE
2oyu_IMS_1_ligand
   55    57     1     0     0
SMALL
NO_CHARGES


@<TRIPOS>ATOM
      1 C2         22.2930   51.5060   11.6120 C.ar      1 IMS700      0.0000 
      2 C3         23.1730   51.9800   12.5790 C.ar      1 IMS700      0.0000 
      3 C4         23.1720   51.3710   13.8250 C.ar      1 IMS700      0.0000 
      4 C5         22.3170   50.3000   14.1050 C.ar      1 IMS700      0.0000 
      5 C6         25.4210   53.0200   12.4750 C.3       1 IMS700      0.0000 
      6 C7         20.4900   49.8050   11.0860 C.2       1 IMS700      0.0000 
      7 C8         19.9190   48.8070   11.8580 C.2       1 IMS700      0.0000 
      8 C9         20.2220   47.9930   14.0640 C.2       1 IMS700      0.0000 
      9 O2         20.0140   48.0060    8.7490 O.2       1 IMS700      0.0000 
     10 C18        19.8330   49.2030    8.6070 C.2       1 IMS700      0.0000 
     11 N2         19.3340   49.8460    7.5390 N.am      1 IMS700      0.0000 
     12 C19        18.8530   49.4610    6.2070 C.3       1 IMS700      0.0000 
     13 C21        20.0920   49.4540    5.3190 C.3       1 IMS700      0.0000 
     14 C22        21.0280   48.3140    5.6190 C.3       1 IMS700      0.0000 
     15 C20        18.1160   48.1180    6.1740 C.3       1 IMS700      0.0000 
     16 O3         17.1810   48.1140    5.0710 O.3       1 IMS700      0.0000 
     17 C17        20.1760   50.2210    9.6700 C.3       1 IMS700      0.0000 
     18 C1         21.4370   50.4380   11.8950 C.ar      1 IMS700      0.0000 
     19 C16        18.8570   47.8480   11.4390 C.3       1 IMS700      0.0000 
     20 N          20.5130   48.8760   13.0480 N.am      1 IMS700      0.0000 
     21 C          21.4450   49.8250   13.1340 C.ar      1 IMS700      0.0000 
     22 O          24.0020   53.0480   12.3040 O.3       1 IMS700      0.0000 
     23 O1         20.9480   47.0560   14.3590 O.2       1 IMS700      0.0000 
     24 C10        19.0010   48.0700   14.8830 C.ar      1 IMS700      0.0000 
     25 C15        17.7930   48.4810   14.3570 C.ar      1 IMS700      0.0000 
     26 C14        16.6830   48.5200   15.1730 C.ar      1 IMS700      0.0000 
     27 C13        16.8100   48.1290   16.4970 C.ar      1 IMS700      0.0000 
     28 CL         15.6260   48.1510   17.4230 Cl        1 IMS700      0.0000 
     29 C12        18.0310   47.7060   17.0020 C.ar      1 IMS700      0.0000 
     30 C11        19.1370   47.6630   16.1890 C.ar      1 IMS700      0.0000 
     31 H          22.2696   51.9433   10.6793 H         1 IMS700      0.0000 
     32 H          23.8128   51.7109   14.5637 H         1 IMS700      0.0000 
     33 H          22.3375   49.8641   15.0379 H         1 IMS700      0.0000 
     34 H          19.2479   50.9773    7.6620 H         1 IMS700      0.0000 
     35 H          18.1930   50.2383    5.8257 H         1 IMS700      0.0000 
     36 H          20.6243   50.4099    5.4469 H         1 IMS700      0.0000 
     37 H          19.7724   49.3998    4.2662 H         1 IMS700      0.0000 
     38 H          17.6061   47.9898    7.1304 H         1 IMS700      0.0000 
     39 H          18.8609   47.3273    6.0691 H         1 IMS700      0.0000 
     40 H          21.0474   50.8489    9.2858 H         1 IMS700      0.0000 
     41 H          19.3318   50.9873    9.7069 H         1 IMS700      0.0000 
     42 H          17.7230   48.7541   13.3700 H         1 IMS700      0.0000 
     43 H          15.7779   48.8320   14.8109 H         1 IMS700      0.0000 
     44 H          18.1020   47.4239   17.9932 H         1 IMS700      0.0000 
     45 H          20.0377   47.3371   16.5449 H         1 IMS700      0.0000 
     46 H          25.8494   52.3155   11.9092 H         1 IMS700      0.0000 
     47 H          25.8423   53.8921   12.2262 H         1 IMS700      0.0000 
     48 H          25.6772   52.8306   13.4229 H         1 IMS700      0.0000 
     49 H          21.8330   48.3285    5.0259 H         1 IMS700      0.0000 
     50 H          21.3584   48.3432    6.5624 H         1 IMS700      0.0000 
     51 H          20.5854   47.4265    5.4907 H         1 IMS700      0.0000 
     52 H          19.1478   47.2873   10.6637 H         1 IMS700      0.0000 
     53 H          18.6102   47.2211   12.1779 H         1 IMS700      0.0000 
     54 H          18.0194   48.3190   11.1622 H         1 IMS700      0.0000 
     55 H          16.2952   47.9014    5.4835 H         1 IMS700      0.0000 
@<TRIPOS>BOND
     1    2    1 ar   
     2   18    1 ar   
     3   31    1 1    
     4    3    2 ar   
     5   22    2 1    
     6    4    3 ar   
     7   32    3 1    
     8   21    4 ar   
     9   33    4 1    
    10   22    5 1    
    11   46    5 1    
    12   47    5 1    
    13   48    5 1    
    14    7    6 2    
    15   17    6 1    
    16   18    6 1    
    17   19    7 1    
    18   20    7 1    
    19   20    8 am   
    20   23    8 2    
    21   24    8 1    
    22   10    9 2    
    23   11   10 am   
    24   17   10 1    
    25   12   11 1    
    26   34   11 1    
    27   13   12 1    
    28   15   12 1    
    29   35   12 1    
    30   14   13 1    
    31   36   13 1    
    32   37   13 1    
    33   49   14 1    
    34   50   14 1    
    35   51   14 1    
    36   16   15 1    
    37   38   15 1    
    38   39   15 1    
    39   55   16 1    
    40   40   17 1    
    41   41   17 1    
    42   21   18 ar   
    43   52   19 1    
    44   53   19 1    
    45   54   19 1    
    46   21   20 1    
    47   25   24 ar   
    48   30   24 ar   
    49   26   25 ar   
    50   42   25 1    
    51   27   26 ar   
    52   43   26 1    
    53   28   27 1    
    54   29   27 ar   
    55   30   29 ar   
    56   44   29 1    
    57   45   30 1    
@<TRIPOS>SUBSTRUCTURE
     1 IMS700      1 GROUP   
@<TRIPOS>SET

