#    Name: 3efj_MT3_2_INTS_M
#    Modification time : Tue Mar 25 01:42:46 2014

@<TRIPOS>MOLECULE
3efj_MT3_2_INTS_M
   89     0     6     0     0
SMALL
NO_CHARGES


@<TRIPOS>ATOM
      1 N          62.0125   26.6145   73.1860 N.am      1 SEC2        0.0000 
      2 N          61.2900   26.9030   74.5060 N.am      5 SEL2        0.0000 
      3 N          62.7350   26.3260   71.8660 N.am      3 SEP2        0.0000 
      4 CA         63.4195   22.1370   82.3860 C.3       2 GLC5        0.0000 
      5 CA         61.7900   23.2470   82.6510 C.3       6 GLL5        0.0000 
      6 CA         65.0490   21.0270   82.1210 C.3       4 GLP5        0.0000 
      7 CA         62.2000   22.8030   80.5070 C.3       2 GLC5        0.0000 
      8 CA         62.6100   22.3590   78.3630 C.3       4 GLP5        0.0000 
      9 CA         63.2595   23.8505   81.6495 C.3       2 GLC5        0.0000 
     10 CA         64.7290   24.4540   80.6480 C.3       4 GLP5        0.0000 
     11 CA         60.6570   28.3055   82.1780 C.3       2 GLC5        0.0000 
     12 CA         60.3910   26.3530   81.3410 C.3       6 GLL5        0.0000 
     13 CA         60.9230   30.2580   83.0150 C.3       4 GLP5        0.0000 
     14 CA         61.8825   24.3285   77.5700 C.3       2 GLC5        0.0000 
     15 CA         61.1550   26.2980   76.7770 C.3       6 GLL5        0.0000 
     16 CA         54.8350   29.8140   75.5180 C.3       2 GLC5        0.0000 
     17 CA         55.1150   27.8160   75.3590 C.3       6 GLL5        0.0000 
     18 CA         54.5550   31.8120   75.6770 C.3       4 GLP5        0.0000 
     19 CA         54.9755   26.8180   77.1905 C.3       2 GLC5        0.0000 
     20 CA         54.8360   25.8200   79.0220 C.3       4 GLP5        0.0000 
     21 CA         58.4895   30.1860   72.4670 C.3       2 GLC5        0.0000 
     22 CA         58.2890   29.0120   71.0730 C.3       6 GLL5        0.0000 
     23 CA         58.6900   31.3600   73.8610 C.3       4 GLP5        0.0000 
     24 CA         59.7770   29.7555   70.4860 C.3       2 GLC5        0.0000 
     25 CA         61.2650   30.4990   69.8990 C.3       4 GLP5        0.0000 
     26 CA         57.3625   27.1515   71.3115 C.3       2 GLC5        0.0000 
     27 CA         56.4360   25.2910   71.5500 C.3       4 GLP5        0.0000 
     28 CA         63.2615   27.0535   74.0285 C.3       2 GLC5        0.0000 
     29 CA         61.8700   26.4320   75.5960 C.3       6 GLL5        0.0000 
     30 CA         64.6530   27.6750   72.4610 C.3       4 GLP5        0.0000 
     31 CA         61.9110   25.0620   74.3850 C.3       2 GLC5        0.0000 
     32 CA         61.9520   23.6920   73.1740 C.3       4 GLP5        0.0000 
     33 CA         57.9655   26.9240   80.4885 C.3       2 GLC5        0.0000 
     34 CA         59.7590   28.1730   79.9630 C.3       6 GLL5        0.0000 
     35 CA         56.1720   25.6750   81.0140 C.3       4 GLP5        0.0000 
     36 CA         60.3410   29.2155   81.4890 C.3       2 GLC5        0.0000 
     37 CA         58.6940   23.6915   77.6075 C.3       2 GLC5        0.0000 
     38 CA         59.6730   24.6230   79.2570 C.3       6 GLL5        0.0000 
     39 CA         57.7150   22.7600   75.9580 C.3       4 GLP5        0.0000 
     40 CA         60.7650   26.7545   87.5590 C.3       2 GLC5        0.0000 
     41 CA         60.8220   24.7820   86.4810 C.3       6 GLL5        0.0000 
     42 CA         60.7080   28.7270   88.6370 C.3       4 GLP5        0.0000 
     43 CA         67.2988   23.0727   88.2920 C.3       2 GLC5        0.0000 
     44 CA         65.6660   24.0850   88.4370 C.3       6 GLL5        0.0000 
     45 CA         68.8670   22.1190   88.8390 C.3       4 GLP5        0.0000 
     46 CA         67.2078   25.5033   87.4935 C.3       2 GLC5        0.0000 
     47 CA         68.6850   26.9800   87.2420 C.3       4 GLP5        0.0000 
     48 CA         64.7665   22.0880   89.9386 C.3       2 GLC5        0.0000 
     49 CA         65.2490   20.7200   91.3300 C.3       4 GLP5        0.0000 
     50 CA         62.0583   25.6202   81.3325 C.3       2 GLC5        0.0000 
     51 CA         61.0170   24.4040   82.7100 C.3       6 GLL5        0.0000 
     52 CA         63.3330   26.5480   80.5530 C.3       4 GLP5        0.0000 
     53 CA         61.2655   23.3693   79.1118 C.3       2 GLC5        0.0000 
     54 CA         60.1690   24.1360   80.4640 C.3       6 GLL5        0.0000 
     55 CA         61.6270   25.4637   80.2067 C.3       2 GLC5        0.0000 
     56 CA         59.8865   22.2893   79.6397 C.3       2 GLC5        0.0000 
     57 CA         59.8520   20.1990   79.4190 C.3       4 GLP5        0.0000 
     58 CA         58.7790   25.6923   74.9770 C.3       2 GLC5        0.0000 
     59 CA         59.9980   27.2690   74.4890 C.3       6 GLL5        0.0000 
     60 CA         57.9420   24.1710   74.8870 C.3       4 GLP5        0.0000 
     61 CA         58.3447   26.0610   74.0952 C.3       2 GLC5        0.0000 
     62 CA         58.0740   28.1410   73.2930 C.3       6 GLL5        0.0000 
     63 CA         60.4288   25.9925   73.0208 C.3       2 GLC5        0.0000 
     64 CA         61.1480   24.4700   72.1400 C.3       4 GLP5        0.0000 
     65 CA         59.0314   29.4850   73.8786 C.3       2 GLC5        0.0000 
     66 CA         63.2223   26.1925   77.4423 C.3       2 GLC5        0.0000 
     67 CA         64.9320   26.0200   78.6980 C.3       4 GLP5        0.0000 
     68 CA         59.2142   25.3250   75.8400 C.3       2 GLC5        0.0000 
     69 CA         64.2163   21.7970   85.2225 C.3       2 GLC5        0.0000 
     70 CA         62.4860   22.2930   86.1700 C.3       6 GLL5        0.0000 
     71 CA         65.3830   20.9760   83.8840 C.3       4 GLP5        0.0000 
     72 CA         58.1427   29.5677   74.4470 C.3       2 GLC5        0.0000 
     73 CA         57.8880   27.5340   75.6200 C.3       6 GLL5        0.0000 
     74 CA         57.2306   26.6375   72.7124 C.3       2 GLC5        0.0000 
     75 CA         57.3030   28.0170   74.4460 C.3       6 GLL5        0.0000 
     76 CA         57.7687   25.9733   74.9600 C.3       2 GLC5        0.0000 
     77 CA         58.7523   29.0720   79.8255 C.3       2 GLC5        0.0000 
     78 CA         59.8960   26.8470   80.1330 C.3       6 GLL5        0.0000 
     79 CA         57.6770   30.6340   79.6030 C.3       4 GLP5        0.0000 
     80 CA         61.5677   26.8919   80.2456 C.3       2 GLC5        0.0000 
     81 CA         65.3320   22.3270   85.2833 C.3       2 GLC5        0.0000 
     82 CA         64.7670   23.3880   86.3120 C.3       6 GLL5        0.0000 
     83 CA         67.0610   23.3990   85.9023 C.3       2 GLC5        0.0000 
     84 CA         68.8410   23.1200   85.1220 C.3       4 GLP5        0.0000 
     85 CA         64.9219   25.6646   86.5942 C.3       2 GLC5        0.0000 
     86 CA         65.7950   23.9680   87.0530 C.3       6 GLL5        0.0000 
     87 CA         64.5950   27.6220   86.1600 C.3       4 GLP5        0.0000 
     88 CA         61.6704   28.1924   76.2211 C.3       2 GLC5        0.0000 
     89 CA         62.7260   29.7340   76.3800 C.3       4 GLP5        0.0000 
@<TRIPOS>BOND
@<TRIPOS>SUBSTRUCTURE
     1 SEC2        1 GROUP        1 X    SEC  0     ROOT SEC X 2
     2 GLC5        4 GROUP        1 X    GLC  0     **** GLC X 6
     3 SEP2        3 GROUP        1 Y    SEP  0     ROOT SEP Y 9
     4 GLP5        6 GROUP        1 Y    GLP  0     **** GLP Y 13
     5 SEL2        2 GROUP        1 Z    SEL  0     ROOT SEL Z 16
     6 GLL5        5 GROUP        1 Z    GLL  0     **** GLL Z 20
@<TRIPOS>SET

