#    Name: 3efj_MT3_2_ligand
#    Modification time : Tue Mar 25 01:42:46 2014

@<TRIPOS>MOLECULE
3efj_MT3_2_ligand
   61    65     1     0     0
SMALL
NO_CHARGES


@<TRIPOS>ATOM
      1 N1         61.1600   24.2480   85.1340 N.am      1 MT32        0.0000 
      2 N3         61.2900   26.9030   74.5060 N.ar      1 MT32        0.0000 
      3 C4         65.6660   24.0850   88.4370 C.ar      1 MT32        0.0000 
      4 C5         64.5100   23.6290   89.0800 C.ar      1 MT32        0.0000 
      5 C6         63.4800   23.0550   88.3360 C.ar      1 MT32        0.0000 
      6 C7         61.0170   24.4040   82.7100 C.2       1 MT32        0.0000 
      7 C8         60.6890   24.9050   83.9790 C.2       1 MT32        0.0000 
      8 C10        61.7900   23.2470   82.6510 C.2       1 MT32        0.0000 
      9 C13        60.3910   26.3530   81.3410 C.ar      1 MT32        0.0000 
     10 C15        60.1690   24.1360   80.4640 C.ar      1 MT32        0.0000 
     11 C17        59.2340   27.1580   75.6450 C.ar      1 MT32        0.0000 
     12 C20        58.0740   28.1410   73.2930 C.ar      1 MT32        0.0000 
     13 C21        59.4210   27.7610   73.3140 C.ar      1 MT32        0.0000 
     14 C22        59.9980   27.2690   74.4890 C.ar      1 MT32        0.0000 
     15 C24        61.1550   26.2980   76.7770 C.ar      1 MT32        0.0000 
     16 C26        55.1150   27.8160   75.3590 C.3       1 MT32        0.0000 
     17 C28        62.4860   22.2930   86.1700 C.3       1 MT32        0.0000 
     18 C27        58.2890   29.0120   71.0730 C.3       1 MT32        0.0000 
     19 O2         57.4550   28.6370   72.1730 O.3       1 MT32        0.0000 
     20 C19        57.3030   28.0170   74.4460 C.ar      1 MT32        0.0000 
     21 O1         55.9870   28.4030   74.3890 O.3       1 MT32        0.0000 
     22 C18        57.8880   27.5340   75.6200 C.ar      1 MT32        0.0000 
     23 C23        61.8700   26.4320   75.5960 C.ar      1 MT32        0.0000 
     24 C25        59.8180   26.6600   76.8090 C.ar      1 MT32        0.0000 
     25 O3         59.0510   26.5410   77.9380 O.3       1 MT32        0.0000 
     26 C11        59.5480   25.9970   79.0900 C.ar      1 MT32        0.0000 
     27 C12        59.8960   26.8470   80.1330 C.ar      1 MT32        0.0000 
     28 F1         59.7590   28.1730   79.9630 F         1 MT32        0.0000 
     29 C16        59.6730   24.6230   79.2570 C.ar      1 MT32        0.0000 
     30 C14        60.5500   24.9810   81.5140 C.ar      1 MT32        0.0000 
     31 O4         60.0060   25.9210   84.1020 O.2       1 MT32        0.0000 
     32 C29        60.8220   24.7820   86.4810 C.3       1 MT32        0.0000 
     33 N2         62.2260   22.6400   83.7470 N.2       1 MT32        0.0000 
     34 C9         61.9530   23.0950   84.9800 C.2       1 MT32        0.0000 
     35 C1         63.6130   22.9430   86.9520 C.ar      1 MT32        0.0000 
     36 C2         64.7670   23.3880   86.3120 C.ar      1 MT32        0.0000 
     37 C3         65.7950   23.9680   87.0530 C.ar      1 MT32        0.0000 
     38 H          66.4234   24.5083   88.9892 H         1 MT32        0.0000 
     39 H          64.4225   23.7179   90.0983 H         1 MT32        0.0000 
     40 H          62.6330   22.7184   88.8013 H         1 MT32        0.0000 
     41 H          62.0190   22.8664   81.6977 H         1 MT32        0.0000 
     42 H          60.6363   27.0004   82.0978 H         1 MT32        0.0000 
     43 H          60.2613   23.1051   80.5939 H         1 MT32        0.0000 
     44 H          59.9885   27.8442   72.4611 H         1 MT32        0.0000 
     45 H          61.6131   25.9337   77.6196 H         1 MT32        0.0000 
     46 H          62.8269   21.3015   85.8019 H         1 MT32        0.0000 
     47 H          61.6409   22.0842   86.8605 H         1 MT32        0.0000 
     48 H          57.3203   27.4542   76.4770 H         1 MT32        0.0000 
     49 H          62.8766   26.1494   75.5981 H         1 MT32        0.0000 
     50 H          59.4068   23.9818   78.5102 H         1 MT32        0.0000 
     51 H          64.8610   23.2890   85.2937 H         1 MT32        0.0000 
     52 H          66.6407   24.3066   86.5845 H         1 MT32        0.0000 
     53 H          55.0920   26.8192   75.2827 H         1 MT32        0.0000 
     54 H          55.3994   28.0320   76.2930 H         1 MT32        0.0000 
     55 H          54.1743   28.1396   75.2568 H         1 MT32        0.0000 
     56 H          58.9377   29.7296   71.3265 H         1 MT32        0.0000 
     57 H          58.8249   28.2393   70.7329 H         1 MT32        0.0000 
     58 H          57.7540   29.3592   70.3028 H         1 MT32        0.0000 
     59 H          61.2179   24.2253   87.2113 H         1 MT32        0.0000 
     60 H          61.1609   25.7144   86.6067 H         1 MT32        0.0000 
     61 H          59.8340   24.8062   86.6337 H         1 MT32        0.0000 
@<TRIPOS>BOND
     1    7    1 am   
     2   32    1 1    
     3   34    1 1    
     4   14    2 ar   
     5   23    2 ar   
     6    4    3 ar   
     7   37    3 ar   
     8   38    3 1    
     9    5    4 ar   
    10   39    4 1    
    11   35    5 ar   
    12   40    5 1    
    13    7    6 1    
    14    8    6 2    
    15   30    6 1    
    16   31    7 2    
    17   33    8 1    
    18   41    8 1    
    19   27    9 ar   
    20   30    9 ar   
    21   42    9 1    
    22   29   10 ar   
    23   30   10 ar   
    24   43   10 1    
    25   14   11 ar   
    26   22   11 ar   
    27   24   11 ar   
    28   13   12 ar   
    29   19   12 1    
    30   20   12 ar   
    31   14   13 ar   
    32   44   13 1    
    33   23   15 ar   
    34   24   15 ar   
    35   45   15 1    
    36   21   16 1    
    37   53   16 1    
    38   54   16 1    
    39   55   16 1    
    40   34   17 1    
    41   35   17 1    
    42   46   17 1    
    43   47   17 1    
    44   19   18 1    
    45   56   18 1    
    46   57   18 1    
    47   58   18 1    
    48   21   20 1    
    49   22   20 ar   
    50   48   22 1    
    51   49   23 1    
    52   25   24 1    
    53   26   25 1    
    54   27   26 ar   
    55   29   26 ar   
    56   28   27 1    
    57   50   29 1    
    58   59   32 1    
    59   60   32 1    
    60   61   32 1    
    61   34   33 2    
    62   36   35 ar   
    63   37   36 ar   
    64   51   36 1    
    65   52   37 1    
@<TRIPOS>SUBSTRUCTURE
     1 MT32        1 GROUP   
@<TRIPOS>SET

