#    Name: 1k0c_GTB_3_INTS_M
#    Modification time : Tue Mar 25 09:35:07 2014

@<TRIPOS>MOLECULE
1k0c_GTB_3_INTS_M
   57     0    15     0     0
SMALL
NO_CHARGES


@<TRIPOS>ATOM
      1 OD1        24.8285   -5.6640    9.6935 O.co2     3 ASC3        0.0000 
      2 OD1        25.4430   -4.1440    9.5040 O.co2    13 ASL3        0.0000 
      3 OD1        24.2140   -7.1840    9.8830 O.co2     8 ASP3        0.0000 
      4 OD1        24.2150   -4.8310    9.3225 O.co2     3 ASC3        0.0000 
      5 OD1        22.9870   -5.5180    9.1410 O.co2     8 ASP3        0.0000 
      6 O          24.2150   -4.8310    9.3225 O.2       1 ALC1        0.0000 
      7 O          25.4430   -4.1440    9.5040 O.2      11 ALL1        0.0000 
      8 O          22.9870   -5.5180    9.1410 O.2       6 ALP1        0.0000 
      9 N          22.7485   -3.1255   11.9550 N.am      2 SEC2        0.0000 
     10 N          24.1780   -2.5600   11.1450 N.am     12 SEL2        0.0000 
     11 N          21.3190   -3.6910   12.7650 N.am      7 SEP2        0.0000 
     12 N          23.2380   -1.7770   11.6195 N.am      2 SEC2        0.0000 
     13 N          22.2980   -0.9940   12.0940 N.am      7 SEP2        0.0000 
     14 N          23.0910   -2.8285   10.2715 N.am      2 SEC2        0.0000 
     15 N          22.0040   -3.0970    9.3980 N.am      7 SEP2        0.0000 
     16 N          22.7780   -3.8375   12.7680 N.am      2 SEC2        0.0000 
     17 N          24.2370   -3.9840   12.7710 N.am     12 SEL2        0.0000 
     18 CA         28.0810   -6.0825   13.6000 C.3       5 GLC5        0.0000 
     19 CA         27.5500   -4.2180   12.7080 C.3      15 GLL5        0.0000 
     20 CA         28.6120   -7.9470   14.4920 C.3      10 GLP5        0.0000 
     21 O          28.1680   -4.0585   15.0540 O.2       1 ALC1        0.0000 
     22 O          29.3580   -3.9790   14.2560 O.2      11 ALL1        0.0000 
     23 O          26.9780   -4.1380   15.8520 O.2       6 ALP1        0.0000 
     24 CA         30.8825   -5.7665   14.2735 C.3       5 GLC5        0.0000 
     25 CA         30.7220   -3.6600   14.7040 C.3      15 GLL5        0.0000 
     26 CA         31.0430   -7.8730   13.8430 C.3      10 GLP5        0.0000 
     27 N          29.0325   -6.0120   16.5765 N.am      2 SEC2        0.0000 
     28 N          30.3940   -5.5720   16.1370 N.am     12 SEL2        0.0000 
     29 N          27.6710   -6.4520   17.0160 N.am      7 SEP2        0.0000 
     30 CA         31.4105   -3.3900   17.4520 C.3       5 GLC5        0.0000 
     31 CA         30.7550   -2.3850   15.5830 C.3      15 GLL5        0.0000 
     32 CA         32.0660   -4.3950   19.3210 C.3      10 GLP5        0.0000 
     33 CA         29.4890   -3.1925   17.1585 C.3       5 GLC5        0.0000 
     34 CA         28.2230   -4.0000   18.7340 C.3      10 GLP5        0.0000 
     35 CA         30.0200    1.1945   15.4215 C.3       5 GLC5        0.0000 
     36 CA         30.2600   -0.8510   14.7410 C.3      15 GLL5        0.0000 
     37 CA         29.7800    3.2400   16.1020 C.3      10 GLP5        0.0000 
     38 CA         28.1650   -0.5335   14.9020 C.3       5 GLC5        0.0000 
     39 CA         26.0700   -0.2160   15.0630 C.3      10 GLP5        0.0000 
     40 CA         32.5825   -5.2605   17.8695 C.3       5 GLC5        0.0000 
     41 CA         33.0990   -6.1260   16.4180 C.3      15 GLL5        0.0000 
     42 CA         32.0710   -6.9995   15.1305 C.3       5 GLC5        0.0000 
     43 NZ         33.4780   -8.4070   13.9375 N.4       4 LYC4        0.0000 
     44 NZ         34.1510   -7.3000   14.6490 N.4      14 LYL4        0.0000 
     45 NZ         32.8050   -9.5140   13.2260 N.4       9 LYP4        0.0000 
     46 CA         29.7482   -0.8275   16.8630 C.3       5 GLC5        0.0000 
     47 CA         28.9890   -0.0370   18.5640 C.3      10 GLP5        0.0000 
     48 CA         30.1318    0.9425   13.2222 C.3       5 GLC5        0.0000 
     49 CA         29.2070    2.5920   12.1330 C.3      10 GLP5        0.0000 
     50 CA         31.1250    2.2748   14.9902 C.3       5 GLC5        0.0000 
     51 CA         32.4550    1.8660   13.4460 C.3      15 GLL5        0.0000 
     52 CA         31.5600    3.2067   15.2975 C.3       5 GLC5        0.0000 
     53 CA         33.0270    3.0940   13.8480 C.3      15 GLL5        0.0000 
     54 CA         34.5050    4.0563   13.4070 C.3       5 GLC5        0.0000 
     55 CA         35.6700    4.9390   12.3210 C.3      10 GLP5        0.0000 
     56 CA         31.6053    2.3792   15.9840 C.3       5 GLC5        0.0000 
     57 CA         33.7090    2.1410   16.0430 C.3      15 GLL5        0.0000 
@<TRIPOS>BOND
@<TRIPOS>SUBSTRUCTURE
     1 ALC1        6 GROUP        1 X    ALC  0     ROOT ALC X 1
     2 SEC2        9 GROUP        1 X    SEC  0     **** SEC X 2
     3 ASC3        1 GROUP        1 X    ASC  0     **** ASC X 3
     4 LYC4       43 GROUP        1 X    LYC  0     **** LYC X 4
     5 GLC5       18 GROUP        1 X    GLC  0     **** GLC X 6
     6 ALP1        8 GROUP        1 Y    ALP  0     ROOT ALP Y 8
     7 SEP2       11 GROUP        1 Y    SEP  0     **** SEP Y 9
     8 ASP3        3 GROUP        1 Y    ASP  0     **** ASP Y 10
     9 LYP4       45 GROUP        1 Y    LYP  0     **** LYP Y 11
    10 GLP5       20 GROUP        1 Y    GLP  0     **** GLP Y 13
    11 ALL1        7 GROUP        1 Z    ALL  0     ROOT ALL Z 15
    12 SEL2       10 GROUP        1 Z    SEL  0     **** SEL Z 16
    13 ASL3        2 GROUP        1 Z    ASL  0     **** ASL Z 17
    14 LYL4       44 GROUP        1 Z    LYL  0     **** LYL Z 18
    15 GLL5       19 GROUP        1 Z    GLL  0     **** GLL Z 20
@<TRIPOS>SET

