#    Name: 1k0c_GTB_3_ligand
#    Modification time : Tue Mar 25 09:35:08 2014

@<TRIPOS>MOLECULE
1k0c_GTB_3_ligand
   51    51     1     0     0
SMALL
NO_CHARGES


@<TRIPOS>ATOM
      1 N1         25.4430   -4.1440    9.5040 N.4       1 GTB357      0.0000 
      2 CA1        25.7320   -4.4220   10.9160 C.3       1 GTB357      0.0000 
      3 C1         24.6280   -3.5820   11.6650 C.2       1 GTB357      0.0000 
      4 O11        24.1780   -2.5600   11.1450 O.co2     1 GTB357      0.0000 
      5 O12        24.2370   -3.9840   12.7710 O.co2     1 GTB357      0.0000 
      6 CB1        27.1900   -3.9810   11.2460 C.3       1 GTB357      0.0000 
      7 CG1        27.5500   -4.2180   12.7080 C.3       1 GTB357      0.0000 
      8 CD1        28.9940   -3.8160   12.9940 C.2       1 GTB357      0.0000 
      9 OE1        29.7400   -3.3740   12.1100 O.2       1 GTB357      0.0000 
     10 N2         29.3580   -3.9790   14.2560 N.am      1 GTB357      0.0000 
     11 CA2        30.7220   -3.6600   14.7040 C.3       1 GTB357      0.0000 
     12 C2         31.2140   -4.8350   15.5520 C.2       1 GTB357      0.0000 
     13 O2         30.3940   -5.5720   16.1370 O.2       1 GTB357      0.0000 
     14 CB2        30.7550   -2.3850   15.5830 C.3       1 GTB357      0.0000 
     15 SG2        30.2600   -0.8510   14.7410 S.3       1 GTB357      0.0000 
     16 N3         32.5470   -5.0240   15.6260 N.am      1 GTB357      0.0000 
     17 CA3        33.0990   -6.1260   16.4180 C.3       1 GTB357      0.0000 
     18 C3         34.3020   -6.7640   15.7670 C.2       1 GTB357      0.0000 
     19 O31        35.3810   -6.7300   16.3940 O.co2     1 GTB357      0.0000 
     20 O32        34.1510   -7.3000   14.6490 O.co2     1 GTB357      0.0000 
     21 C'         31.8530   -0.5630   13.8820 C.3       1 GTB357      0.0000 
     22 C1'        32.4850    0.7530   14.3110 C.ar      1 GTB357      0.0000 
     23 C2'        32.4550    1.8660   13.4460 C.ar      1 GTB357      0.0000 
     24 C3'        33.0270    3.0940   13.8480 C.ar      1 GTB357      0.0000 
     25 C4'        33.6530    3.2530   15.1380 C.ar      1 GTB357      0.0000 
     26 N41        34.2530    4.6050   15.5360 N.pl3     1 GTB357      0.0000 
     27 O41        34.2140    5.5730   14.7840 O.2       1 GTB357      0.0000 
     28 O42        34.7830    4.7360   16.6290 O.2       1 GTB357      0.0000 
     29 C5'        33.7090    2.1410   16.0430 C.ar      1 GTB357      0.0000 
     30 C6'        33.1520    0.8960   15.6890 C.ar      1 GTB357      0.0000 
     31 H          25.5846   -5.4374   11.1342 H         1 GTB357      0.0000 
     32 H          27.2892   -2.9190   11.0101 H         1 GTB357      0.0000 
     33 H          27.8722   -4.5422   10.6035 H         1 GTB357      0.0000 
     34 H          27.4180   -5.2749   12.9447 H         1 GTB357      0.0000 
     35 H          26.8822   -3.6334   13.3427 H         1 GTB357      0.0000 
     36 H          28.7175   -4.3340   14.9903 H         1 GTB357      0.0000 
     37 H          31.3836   -3.5347   13.8834 H         1 GTB357      0.0000 
     38 H          31.7472   -2.1454   15.9384 H         1 GTB357      0.0000 
     39 H          30.0634   -2.4286   16.4124 H         1 GTB357      0.0000 
     40 H          33.2229   -4.4193   15.1425 H         1 GTB357      0.0000 
     41 H          32.3312   -6.9057   16.5760 H         1 GTB357      0.0000 
     42 H          33.3929   -5.7664   17.4214 H         1 GTB357      0.0000 
     43 H          31.5571   -0.5895   12.8572 H         1 GTB357      0.0000 
     44 H          32.4130   -1.4264   14.1638 H         1 GTB357      0.0000 
     45 H          32.0184    1.7858   12.5247 H         1 GTB357      0.0000 
     46 H          33.0028    3.9029   13.2135 H         1 GTB357      0.0000 
     47 H          34.1607    2.2647   16.9526 H         1 GTB357      0.0000 
     48 H          33.1603    0.0951   16.2743 H         1 GTB357      0.0000 
     49 H          25.6820   -3.2058    9.2537 H         1 GTB357      0.0000 
     50 H          25.9544   -4.7494    8.8941 H         1 GTB357      0.0000 
     51 H          24.4733   -4.2658    9.2924 H         1 GTB357      0.0000 
@<TRIPOS>BOND
     1    2    1 1    
     2   49    1 1    
     3   50    1 1    
     4   51    1 1    
     5    3    2 1    
     6    6    2 1    
     7   31    2 1    
     8    4    3 ar   
     9    5    3 ar   
    10    7    6 1    
    11   32    6 1    
    12   33    6 1    
    13    8    7 1    
    14   34    7 1    
    15   35    7 1    
    16    9    8 2    
    17   10    8 am   
    18   11   10 1    
    19   36   10 1    
    20   12   11 1    
    21   14   11 1    
    22   37   11 1    
    23   13   12 2    
    24   16   12 am   
    25   15   14 1    
    26   38   14 1    
    27   39   14 1    
    28   21   15 1    
    29   17   16 1    
    30   40   16 1    
    31   18   17 1    
    32   41   17 1    
    33   42   17 1    
    34   19   18 ar   
    35   20   18 ar   
    36   22   21 1    
    37   43   21 1    
    38   44   21 1    
    39   23   22 ar   
    40   30   22 ar   
    41   24   23 ar   
    42   45   23 1    
    43   25   24 ar   
    44   46   24 1    
    45   26   25 1    
    46   29   25 ar   
    47   27   26 2    
    48   28   26 2    
    49   30   29 ar   
    50   47   29 1    
    51   48   30 1    
@<TRIPOS>SUBSTRUCTURE
     1 GTB357      1 GROUP   
@<TRIPOS>SET

