#    Name: 3ea5_GDP_1_INTS_M
#    Modification time : Tue Mar 25 01:20:09 2014

@<TRIPOS>MOLECULE
3ea5_GDP_1_INTS_M
   72     0    15     0     0
SMALL
NO_CHARGES


@<TRIPOS>ATOM
      1 NZ         40.9430    8.3265  -15.0940 N.4       3 LYC4        0.0000 
      2 NZ         40.2700    8.7090  -16.2300 N.4      13 LYL4        0.0000 
      3 NZ         41.6160    7.9440  -13.9580 N.4       8 LYP4        0.0000 
      4 N          40.9430    8.3265  -15.0940 N.am      2 SEC2        0.0000 
      5 N          40.2700    8.7090  -16.2300 N.am     12 SEL2        0.0000 
      6 N          41.6160    7.9440  -13.9580 N.am      7 SEP2        0.0000 
      7 N          39.1350    9.6800  -16.3665 N.am      2 SEC2        0.0000 
      8 N          38.0000   10.6510  -16.5030 N.am      7 SEP2        0.0000 
      9 N          40.4805   10.1330  -16.4605 N.am      2 SEC2        0.0000 
     10 N          40.6910   11.5570  -16.6910 N.am      7 SEP2        0.0000 
     11 Zn         42.7970    8.0020  -18.2795 Zn        4 ZIC7        0.0000 
     12 Zn         41.9520    8.4790  -18.0330 Zn       14 ZIL7        0.0000 
     13 Zn         43.6420    7.5250  -18.5260 Zn        9 ZIP7        0.0000 
     14 N          42.4690    9.8610  -18.2175 N.am      2 SEC2        0.0000 
     15 N          41.9520    8.4790  -18.0330 N.am     12 SEL2        0.0000 
     16 N          42.9860   11.2430  -18.4020 N.am      7 SEP2        0.0000 
     17 NZ         41.1785    7.2430  -15.5765 N.4       3 LYC4        0.0000 
     18 NZ         40.7410    6.5420  -17.1950 N.4      13 LYL4        0.0000 
     19 Zn         41.3365    5.9875  -16.9565 Zn        4 ZIC7        0.0000 
     20 Zn         40.7410    6.5420  -17.1950 Zn       14 ZIL7        0.0000 
     21 Zn         41.9320    5.4330  -16.7180 Zn        9 ZIP7        0.0000 
     22 N          39.3180    6.2575  -16.5715 N.am      2 SEC2        0.0000 
     23 N          40.7410    6.5420  -17.1950 N.am     12 SEL2        0.0000 
     24 N          37.8950    5.9730  -15.9480 N.am      7 SEP2        0.0000 
     25 N          38.7010    9.4525  -17.4935 N.am      2 SEC2        0.0000 
     26 N          39.4020    8.2540  -18.4840 N.am     12 SEL2        0.0000 
     27 N          40.9160   11.3050  -20.3805 N.am      2 SEC2        0.0000 
     28 N          40.0470   10.2060  -20.0770 N.am     12 SEL2        0.0000 
     29 N          41.7850   12.4040  -20.6840 N.am      7 SEP2        0.0000 
     30 N          39.6735   11.0360  -21.0165 N.am      2 SEC2        0.0000 
     31 N          39.3000   11.8660  -21.9560 N.am      7 SEP2        0.0000 
     32 CA         36.8675    7.8050  -18.4100 C.3       5 GLC5        0.0000 
     33 CA         36.9880    9.0810  -20.1190 C.3      15 GLL5        0.0000 
     34 CA         36.7470    6.5290  -16.7010 C.3      10 GLP5        0.0000 
     35 CA         37.7000   10.3440  -18.8400 C.3       5 GLC5        0.0000 
     36 CA         38.4120   11.6070  -17.5610 C.3      10 GLP5        0.0000 
     37 CA         37.7780    7.0120  -20.3940 C.3       5 GLC5        0.0000 
     38 CA         38.5680    4.9430  -20.6690 C.3      10 GLP5        0.0000 
     39 CA         37.0165    7.2810  -23.0225 C.3       5 GLC5        0.0000 
     40 CA         36.1680    9.2210  -22.5210 C.3      15 GLL5        0.0000 
     41 CA         37.8650    5.3410  -23.5240 C.3      10 GLP5        0.0000 
     42 O          35.1575    8.7310  -24.6660 O.2       1 ALC1        0.0000 
     43 O          35.2490    8.5640  -23.4010 O.2      11 ALL1        0.0000 
     44 O          35.0660    8.8980  -25.9310 O.2       6 ALP1        0.0000 
     45 O          36.5755   11.4660  -24.7230 O.2       1 ALC1        0.0000 
     46 O          35.5960   11.0440  -23.9590 O.2      11 ALL1        0.0000 
     47 O          37.5550   11.8880  -25.4870 O.2       6 ALP1        0.0000 
     48 CA         34.2115   11.0620  -19.6935 C.3       5 GLC5        0.0000 
     49 CA         34.8660   11.0060  -21.6930 C.3      15 GLL5        0.0000 
     50 CA         33.5570   11.1180  -17.6940 C.3      10 GLP5        0.0000 
     51 N          36.0375   14.3080  -18.3895 N.am      2 SEC2        0.0000 
     52 N          35.8690   13.9860  -19.8600 N.am     12 SEL2        0.0000 
     53 N          36.2060   14.6300  -16.9190 N.am      7 SEP2        0.0000 
     54 CA         33.6985   13.9130  -18.6135 C.3       5 GLC5        0.0000 
     55 CA         34.6210   14.3100  -20.1780 C.3      15 GLL5        0.0000 
     56 CA         32.7760   13.5160  -17.0490 C.3      10 GLP5        0.0000 
     57 CA         36.1505   15.5940  -20.0615 C.3       5 GLC5        0.0000 
     58 CA         37.6800   16.8780  -19.9450 C.3      10 GLP5        0.0000 
     59 CA         34.0055   15.9020  -21.5915 C.3       5 GLC5        0.0000 
     60 CA         33.3900   17.4940  -23.0050 C.3      10 GLP5        0.0000 
     61 N          34.6850   17.4575  -20.4530 N.am      2 SEC2        0.0000 
     62 N          34.1930   16.4450  -19.2860 N.am     12 SEL2        0.0000 
     63 N          35.1770   18.4700  -21.6200 N.am      7 SEP2        0.0000 
     64 O          31.7265   16.4515  -20.0725 O.2       1 ALC1        0.0000 
     65 O          32.5460   15.3920  -20.4340 O.2      11 ALL1        0.0000 
     66 O          30.9070   17.5110  -19.7110 O.2       6 ALP1        0.0000 
     67 O          31.1180   16.1610  -20.9105 O.2       1 ALC1        0.0000 
     68 O          29.6900   16.9300  -21.3870 O.2       6 ALP1        0.0000 
     69 O          30.2755   15.6180  -21.4990 O.2       1 ALC1        0.0000 
     70 O          30.8610   14.3060  -21.6110 O.2      11 ALL1        0.0000 
     71 CA         33.8085   12.1580  -19.3170 C.3       5 GLC5        0.0000 
     72 CA         34.0600   13.1980  -20.9400 C.3      15 GLL5        0.0000 
@<TRIPOS>BOND
@<TRIPOS>SUBSTRUCTURE
     1 ALC1       42 GROUP        1 X    ALC  0     ROOT ALC X 1
     2 SEC2        4 GROUP        1 X    SEC  0     **** SEC X 2
     3 LYC4        1 GROUP        1 X    LYC  0     **** LYC X 4
     4 ZIC7       11 GROUP        1 X    ZIC  0     **** ZIC X 5
     5 GLC5       32 GROUP        1 X    GLC  0     **** GLC X 6
     6 ALP1       44 GROUP        1 Y    ALP  0     ROOT ALP Y 8
     7 SEP2        6 GROUP        1 Y    SEP  0     **** SEP Y 9
     8 LYP4        3 GROUP        1 Y    LYP  0     **** LYP Y 11
     9 ZIP7       13 GROUP        1 Y    ZIP  0     **** ZIP Y 12
    10 GLP5       34 GROUP        1 Y    GLP  0     **** GLP Y 13
    11 ALL1       43 GROUP        1 Z    ALL  0     ROOT ALL Z 15
    12 SEL2        5 GROUP        1 Z    SEL  0     **** SEL Z 16
    13 LYL4        2 GROUP        1 Z    LYL  0     **** LYL Z 18
    14 ZIL7       12 GROUP        1 Z    ZIL  0     **** ZIL Z 19
    15 GLL5       33 GROUP        1 Z    GLL  0     **** GLL Z 20
@<TRIPOS>SET

