#    Name: 3ea5_GDP_1_ligand
#    Modification time : Tue Mar 25 01:20:09 2014

@<TRIPOS>MOLECULE
3ea5_GDP_1_ligand
   40    42     1     0     0
SMALL
NO_CHARGES


@<TRIPOS>ATOM
      1 PB         40.6270    8.0030  -17.4790 P.3       1 GDP220      0.0000 
      2 O1B        40.2700    8.7090  -16.2300 O.co2     1 GDP220      0.0000 
      3 O2B        41.9520    8.4790  -18.0330 O.co2     1 GDP220      0.0000 
      4 O3B        40.7410    6.5420  -17.1950 O.co2     1 GDP220      0.0000 
      5 O3A        39.4020    8.2540  -18.4840 O.3       1 GDP220      0.0000 
      6 PA         39.6070    8.7800  -19.9890 P.3       1 GDP220      0.0000 
      7 O1A        40.0470   10.2060  -20.0770 O.co2     1 GDP220      0.0000 
      8 O2A        40.5680    7.8740  -20.7020 O.co2     1 GDP220      0.0000 
      9 O5'        38.1700    8.5260  -20.6400 O.3       1 GDP220      0.0000 
     10 C5'        36.9880    9.0810  -20.1190 C.3       1 GDP220      0.0000 
     11 C4'        35.8110    8.9530  -21.0700 C.3       1 GDP220      0.0000 
     12 O4'        34.8910    9.9900  -20.6940 O.3       1 GDP220      0.0000 
     13 C3'        36.1680    9.2210  -22.5210 C.3       1 GDP220      0.0000 
     14 O3'        35.2490    8.5640  -23.4010 O.3       1 GDP220      0.0000 
     15 C2'        35.9990   10.7060  -22.6500 C.3       1 GDP220      0.0000 
     16 O2'        35.5960   11.0440  -23.9590 O.3       1 GDP220      0.0000 
     17 C1'        34.8660   11.0060  -21.6930 C.3       1 GDP220      0.0000 
     18 N9         35.0180   12.2970  -21.0300 N.pl3     1 GDP220      0.0000 
     19 C8         36.1140   12.7610  -20.3810 C.2       1 GDP220      0.0000 
     20 N7         35.8690   13.9860  -19.8600 N.2       1 GDP220      0.0000 
     21 C5         34.6210   14.3100  -20.1780 C.2       1 GDP220      0.0000 
     22 C6         33.7710   15.4640  -19.9400 C.2       1 GDP220      0.0000 
     23 O6         34.1930   16.4450  -19.2860 O.2       1 GDP220      0.0000 
     24 N1         32.5460   15.3920  -20.4340 N.am      1 GDP220      0.0000 
     25 C2         32.0960   14.3320  -21.1390 C.2       1 GDP220      0.0000 
     26 N2         30.8610   14.3060  -21.6110 N.pl3     1 GDP220      0.0000 
     27 N3         32.7990   13.2510  -21.3950 N.2       1 GDP220      0.0000 
     28 C4         34.0600   13.1980  -20.9400 C.2       1 GDP220      0.0000 
     29 H          37.1078   10.1619  -19.8850 H         1 GDP220      0.0000 
     30 H          36.6929    8.5986  -19.1611 H         1 GDP220      0.0000 
     31 H          35.3639    8.0018  -20.9724 H         1 GDP220      0.0000 
     32 H          37.1717    8.9680  -22.6836 H         1 GDP220      0.0000 
     33 H          36.8635   11.1915  -22.3175 H         1 GDP220      0.0000 
     34 H          33.9400   10.9666  -22.2376 H         1 GDP220      0.0000 
     35 H          36.9592   12.2793  -20.3014 H         1 GDP220      0.0000 
     36 H          31.8725   16.2046  -20.2739 H         1 GDP220      0.0000 
     37 H          30.2869   15.0930  -21.3850 H         1 GDP220      0.0000 
     38 H          30.6132   13.5017  -22.1511 H         1 GDP220      0.0000 
     39 H          35.0655    9.2279  -24.1260 H         1 GDP220      0.0000 
     40 H          36.4343   11.3329  -24.4213 H         1 GDP220      0.0000 
@<TRIPOS>BOND
     1    2    1 ar   
     2    3    1 ar   
     3    4    1 ar   
     4    5    1 1    
     5    6    5 1    
     6    7    6 ar   
     7    8    6 ar   
     8    9    6 1    
     9   10    9 1    
    10   11   10 1    
    11   29   10 1    
    12   30   10 1    
    13   12   11 1    
    14   13   11 1    
    15   31   11 1    
    16   17   12 1    
    17   14   13 1    
    18   15   13 1    
    19   32   13 1    
    20   39   14 1    
    21   16   15 1    
    22   17   15 1    
    23   33   15 1    
    24   40   16 1    
    25   18   17 1    
    26   34   17 1    
    27   19   18 1    
    28   28   18 1    
    29   20   19 2    
    30   35   19 1    
    31   21   20 1    
    32   22   21 1    
    33   28   21 2    
    34   23   22 2    
    35   24   22 am   
    36   25   24 1    
    37   36   24 1    
    38   26   25 1    
    39   27   25 2    
    40   37   26 1    
    41   38   26 1    
    42   28   27 1    
@<TRIPOS>SUBSTRUCTURE
     1 GDP220      1 GROUP   
@<TRIPOS>SET

