#    Name: 3fsk_RO6_1_INTS_M
#    Modification time : Tue Mar 25 06:26:14 2014

@<TRIPOS>MOLECULE
3fsk_RO6_1_INTS_M
   59     0     9     0     0
SMALL
NO_CHARGES


@<TRIPOS>ATOM
      1 CA         23.0320    6.7930   33.0940 C.3       3 GLC5        0.0000 
      2 CA         23.5360    8.4010   31.7410 C.3       9 GLL5        0.0000 
      3 CA         22.5280    5.1850   34.4470 C.3       6 GLP5        0.0000 
      4 CA         23.8565    7.3135   30.1260 C.3       3 GLC5        0.0000 
      5 CA         24.1770    6.2260   28.5110 C.3       6 GLP5        0.0000 
      6 CA         17.5380   11.5150   28.2955 C.3       3 GLC5        0.0000 
      7 CA         17.9570   12.9200   29.9340 C.3       9 GLL5        0.0000 
      8 CA         17.1190   10.1100   26.6570 C.3       6 GLP5        0.0000 
      9 CA         13.9180   13.8400   31.5595 C.3       3 GLC5        0.0000 
     10 CA         15.6070   13.0990   30.6930 C.3       9 GLL5        0.0000 
     11 CA         12.2290   14.5810   32.4260 C.3       6 GLP5        0.0000 
     12 CA         14.0855   12.2000   32.4365 C.3       3 GLC5        0.0000 
     13 CA         15.8630   12.2250   31.7710 C.3       9 GLL5        0.0000 
     14 CA         12.3080   12.1750   33.1020 C.3       6 GLP5        0.0000 
     15 CA         18.9375   10.5850   34.7020 C.3       3 GLC5        0.0000 
     16 CA         17.4820   10.6110   33.2750 C.3       9 GLL5        0.0000 
     17 CA         20.3930   10.5590   36.1290 C.3       6 GLP5        0.0000 
     18 CA         18.4115    9.1065   33.5100 C.3       3 GLC5        0.0000 
     19 CA         19.3410    7.6020   33.7450 C.3       6 GLP5        0.0000 
     20 CA         16.7305    9.5825   35.0400 C.3       3 GLC5        0.0000 
     21 CA         15.9790    8.5540   36.8050 C.3       6 GLP5        0.0000 
     22 CA         16.5040    9.8875   31.6110 C.3       3 GLC5        0.0000 
     23 CA         15.5260    9.1640   29.9470 C.3       6 GLP5        0.0000 
     24 CA         18.0075    8.9485   30.3370 C.3       3 GLC5        0.0000 
     25 CA         19.7060   10.0630   30.7520 C.3       9 GLL5        0.0000 
     26 CA         16.3090    7.8340   29.9220 C.3       6 GLP5        0.0000 
     27 CA         21.7725   10.4170   29.2315 C.3       3 GLC5        0.0000 
     28 CA         21.0470    9.4840   31.0760 C.3       9 GLL5        0.0000 
     29 CA         22.4980   11.3500   27.3870 C.3       6 GLP5        0.0000 
     30 N          22.8105    6.3380   30.7010 N.am      2 SEC2        0.0000 
     31 N          22.6210    7.5830   31.0500 N.am      8 SEL2        0.0000 
     32 N          23.0000    5.0930   30.3520 N.am      5 SEP2        0.0000 
     33 CA         20.3125    7.8325   32.1980 C.3       3 GLC5        0.0000 
     34 CA         21.2840    8.0630   30.6510 C.3       9 GLL5        0.0000 
     35 CA         21.2155    6.1395   31.1740 C.3       3 GLC5        0.0000 
     36 CA         21.1470    4.2160   31.6970 C.3       6 GLP5        0.0000 
     37 CA         22.1095    7.2520   29.1365 C.3       3 GLC5        0.0000 
     38 CA         22.9350    6.4410   27.6220 C.3       6 GLP5        0.0000 
     39 O          25.1050    6.5390   31.6875 O.2       1 ALC1        0.0000 
     40 O          24.7520    7.7960   32.0420 O.2       7 ALL1        0.0000 
     41 O          25.4580    5.2820   31.3330 O.2       4 ALP1        0.0000 
     42 CA         26.1155    8.6330   36.2810 C.3       3 GLC5        0.0000 
     43 CA         27.5450    8.4590   34.6270 C.3       9 GLL5        0.0000 
     44 CA         24.6860    8.8070   37.9350 C.3       6 GLP5        0.0000 
     45 CA         16.8072   10.8238   30.2082 C.3       3 GLC5        0.0000 
     46 CA         18.2200   12.0470   31.0050 C.3       9 GLL5        0.0000 
     47 CA         15.8242   11.2172   30.0927 C.3       3 GLC5        0.0000 
     48 CA         16.0654   14.0974   32.1924 C.3       3 GLC5        0.0000 
     49 CA         16.1380   15.4470   33.3800 C.3       6 GLP5        0.0000 
     50 CA         14.4794   13.2804   29.8834 C.3       3 GLC5        0.0000 
     51 CA         12.9660   13.8130   28.7620 C.3       6 GLP5        0.0000 
     52 CA         16.0203   10.5622   30.8998 C.3       3 GLC5        0.0000 
     53 CA         16.7555   12.1293   34.0547 C.3       3 GLC5        0.0000 
     54 CA         17.1660   11.6960   31.9340 C.3       9 GLL5        0.0000 
     55 CA         16.1870   13.1050   35.5050 C.3       6 GLP5        0.0000 
     56 CA         19.9802    8.7729   32.4123 C.3       3 GLC5        0.0000 
     57 CA         28.8678    8.1036   31.2525 C.3       3 GLC5        0.0000 
     58 CA         26.9150    8.9120   31.7240 C.3       9 GLL5        0.0000 
     59 CA         29.6710    7.1220   29.6670 C.3       6 GLP5        0.0000 
@<TRIPOS>BOND
@<TRIPOS>SUBSTRUCTURE
     1 ALC1       39 GROUP        1 X    ALC  0     ROOT ALC X 1
     2 SEC2       30 GROUP        1 X    SEC  0     **** SEC X 2
     3 GLC5        1 GROUP        1 X    GLC  0     **** GLC X 6
     4 ALP1       41 GROUP        1 Y    ALP  0     ROOT ALP Y 8
     5 SEP2       32 GROUP        1 Y    SEP  0     **** SEP Y 9
     6 GLP5        3 GROUP        1 Y    GLP  0     **** GLP Y 13
     7 ALL1       40 GROUP        1 Z    ALL  0     ROOT ALL Z 15
     8 SEL2       31 GROUP        1 Z    SEL  0     **** SEL Z 16
     9 GLL5        2 GROUP        1 Z    GLL  0     **** GLL Z 20
@<TRIPOS>SET

