#    Name: 3fsk_RO6_1_ligand
#    Modification time : Tue Mar 25 06:26:14 2014

@<TRIPOS>MOLECULE
3fsk_RO6_1_ligand
   46    49     1     0     0
SMALL
NO_CHARGES


@<TRIPOS>ATOM
      1 C1         23.5360    8.4010   31.7410 C.ar      1 RO6450      0.0000 
      2 N11        23.2670    9.6410   32.0740 N.ar      1 RO6450      0.0000 
      3 C12        22.0190   10.1650   31.7380 C.ar      1 RO6450      0.0000 
      4 N15        21.7980   11.5240   32.1670 N.am      1 RO6450      0.0000 
      5 C16        20.5680   12.2030   31.9400 C.2       1 RO6450      0.0000 
      6 O19        20.4230   13.3380   32.3460 O.2       1 RO6450      0.0000 
      7 N17        19.5240   11.4630   31.2390 N.am      1 RO6450      0.0000 
      8 C20        18.2200   12.0470   31.0050 C.ar      1 RO6450      0.0000 
      9 C21        17.9570   12.9200   29.9340 C.ar      1 RO6450      0.0000 
     10 C22        16.6380   13.4420   29.7840 C.ar      1 RO6450      0.0000 
     11 C23        15.6070   13.0990   30.6930 C.ar      1 RO6450      0.0000 
     12 C24        15.8630   12.2250   31.7710 C.ar      1 RO6450      0.0000 
     13 C25        17.1660   11.6960   31.9340 C.ar      1 RO6450      0.0000 
     14 CL26       17.4820   10.6110   33.2750 Cl        1 RO6450      0.0000 
     15 C18        19.7060   10.0630   30.7520 C.3       1 RO6450      0.0000 
     16 C14        21.0470    9.4840   31.0760 C.ar      1 RO6450      0.0000 
     17 N10        22.6210    7.5830   31.0500 N.ar      1 RO6450      0.0000 
     18 C13        21.2840    8.0630   30.6510 C.ar      1 RO6450      0.0000 
     19 N2         24.7520    7.7960   32.0420 N.pl3     1 RO6450      0.0000 
     20 C3         25.8130    8.5310   32.7450 C.3       1 RO6450      0.0000 
     21 C4         26.9150    8.9120   31.7240 C.3       1 RO6450      0.0000 
     22 C5         28.0510    9.6910   32.4280 C.3       1 RO6450      0.0000 
     23 C6         28.6460    8.8690   33.6000 C.3       1 RO6450      0.0000 
     24 O9         29.6710    9.6050   34.2470 O.3       1 RO6450      0.0000 
     25 C7         27.5450    8.4590   34.6270 C.3       1 RO6450      0.0000 
     26 C8         26.4110    7.6710   33.9060 C.3       1 RO6450      0.0000 
     27 H          22.5629   12.0142   32.6547 H         1 RO6450      0.0000 
     28 H          18.6818   13.1778   29.2790 H         1 RO6450      0.0000 
     29 H          16.4368   14.0764   29.0031 H         1 RO6450      0.0000 
     30 H          14.6689   13.4898   30.5647 H         1 RO6450      0.0000 
     31 H          15.1249   11.9779   32.4213 H         1 RO6450      0.0000 
     32 H          19.5540   10.0354   29.6546 H         1 RO6450      0.0000 
     33 H          18.9171    9.4189   31.1889 H         1 RO6450      0.0000 
     34 H          20.6492    7.5532   30.1878 H         1 RO6450      0.0000 
     35 H          24.9440    6.8241   31.7840 H         1 RO6450      0.0000 
     36 H          25.4247    9.4411   33.1689 H         1 RO6450      0.0000 
     37 H          26.4823    9.5340   30.9519 H         1 RO6450      0.0000 
     38 H          27.3202    8.0091   31.2872 H         1 RO6450      0.0000 
     39 H          27.6555   10.6241   32.8157 H         1 RO6450      0.0000 
     40 H          28.8364    9.9017   31.7095 H         1 RO6450      0.0000 
     41 H          29.0411    7.9428   33.1747 H         1 RO6450      0.0000 
     42 H          27.1295    9.3494   35.0713 H         1 RO6450      0.0000 
     43 H          27.9865    7.8302   35.3836 H         1 RO6450      0.0000 
     44 H          26.8183    6.7614   33.4940 H         1 RO6450      0.0000 
     45 H          25.6293    7.4473   34.6145 H         1 RO6450      0.0000 
     46 H          30.2484   10.1824   34.8244 H         1 RO6450      0.0000 
@<TRIPOS>BOND
     1    2    1 ar   
     2   17    1 ar   
     3   19    1 1    
     4    3    2 ar   
     5    4    3 1    
     6   16    3 ar   
     7    5    4 am   
     8   27    4 1    
     9    6    5 2    
    10    7    5 am   
    11    8    7 1    
    12   15    7 1    
    13    9    8 ar   
    14   13    8 ar   
    15   10    9 ar   
    16   28    9 1    
    17   11   10 ar   
    18   29   10 1    
    19   12   11 ar   
    20   30   11 1    
    21   13   12 ar   
    22   31   12 1    
    23   14   13 1    
    24   16   15 1    
    25   32   15 1    
    26   33   15 1    
    27   18   16 ar   
    28   18   17 ar   
    29   34   18 1    
    30   20   19 1    
    31   35   19 1    
    32   21   20 1    
    33   26   20 1    
    34   36   20 1    
    35   22   21 1    
    36   37   21 1    
    37   38   21 1    
    38   23   22 1    
    39   39   22 1    
    40   40   22 1    
    41   24   23 1    
    42   25   23 1    
    43   41   23 1    
    44   46   24 1    
    45   26   25 1    
    46   42   25 1    
    47   43   25 1    
    48   44   26 1    
    49   45   26 1    
@<TRIPOS>SUBSTRUCTURE
     1 RO6450      1 GROUP   
@<TRIPOS>SET

