#    Name: 3lz6_A0D_4_INTS_M
#    Modification time : Mon Mar 24 22:27:48 2014

@<TRIPOS>MOLECULE
3lz6_A0D_4_INTS_M
   59     0     6     0     0
SMALL
NO_CHARGES


@<TRIPOS>ATOM
      1 CA          1.9155   10.4855    1.7495 C.3       2 GLC5        0.0000 
      2 CA          3.0630   11.5800    0.2490 C.3       6 GLL5        0.0000 
      3 CA          0.7680    9.3910    3.2500 C.3       4 GLP5        0.0000 
      4 N           3.3110    8.8490    0.9145 N.am      1 SEC2        0.0000 
      5 N           2.8130    9.2470   -0.2780 N.am      5 SEL2        0.0000 
      6 N           3.8090    8.4510    2.1070 N.am      3 SEP2        0.0000 
      7 N           2.6500    7.8875   -0.5980 N.am      1 SEC2        0.0000 
      8 N           2.4870    6.5280   -0.9180 N.am      3 SEP2        0.0000 
      9 CA          2.8600   14.4620    1.7305 C.3       2 GLC5        0.0000 
     10 CA          3.9450   13.6690    0.3550 C.3       6 GLL5        0.0000 
     11 CA          1.7750   15.2550    3.1060 C.3       4 GLP5        0.0000 
     12 CA          5.5545   13.9700   -0.9600 C.3       2 GLC5        0.0000 
     13 CA          7.1640   14.2710   -2.2750 C.3       4 GLP5        0.0000 
     14 CA          3.6955   15.6490   -0.3340 C.3       2 GLC5        0.0000 
     15 CA          3.4460   17.6290   -1.0230 C.3       4 GLP5        0.0000 
     16 CA          6.3645   12.7290   -0.7835 C.3       2 GLC5        0.0000 
     17 CA          5.0380   12.5540    0.3500 C.3       6 GLL5        0.0000 
     18 CA          7.6910   12.9040   -1.9170 C.3       4 GLP5        0.0000 
     19 CA          4.8640   11.2845    3.0330 C.3       2 GLC5        0.0000 
     20 CA          4.2260   11.3500    0.9030 C.3       6 GLL5        0.0000 
     21 CA          5.5020   11.2190    5.1630 C.3       4 GLP5        0.0000 
     22 CA          5.0400    9.6525    0.1225 C.3       2 GLC5        0.0000 
     23 CA          5.8540    7.9550   -0.6580 C.3       4 GLP5        0.0000 
     24 CA          3.0705   10.4915   -7.1840 C.3       2 GLC5        0.0000 
     25 CA          1.8650    9.5910   -6.1890 C.3       6 GLL5        0.0000 
     26 CA          4.2760   11.3920   -8.1790 C.3       4 GLP5        0.0000 
     27 CA          0.8530   10.7270   -7.5185 C.3       2 GLC5        0.0000 
     28 CA         -0.1590   11.8630   -8.8480 C.3       4 GLP5        0.0000 
     29 CA          1.2745    6.7220   -2.9605 C.3       2 GLC5        0.0000 
     30 CA          2.1100    7.9410   -4.1880 C.3       6 GLL5        0.0000 
     31 CA          0.4390    5.5030   -1.7330 C.3       4 GLP5        0.0000 
     32 CA         -0.0845   11.9330    0.1535 C.3       2 GLC5        0.0000 
     33 CA          1.4580   13.3210   -0.0700 C.3       6 GLL5        0.0000 
     34 CA         -1.6270   10.5450    0.3770 C.3       4 GLP5        0.0000 
     35 CA          1.1905   16.2195   -1.5905 C.3       2 GLC5        0.0000 
     36 CA          1.0110   14.4400   -1.0170 C.3       6 GLL5        0.0000 
     37 CA          1.3700   17.9990   -2.1640 C.3       4 GLP5        0.0000 
     38 CA          6.5700   11.7545    1.0737 C.3       2 GLC5        0.0000 
     39 CA          8.5080   11.5570    1.5210 C.3       4 GLP5        0.0000 
     40 CA          1.5925    7.8383   -1.9112 C.3       2 GLC5        0.0000 
     41 CA          1.6270    9.6410   -2.6440 C.3       6 GLL5        0.0000 
     42 CA          1.1120    6.3070   -0.8450 C.3       4 GLP5        0.0000 
     43 CA          1.9272   13.0622   -5.3027 C.3       2 GLC5        0.0000 
     44 CA          1.3000   11.3180   -4.5320 C.3       6 GLL5        0.0000 
     45 CA          2.0130   15.1100   -5.7440 C.3       4 GLP5        0.0000 
     46 CA          4.0040   11.9515   -4.1858 C.3       2 GLC5        0.0000 
     47 CA          2.3830   10.7110   -5.1910 C.3       6 GLL5        0.0000 
     48 CA          5.1830   13.4990   -3.7000 C.3       4 GLP5        0.0000 
     49 CA          4.0830   10.8785   -5.8733 C.3       2 GLC5        0.0000 
     50 CA          3.2670   10.0970   -4.1520 C.3       6 GLL5        0.0000 
     51 CA          5.3410   11.3530   -7.0750 C.3       4 GLP5        0.0000 
     52 CA          1.9992    8.2237   -7.5200 C.3       2 GLC5        0.0000 
     53 CA          2.4480    7.4140   -9.3030 C.3       4 GLP5        0.0000 
     54 CA          4.4974    8.7141   -3.4904 C.3       2 GLC5        0.0000 
     55 CA          6.2040    8.1200   -3.0300 C.3       4 GLP5        0.0000 
     56 CA         -1.0836   11.1569   -4.5602 C.3       2 GLC5        0.0000 
     57 CA         -2.6760   12.3960   -4.8420 C.3       4 GLP5        0.0000 
     58 CA          0.8187   14.4902    1.1318 C.3       2 GLC5        0.0000 
     59 CA          0.4030   15.1000    2.8070 C.3       4 GLP5        0.0000 
@<TRIPOS>BOND
@<TRIPOS>SUBSTRUCTURE
     1 SEC2        4 GROUP        1 X    SEC  0     ROOT SEC X 2
     2 GLC5        1 GROUP        1 X    GLC  0     **** GLC X 6
     3 SEP2        6 GROUP        1 Y    SEP  0     ROOT SEP Y 9
     4 GLP5        3 GROUP        1 Y    GLP  0     **** GLP Y 13
     5 SEL2        5 GROUP        1 Z    SEL  0     ROOT SEL Z 16
     6 GLL5        2 GROUP        1 Z    GLL  0     **** GLL Z 20
@<TRIPOS>SET

