#    Name: 3lz6_A0D_4_ligand
#    Modification time : Mon Mar 24 22:27:48 2014

@<TRIPOS>MOLECULE
3lz6_A0D_4_ligand
   49    52     1     0     0
SMALL
NO_CHARGES


@<TRIPOS>ATOM
      1 N1          2.3150   10.6550   -1.8700 N.am      1 A0D2007     0.0000 
      2 C2          2.6060   10.4210   -0.6510 C.2       1 A0D2007     0.0000 
      3 C3          3.0630   11.5800    0.2490 C.3       1 A0D2007     0.0000 
      4 O4          2.8130    9.2470   -0.2780 O.2       1 A0D2007     0.0000 
      5 N5          2.8960   12.9700   -0.3280 N.4       1 A0D2007     0.0000 
      6 C6          3.9450   13.6690    0.3550 C.3       1 A0D2007     0.0000 
      7 C7          5.0380   12.5540    0.3500 C.3       1 A0D2007     0.0000 
      8 C8          4.2260   11.3500    0.9030 C.3       1 A0D2007     0.0000 
      9 C9          0.5910   10.2210   -3.6040 C.3       1 A0D2007     0.0000 
     10 C10         1.6270    9.6410   -2.6440 C.3       1 A0D2007     0.0000 
     11 C11         1.3000   11.3180   -4.5320 C.3       1 A0D2007     0.0000 
     12 C12         2.3830   10.7110   -5.1910 C.3       1 A0D2007     0.0000 
     13 C13         1.8650    9.5910   -6.1890 C.3       1 A0D2007     0.0000 
     14 C14         1.2360    8.4760   -5.2850 C.3       1 A0D2007     0.0000 
     15 C15         2.1100    7.9410   -4.1880 C.3       1 A0D2007     0.0000 
     16 C16         2.5190    9.0980   -3.3110 C.3       1 A0D2007     0.0000 
     17 C17         3.2670   10.0970   -4.1520 C.3       1 A0D2007     0.0000 
     18 C18         0.0720    9.0660   -4.4890 C.3       1 A0D2007     0.0000 
     19 C19         1.4580   13.3210   -0.0700 C.3       1 A0D2007     0.0000 
     20 C20         1.0110   14.4400   -1.0170 C.3       1 A0D2007     0.0000 
     21 H           2.5331   11.5338   -2.3744 H         1 A0D2007     0.0000 
     22 H           2.2093   11.5610    1.0990 H         1 A0D2007     0.0000 
     23 H           3.0867   12.8733   -1.3737 H         1 A0D2007     0.0000 
     24 H           3.7108   13.8828    1.3584 H         1 A0D2007     0.0000 
     25 H           4.3190   14.4859   -0.1929 H         1 A0D2007     0.0000 
     26 H           5.7948   12.8065    1.0204 H         1 A0D2007     0.0000 
     27 H           5.3319   12.3602   -0.6308 H         1 A0D2007     0.0000 
     28 H           4.7424   10.4719    0.6054 H         1 A0D2007     0.0000 
     29 H           4.1804   11.4714    1.9564 H         1 A0D2007     0.0000 
     30 H          -0.1932   10.6680   -3.0860 H         1 A0D2007     0.0000 
     31 H           1.1000    8.9789   -1.9644 H         1 A0D2007     0.0000 
     32 H           1.5930   12.1239   -3.8633 H         1 A0D2007     0.0000 
     33 H           0.5260   11.6778   -5.2059 H         1 A0D2007     0.0000 
     34 H           2.9520   11.4100   -5.7712 H         1 A0D2007     0.0000 
     35 H           2.6911    9.1960   -6.7165 H         1 A0D2007     0.0000 
     36 H           1.1184   10.0071   -6.8104 H         1 A0D2007     0.0000 
     37 H           0.8556    7.6857   -5.8764 H         1 A0D2007     0.0000 
     38 H           2.9915    7.4786   -4.6126 H         1 A0D2007     0.0000 
     39 H           1.5608    7.2170   -3.6003 H         1 A0D2007     0.0000 
     40 H           3.3524    8.6534   -2.6489 H         1 A0D2007     0.0000 
     41 H           3.6732   10.8837   -3.5030 H         1 A0D2007     0.0000 
     42 H           4.1145    9.5971   -4.6388 H         1 A0D2007     0.0000 
     43 H          -0.6745    9.4514   -5.1684 H         1 A0D2007     0.0000 
     44 H          -0.3587    8.3037   -3.8558 H         1 A0D2007     0.0000 
     45 H           1.3358   13.6603    0.9565 H         1 A0D2007     0.0000 
     46 H           0.8269   12.4500   -0.2335 H         1 A0D2007     0.0000 
     47 H           1.5580   15.2685   -0.8973 H         1 A0D2007     0.0000 
     48 H           1.0941   14.1700   -1.9763 H         1 A0D2007     0.0000 
     49 H           0.0559   14.6950   -0.8659 H         1 A0D2007     0.0000 
@<TRIPOS>BOND
     1    2    1 am   
     2   10    1 1    
     3   21    1 1    
     4    3    2 1    
     5    4    2 2    
     6    5    3 1    
     7    8    3 1    
     8   22    3 1    
     9    6    5 1    
    10   19    5 1    
    11   23    5 1    
    12    7    6 1    
    13   24    6 1    
    14   25    6 1    
    15    8    7 1    
    16   26    7 1    
    17   27    7 1    
    18   28    8 1    
    19   29    8 1    
    20   10    9 1    
    21   11    9 1    
    22   18    9 1    
    23   30    9 1    
    24   16   10 1    
    25   31   10 1    
    26   12   11 1    
    27   32   11 1    
    28   33   11 1    
    29   13   12 1    
    30   17   12 1    
    31   34   12 1    
    32   14   13 1    
    33   35   13 1    
    34   36   13 1    
    35   15   14 1    
    36   18   14 1    
    37   37   14 1    
    38   16   15 1    
    39   38   15 1    
    40   39   15 1    
    41   17   16 1    
    42   40   16 1    
    43   41   17 1    
    44   42   17 1    
    45   43   18 1    
    46   44   18 1    
    47   20   19 1    
    48   45   19 1    
    49   46   19 1    
    50   47   20 1    
    51   48   20 1    
    52   49   20 1    
@<TRIPOS>SUBSTRUCTURE
     1 A0D2007     1 GROUP   
@<TRIPOS>SET

