#    Name: 3r83_Z14_1_INTS_M
#    Modification time : Tue Mar 25 11:14:26 2014

@<TRIPOS>MOLECULE
3r83_Z14_1_INTS_M
   66     0     9     0     0
SMALL
NO_CHARGES


@<TRIPOS>ATOM
      1 O         -77.3625  103.8000    6.4195 O.2       1 ALC1        0.0000 
      2 O         -78.2500  102.9630    7.3090 O.2       7 ALL1        0.0000 
      3 O         -76.4750  104.6370    5.5300 O.2       4 ALP1        0.0000 
      4 O         -81.3765  107.0795    6.8555 O.2       1 ALC1        0.0000 
      5 O         -81.3430  105.7040    7.5340 O.2       7 ALL1        0.0000 
      6 O         -81.4100  108.4550    6.1770 O.2       4 ALP1        0.0000 
      7 N         -76.1720   97.6005    7.5395 N.am      2 SEC2        0.0000 
      8 N         -76.2700   98.7360    6.3040 N.am      8 SEL2        0.0000 
      9 N         -76.0740   96.4650    8.7750 N.am      5 SEP2        0.0000 
     10 O         -82.8225   95.2805   11.1650 O.2       1 ALC1        0.0000 
     11 O         -81.3590   95.8790   11.5400 O.2       7 ALL1        0.0000 
     12 O         -84.2860   94.6820   10.7900 O.2       4 ALP1        0.0000 
     13 O         -76.9410   97.8400    2.6790 O.2       1 ALC1        0.0000 
     14 O         -76.2590   97.9640    4.1870 O.2       7 ALL1        0.0000 
     15 O         -77.6230   97.7160    1.1710 O.2       4 ALP1        0.0000 
     16 CA        -78.7355  102.5150    9.8545 C.3       3 GLC5        0.0000 
     17 CA        -79.5690  101.2840    8.4340 C.3       9 GLL5        0.0000 
     18 CA        -77.9020  103.7460   11.2750 C.3       6 GLP5        0.0000 
     19 CA        -77.4125  103.0215    9.4270 C.3       3 GLC5        0.0000 
     20 CA        -76.9230  102.2970    7.5790 C.3       9 GLL5        0.0000 
     21 CA        -75.6645   97.7930    7.6510 C.3       3 GLC5        0.0000 
     22 CA        -76.4380   99.8310    7.1170 C.3       9 GLL5        0.0000 
     23 CA        -74.8910   95.7550    8.1850 C.3       6 GLP5        0.0000 
     24 CA        -78.2815   99.1370    5.2520 C.3       3 GLC5        0.0000 
     25 CA        -76.4050   98.9610    4.9650 C.3       9 GLL5        0.0000 
     26 CA        -80.1580   99.3130    5.5390 C.3       6 GLP5        0.0000 
     27 CA        -75.3370  102.7365    4.9610 C.3       3 GLC5        0.0000 
     28 CA        -76.8420  101.2270    5.2540 C.3       9 GLL5        0.0000 
     29 CA        -73.8320  104.2460    4.6680 C.3       6 GLP5        0.0000 
     30 CA        -81.0105   98.9710    7.2635 C.3       3 GLC5        0.0000 
     31 CA        -81.8630   98.6290    8.9880 C.3       9 GLL5        0.0000 
     32 CA        -83.7900   98.9785    8.2460 C.3       3 GLC5        0.0000 
     33 CA        -85.7170   99.3280    7.5040 C.3       6 GLP5        0.0000 
     34 CA        -84.1750   97.0920   10.6355 C.3       3 GLC5        0.0000 
     35 CA        -82.2330   97.5270    9.9910 C.3       9 GLL5        0.0000 
     36 CA        -86.1170   96.6570   11.2800 C.3       6 GLP5        0.0000 
     37 CA        -77.7580   99.9035   11.0360 C.3       3 GLC5        0.0000 
     38 CA        -79.7620   99.1510   10.4520 C.3       9 GLL5        0.0000 
     39 CA        -75.7540  100.6560   11.6200 C.3       6 GLP5        0.0000 
     40 CA        -79.5755   97.9580   13.3375 C.3       3 GLC5        0.0000 
     41 CA        -80.1900   98.0000   11.3740 C.3       9 GLL5        0.0000 
     42 CA        -78.9610   97.9160   15.3010 C.3       6 GLP5        0.0000 
     43 N         -78.6425  105.9965    5.8250 N.am      2 SEC2        0.0000 
     44 N         -79.6950  104.9480    6.2270 N.am      8 SEL2        0.0000 
     45 N         -77.5900  107.0450    5.4230 N.am      5 SEP2        0.0000 
     46 N         -83.2695  101.9060   11.1015 N.am      2 SEC2        0.0000 
     47 N         -83.3080  100.6740   10.4230 N.am      8 SEL2        0.0000 
     48 N         -83.2310  103.1380   11.7800 N.am      5 SEP2        0.0000 
     49 N         -83.7260  102.5910   10.3390 N.am      2 SEC2        0.0000 
     50 N         -84.2210  102.0440    8.8980 N.am      8 SEL2        0.0000 
     51 CA        -83.2278  101.6003    7.2138 C.3       3 GLC5        0.0000 
     52 CA        -81.9700  101.7410    8.9190 C.3       9 GLL5        0.0000 
     53 CA        -84.5710  100.8220    5.8250 C.3       6 GLP5        0.0000 
     54 CA        -82.2103  104.1245    6.3792 C.3       3 GLC5        0.0000 
     55 CA        -81.7990  103.0160    8.2860 C.3       9 GLL5        0.0000 
     56 CA        -83.2450  105.0180    4.7500 C.3       6 GLP5        0.0000 
     57 CA        -79.6941  104.2785    9.0464 C.3       3 GLC5        0.0000 
     58 CA        -79.4090  102.5750    7.8110 C.3       9 GLL5        0.0000 
     59 CA        -79.0960  105.6540   10.1830 C.3       6 GLP5        0.0000 
     60 CA        -80.1545  100.3474    7.0469 C.3       3 GLC5        0.0000 
     61 CA        -74.9006  101.5156    7.4986 C.3       3 GLC5        0.0000 
     62 CA        -76.7300  101.1180    6.6440 C.3       9 GLL5        0.0000 
     63 CA        -73.1690  102.2620    7.8830 C.3       6 GLP5        0.0000 
     64 CA        -78.4355  100.0819    5.8031 C.3       3 GLC5        0.0000 
     65 CA        -82.0975   96.6735    7.9062 C.3       3 GLC5        0.0000 
     66 CA        -82.1470   95.2690    6.3230 C.3       6 GLP5        0.0000 
@<TRIPOS>BOND
@<TRIPOS>SUBSTRUCTURE
     1 ALC1        1 GROUP        1 X    ALC  0     ROOT ALC X 1
     2 SEC2        7 GROUP        1 X    SEC  0     **** SEC X 2
     3 GLC5       16 GROUP        1 X    GLC  0     **** GLC X 6
     4 ALP1        3 GROUP        1 Y    ALP  0     ROOT ALP Y 8
     5 SEP2        9 GROUP        1 Y    SEP  0     **** SEP Y 9
     6 GLP5       18 GROUP        1 Y    GLP  0     **** GLP Y 13
     7 ALL1        2 GROUP        1 Z    ALL  0     ROOT ALL Z 15
     8 SEL2        8 GROUP        1 Z    SEL  0     **** SEL Z 16
     9 GLL5       17 GROUP        1 Z    GLL  0     **** GLL Z 20
@<TRIPOS>SET

