#    Name: 3r83_Z14_1_ligand
#    Modification time : Tue Mar 25 11:14:26 2014

@<TRIPOS>MOLECULE
3r83_Z14_1_ligand
   51    53     1     0     0
SMALL
NO_CHARGES


@<TRIPOS>ATOM
      1 N01       -78.2500  102.9630    7.3090 N.pl3     1 Z14589      0.0000 
      2 N02       -81.3430  105.7040    7.5340 N.am      1 Z14589      0.0000 
      3 N03       -76.2700   98.7360    6.3040 N.ar      1 Z14589      0.0000 
      4 N04       -76.6850  100.1690    4.3930 N.ar      1 Z14589      0.0000 
      5 N05       -80.8410   99.6130    9.5140 N.3       1 Z14589      0.0000 
      6 N06       -81.3590   95.8790   11.5400 N.4       1 Z14589      0.0000 
      7 N07       -76.2590   97.9640    4.1870 N.pl3     1 Z14589      0.0000 
      8 N08       -83.1490  101.4630    9.3950 N.pl3     1 Z14589      0.0000 
      9 C09       -81.7990  103.0160    8.2860 C.ar      1 Z14589      0.0000 
     10 C10       -80.5520  103.4460    7.7310 C.ar      1 Z14589      0.0000 
     11 C11       -79.4090  102.5750    7.8110 C.ar      1 Z14589      0.0000 
     12 C12       -79.5690  101.2840    8.4340 C.ar      1 Z14589      0.0000 
     13 C13       -80.8130  100.8340    8.9870 C.ar      1 Z14589      0.0000 
     14 C14       -81.9700  101.7410    8.9190 C.ar      1 Z14589      0.0000 
     15 C15       -80.4880  104.7060    7.1300 C.2       1 Z14589      0.0000 
     16 C16       -76.9230  102.2970    7.5790 C.3       1 Z14589      0.0000 
     17 C17       -76.7300  101.1180    6.6440 C.ar      1 Z14589      0.0000 
     18 C18       -76.4380   99.8310    7.1170 C.ar      1 Z14589      0.0000 
     19 C19       -76.4050   98.9610    4.9650 C.ar      1 Z14589      0.0000 
     20 C20       -76.8420  101.2270    5.2540 C.ar      1 Z14589      0.0000 
     21 C21       -81.8630   98.6290    8.9880 C.3       1 Z14589      0.0000 
     22 C22       -82.2330   97.5270    9.9910 C.3       1 Z14589      0.0000 
     23 C23       -79.7620   99.1510   10.4520 C.3       1 Z14589      0.0000 
     24 C24       -80.1900   98.0000   11.3740 C.3       1 Z14589      0.0000 
     25 C25       -80.9730   96.9280   10.6100 C.3       1 Z14589      0.0000 
     26 O26       -79.6950  104.9480    6.2270 O.2       1 Z14589      0.0000 
     27 O27       -83.3080  100.6740   10.4230 O.2       1 Z14589      0.0000 
     28 O28       -84.2210  102.0440    8.8980 O.2       1 Z14589      0.0000 
     29 H         -78.1683  103.7965    6.6602 H         1 Z14589      0.0000 
     30 H         -81.9741  105.4701    8.2736 H         1 Z14589      0.0000 
     31 H         -81.2592  106.5767    7.0530 H         1 Z14589      0.0000 
     32 H         -76.7592   98.0039    3.3219 H         1 Z14589      0.0000 
     33 H         -75.6580   97.2348    4.5142 H         1 Z14589      0.0000 
     34 H         -82.6134  103.6522    8.2285 H         1 Z14589      0.0000 
     35 H         -78.7479  100.6576    8.4822 H         1 Z14589      0.0000 
     36 H         -76.8927  101.9472    8.6100 H         1 Z14589      0.0000 
     37 H         -76.1168  103.0132    7.4261 H         1 Z14589      0.0000 
     38 H         -76.3438   99.7074    8.1621 H         1 Z14589      0.0000 
     39 H         -77.0595  102.1798    4.8552 H         1 Z14589      0.0000 
     40 H         -81.4761   98.1535    8.0721 H         1 Z14589      0.0000 
     41 H         -82.7814   99.1697    8.7071 H         1 Z14589      0.0000 
     42 H         -82.7881   96.7488    9.4754 H         1 Z14589      0.0000 
     43 H         -82.8537   97.9528   10.7740 H         1 Z14589      0.0000 
     44 H         -79.4309   99.9954   11.0815 H         1 Z14589      0.0000 
     45 H         -78.8818   98.8225    9.8721 H         1 Z14589      0.0000 
     46 H         -80.8143   98.3983   12.1747 H         1 Z14589      0.0000 
     47 H         -79.3012   97.5485   11.8163 H         1 Z14589      0.0000 
     48 H         -80.3538   96.5381    9.8312 H         1 Z14589      0.0000 
     49 H         -81.5016   96.2354   12.4634 H         1 Z14589      0.0000 
     50 H         -82.2099   95.4322   11.2635 H         1 Z14589      0.0000 
     51 H         -80.6613   95.1656   11.6056 H         1 Z14589      0.0000 
@<TRIPOS>BOND
     1   11    1 1    
     2   16    1 1    
     3   29    1 1    
     4   15    2 am   
     5   30    2 1    
     6   31    2 1    
     7   18    3 ar   
     8   19    3 ar   
     9   19    4 ar   
    10   20    4 ar   
    11   13    5 1    
    12   21    5 1    
    13   23    5 1    
    14   25    6 1    
    15   49    6 1    
    16   50    6 1    
    17   51    6 1    
    18   19    7 1    
    19   32    7 1    
    20   33    7 1    
    21   14    8 1    
    22   27    8 2    
    23   28    8 2    
    24   10    9 ar   
    25   14    9 ar   
    26   34    9 1    
    27   11   10 ar   
    28   15   10 1    
    29   12   11 ar   
    30   13   12 ar   
    31   35   12 1    
    32   14   13 ar   
    33   26   15 2    
    34   17   16 1    
    35   36   16 1    
    36   37   16 1    
    37   18   17 ar   
    38   20   17 ar   
    39   38   18 1    
    40   39   20 1    
    41   22   21 1    
    42   40   21 1    
    43   41   21 1    
    44   25   22 1    
    45   42   22 1    
    46   43   22 1    
    47   24   23 1    
    48   44   23 1    
    49   45   23 1    
    50   25   24 1    
    51   46   24 1    
    52   47   24 1    
    53   48   25 1    
@<TRIPOS>SUBSTRUCTURE
     1 Z14589      1 GROUP   
@<TRIPOS>SET

