#    Name: 1x78_244_2_INTS_M
#    Modification time : Tue Mar 25 09:35:54 2014

@<TRIPOS>MOLECULE
1x78_244_2_INTS_M
   70     0     9     0     0
SMALL
NO_CHARGES


@<TRIPOS>ATOM
      1 CA         28.0000   26.1400   13.8575 C.3       3 GLC5        0.0000 
      2 CA         28.2850   27.2080   11.9600 C.3       9 GLL5        0.0000 
      3 CA         27.7150   25.0720   15.7550 C.3       6 GLP5        0.0000 
      4 CA         29.6705   26.3890   13.1675 C.3       3 GLC5        0.0000 
      5 CA         31.0560   25.5700   14.3750 C.3       6 GLP5        0.0000 
      6 CA         26.8145   26.4445    9.1050 C.3       3 GLC5        0.0000 
      7 CA         26.2950   27.9480   10.6910 C.3       9 GLL5        0.0000 
      8 CA         27.3340   24.9410    7.5190 C.3       6 GLP5        0.0000 
      9 CA         30.2415   29.6385    9.8415 C.3       3 GLC5        0.0000 
     10 CA         28.5630   28.4540    9.8170 C.3       9 GLL5        0.0000 
     11 CA         31.9200   30.8230    9.8660 C.3       6 GLP5        0.0000 
     12 CA         30.1585   29.3525   11.6160 C.3       3 GLC5        0.0000 
     13 CA         29.1350   27.7900   10.9600 C.3       9 GLL5        0.0000 
     14 CA         31.1820   30.9150   12.2720 C.3       6 GLP5        0.0000 
     15 CA         26.0830   30.9250    7.3975 C.3       3 GLC5        0.0000 
     16 CA         26.2950   29.1110    8.6900 C.3       9 GLL5        0.0000 
     17 CA         25.8710   32.7390    6.1050 C.3       6 GLP5        0.0000 
     18 O          30.8270   26.7510   12.0640 O.2       1 ALC1        0.0000 
     19 O          30.5100   27.7100   11.1100 O.2       7 ALL1        0.0000 
     20 O          31.1440   25.7920   13.0180 O.2       4 ALP1        0.0000 
     21 CA         26.6630   24.2340   12.2600 C.3       3 GLC5        0.0000 
     22 CA         25.0670   25.6260   12.3270 C.3       9 GLL5        0.0000 
     23 CA         28.2590   22.8420   12.1930 C.3       6 GLP5        0.0000 
     24 CA         24.9610   23.8290   11.4140 C.3       3 GLC5        0.0000 
     25 CA         24.8550   22.0320   10.5010 C.3       6 GLP5        0.0000 
     26 CA         23.1945   25.1315   12.6965 C.3       3 GLC5        0.0000 
     27 CA         21.3220   24.6370   13.0660 C.3       6 GLP5        0.0000 
     28 CA         21.6655   29.2730   11.2350 C.3       3 GLC5        0.0000 
     29 CA         22.4690   29.0610    9.2010 C.3       9 GLL5        0.0000 
     30 CA         20.8620   29.4850   13.2690 C.3       6 GLP5        0.0000 
     31 CA         19.9565   29.7805   10.3555 C.3       3 GLC5        0.0000 
     32 CA         21.2270   29.4240    8.5870 C.3       9 GLL5        0.0000 
     33 CA         18.6860   30.1370   12.1240 C.3       6 GLP5        0.0000 
     34 CA         19.5225   28.4310    8.8340 C.3       3 GLC5        0.0000 
     35 CA         17.8180   27.4380    9.0810 C.3       6 GLP5        0.0000 
     36 CA         23.7150   31.5960    5.7265 C.3       3 GLC5        0.0000 
     37 CA         22.4620   30.1260    6.5390 C.3       9 GLL5        0.0000 
     38 CA         24.9680   33.0660    4.9140 C.3       6 GLP5        0.0000 
     39 CA         22.7585   32.0150    7.6700 C.3       3 GLC5        0.0000 
     40 CA         23.0550   33.9040    8.8010 C.3       6 GLP5        0.0000 
     41 CA         24.7865   31.2510    6.6280 C.3       3 GLC5        0.0000 
     42 CA         23.7020   29.7630    7.1510 C.3       9 GLL5        0.0000 
     43 N          18.9040   29.6845    6.0550 N.am      2 SEC2        0.0000 
     44 N          20.0390   30.3050    6.6700 N.am      8 SEL2        0.0000 
     45 N          17.7690   29.0640    5.4400 N.am      5 SEP2        0.0000 
     46 O          20.3515   31.0490    5.6865 O.2       1 ALC1        0.0000 
     47 O          20.0390   30.3050    6.6700 O.2       7 ALL1        0.0000 
     48 O          20.6640   31.7930    4.7030 O.2       4 ALP1        0.0000 
     49 CA         26.2890   29.6445   11.6640 C.3       3 GLC5        0.0000 
     50 CA         26.8590   27.2920   11.8130 C.3       9 GLL5        0.0000 
     51 CA         26.0010   31.6690   12.0760 C.3       6 GLP5        0.0000 
     52 CA         26.3588   30.2473   10.6275 C.3       3 GLC5        0.0000 
     53 CA         27.1380   28.5400    9.6680 C.3       9 GLL5        0.0000 
     54 CA         28.3703   25.4410   11.1071 C.3       3 GLC5        0.0000 
     55 CA         28.3870   23.3620   10.7910 C.3       6 GLP5        0.0000 
     56 CA         27.3209   27.8165    7.5621 C.3       3 GLC5        0.0000 
     57 CA         27.5690   26.8290    5.9080 C.3       6 GLP5        0.0000 
     58 CA         24.9725   25.5345   14.0482 C.3       3 GLC5        0.0000 
     59 CA         25.9570   26.6760   12.8780 C.3       9 GLL5        0.0000 
     60 CA         24.4330   24.9180   15.4940 C.3       6 GLP5        0.0000 
     61 CA         26.8783   27.8985   14.0361 C.3       3 GLC5        0.0000 
     62 CA         26.9920   28.8340   15.6900 C.3       6 GLP5        0.0000 
     63 CA         23.8256   30.2594   10.6639 C.3       3 GLC5        0.0000 
     64 CA         25.0000   28.8330    9.1710 C.3       9 GLL5        0.0000 
     65 CA         24.2380   31.4730   12.3120 C.3       6 GLP5        0.0000 
     66 CA         21.2120   31.3076    8.8637 C.3       3 GLC5        0.0000 
     67 CA         21.2340   29.9540    7.2610 C.3       9 GLL5        0.0000 
     68 CA         20.8830   33.0170    9.6500 C.3       6 GLP5        0.0000 
     69 CA         22.4795   29.1768    5.0998 C.3       3 GLC5        0.0000 
     70 CA         22.1840   28.4520    3.1740 C.3       6 GLP5        0.0000 
@<TRIPOS>BOND
@<TRIPOS>SUBSTRUCTURE
     1 ALC1       18 GROUP        1 X    ALC  0     ROOT ALC X 1
     2 SEC2       43 GROUP        1 X    SEC  0     **** SEC X 2
     3 GLC5        1 GROUP        1 X    GLC  0     **** GLC X 6
     4 ALP1       20 GROUP        1 Y    ALP  0     ROOT ALP Y 8
     5 SEP2       45 GROUP        1 Y    SEP  0     **** SEP Y 9
     6 GLP5        3 GROUP        1 Y    GLP  0     **** GLP Y 13
     7 ALL1       19 GROUP        1 Z    ALL  0     ROOT ALL Z 15
     8 SEL2       44 GROUP        1 Z    SEL  0     **** SEL Z 16
     9 GLL5        2 GROUP        1 Z    GLL  0     **** GLL Z 20
@<TRIPOS>SET

