#    Name: 1x78_244_2_ligand
#    Modification time : Tue Mar 25 09:35:54 2014

@<TRIPOS>MOLECULE
1x78_244_2_ligand
   31    33     1     0     0
SMALL
NO_CHARGES


@<TRIPOS>ATOM
      1 C1         28.2850   27.2080   11.9600 C.ar      1 244202      0.0000 
      2 C2         26.8590   27.2920   11.8130 C.ar      1 244202      0.0000 
      3 C3         26.2950   27.9480   10.6910 C.ar      1 244202      0.0000 
      4 C4         27.1380   28.5400    9.6680 C.ar      1 244202      0.0000 
      5 C5         28.5630   28.4540    9.8170 C.ar      1 244202      0.0000 
      6 C6         29.1350   27.7900   10.9600 C.ar      1 244202      0.0000 
      7 O9         24.9910   28.1510   10.3440 O.3       1 244202      0.0000 
      8 C10        25.0000   28.8330    9.1710 C.2       1 244202      0.0000 
      9 C11        26.2950   29.1110    8.6900 C.2       1 244202      0.0000 
     10 O12        30.5100   27.7100   11.1100 O.3       1 244202      0.0000 
     11 C13        25.9570   26.6760   12.8780 C.3       1 244202      0.0000 
     12 C14        25.0670   25.6260   12.3270 C.1       1 244202      0.0000 
     13 N17        24.3690   24.8340   11.8480 N.1       1 244202      0.0000 
     14 C18        23.7150   29.2280    8.4900 C.ar      1 244202      0.0000 
     15 C19        22.4690   29.0610    9.2010 C.ar      1 244202      0.0000 
     16 C20        21.2270   29.4240    8.5870 C.ar      1 244202      0.0000 
     17 C21        21.2340   29.9540    7.2610 C.ar      1 244202      0.0000 
     18 C22        22.4620   30.1260    6.5390 C.ar      1 244202      0.0000 
     19 C23        23.7020   29.7630    7.1510 C.ar      1 244202      0.0000 
     20 O28        20.0390   30.3050    6.6700 O.3       1 244202      0.0000 
     21 H          28.6869   26.7428   12.7611 H         1 244202      0.0000 
     22 H          29.1718   28.8620    9.1154 H         1 244202      0.0000 
     23 H          26.5326   29.5524    7.9314 H         1 244202      0.0000 
     24 H          25.3579   27.4795   13.3336 H         1 244202      0.0000 
     25 H          26.5933   26.2550   13.6717 H         1 244202      0.0000 
     26 H          22.4791   28.6826   10.1440 H         1 244202      0.0000 
     27 H          20.3582   29.3059    9.0871 H         1 244202      0.0000 
     28 H          22.4480   30.5034    5.5994 H         1 244202      0.0000 
     29 H          24.5740   29.8795    6.6488 H         1 244202      0.0000 
     30 H          30.6535   27.0122   11.8118 H         1 244202      0.0000 
     31 H          20.2138   31.1902    6.2389 H         1 244202      0.0000 
@<TRIPOS>BOND
     1    2    1 ar   
     2    6    1 ar   
     3   21    1 1    
     4    3    2 ar   
     5   11    2 1    
     6    4    3 ar   
     7    7    3 1    
     8    5    4 ar   
     9    9    4 1    
    10    6    5 ar   
    11   22    5 1    
    12   10    6 1    
    13    8    7 1    
    14    9    8 2    
    15   14    8 1    
    16   23    9 1    
    17   30   10 1    
    18   12   11 1    
    19   24   11 1    
    20   25   11 1    
    21   13   12 3    
    22   15   14 ar   
    23   19   14 ar   
    24   16   15 ar   
    25   26   15 1    
    26   17   16 ar   
    27   27   16 1    
    28   18   17 ar   
    29   20   17 1    
    30   19   18 ar   
    31   28   18 1    
    32   29   19 1    
    33   31   20 1    
@<TRIPOS>SUBSTRUCTURE
     1 244202      1 GROUP   
@<TRIPOS>SET

