#    Name: 2e1q_MTE_1_INTS_M
#    Modification time : Mon Apr  7 17:34:07 2014

@<TRIPOS>MOLECULE
2e1q_MTE_1_INTS_M
   56     0     9     0     0
SMALL
NO_CHARGES


@<TRIPOS>ATOM
      1 N          34.2410   10.6970  155.6285 N.am      2 SEC2        0.0000 
      2 N          35.5440   11.5180  155.1660 N.am      8 SEL2        0.0000 
      3 N          32.9380    9.8760  156.0910 N.am      5 SEP2        0.0000 
      4 O          35.9650    9.1660  156.4925 O.2       1 ALC1        0.0000 
      5 O          36.5440   10.2750  156.8890 O.2       7 ALL1        0.0000 
      6 O          35.3860    8.0570  156.0960 O.2       4 ALP1        0.0000 
      7 N          37.3515   15.8960  157.6040 N.am      2 SEC2        0.0000 
      8 N          37.1030   15.0180  156.6620 N.am      8 SEL2        0.0000 
      9 N          37.6000   16.7740  158.5460 N.am      5 SEP2        0.0000 
     10 N          36.2755   16.3165  156.7665 N.am      2 SEC2        0.0000 
     11 N          35.4480   17.6150  156.8710 N.am      5 SEP2        0.0000 
     12 CA         33.1710   13.1410  150.8690 C.3       3 GLC5        0.0000 
     13 CA         34.0930   13.7840  152.5010 C.3       9 GLL5        0.0000 
     14 CA         32.2490   12.4980  149.2370 C.3       6 GLP5        0.0000 
     15 O          34.3195   11.4600  152.4775 O.2       1 ALC1        0.0000 
     16 O          34.4080   12.5980  153.2720 O.2       7 ALL1        0.0000 
     17 O          34.2310   10.3220  151.6830 O.2       4 ALP1        0.0000 
     18 CA         34.9260   15.8795  155.7350 C.3       3 GLC5        0.0000 
     19 CA         35.8040   14.0050  154.9890 C.3       9 GLL5        0.0000 
     20 CA         34.0480   17.7540  156.4810 C.3       6 GLP5        0.0000 
     21 CA         37.1680   15.1790  154.6085 C.3       3 GLC5        0.0000 
     22 CA         38.5320   16.3530  154.2280 C.3       6 GLP5        0.0000 
     23 CA         36.6075   11.9530  153.1205 C.3       3 GLC5        0.0000 
     24 CA         35.1980   12.6070  154.4210 C.3       9 GLL5        0.0000 
     25 CA         38.0170   11.2990  151.8200 C.3       6 GLP5        0.0000 
     26 CA         31.8475   16.0710  152.9865 C.3       3 GLC5        0.0000 
     27 CA         33.7640   16.3410  152.4660 C.3       9 GLL5        0.0000 
     28 CA         29.9310   15.8010  153.5070 C.3       6 GLP5        0.0000 
     29 CA         33.4725   17.6530  154.8325 C.3       3 GLC5        0.0000 
     30 CA         32.8970   17.5520  153.1840 C.3       9 GLL5        0.0000 
     31 CA         31.3060   17.9505  153.4405 C.3       3 GLC5        0.0000 
     32 CA         29.7150   18.3490  153.6970 C.3       6 GLP5        0.0000 
     33 CA         35.1860   18.8970  149.4875 C.3       3 GLC5        0.0000 
     34 CA         33.9610   17.6200  150.0580 C.3       9 GLL5        0.0000 
     35 CA         36.4110   20.1740  148.9170 C.3       6 GLP5        0.0000 
     36 CA         33.6335   18.7390  148.4090 C.3       3 GLC5        0.0000 
     37 CA         33.3060   19.8580  146.7600 C.3       6 GLP5        0.0000 
     38 CA         34.0185   16.8835  148.1950 C.3       3 GLC5        0.0000 
     39 CA         34.0760   16.1470  146.3320 C.3       6 GLP5        0.0000 
     40 CA         33.6810   13.7485  149.9025 C.3       3 GLC5        0.0000 
     41 CA         35.1130   14.9990  150.5680 C.3       9 GLL5        0.0000 
     42 CA         37.8185   16.2360  151.4995 C.3       3 GLC5        0.0000 
     43 CA         36.3430   15.6230  150.2730 C.3       9 GLL5        0.0000 
     44 CA         39.2940   16.8490  152.7260 C.3       6 GLP5        0.0000 
     45 N          37.7380   16.2830  146.0815 N.am      2 SEC2        0.0000 
     46 N          37.2580   16.0110  147.6320 N.am      8 SEL2        0.0000 
     47 N          38.2180   16.5550  144.5310 N.am      5 SEP2        0.0000 
     48 N          38.2935   16.7685  147.2275 N.am      2 SEC2        0.0000 
     49 N          39.3290   17.5260  146.8230 N.am      5 SEP2        0.0000 
     50 CA         33.9715   16.7733  154.6887 C.3       3 GLC5        0.0000 
     51 CA         32.1232   14.5490  153.6375 C.3       3 GLC5        0.0000 
     52 CA         34.0260   15.2440  153.3270 C.3       9 GLL5        0.0000 
     53 CA         30.1870   14.5840  154.3610 C.3       6 GLP5        0.0000 
     54 CA         31.8332   16.9097  151.2630 C.3       3 GLC5        0.0000 
     55 CA         30.3360   16.8730  149.7010 C.3       6 GLP5        0.0000 
     56 CA         32.2323   16.9043  150.1358 C.3       3 GLC5        0.0000 
@<TRIPOS>BOND
@<TRIPOS>SUBSTRUCTURE
     1 ALC1        4 GROUP        1 X    ALC  0     ROOT ALC X 1
     2 SEC2        1 GROUP        1 X    SEC  0     **** SEC X 2
     3 GLC5       12 GROUP        1 X    GLC  0     **** GLC X 6
     4 ALP1        6 GROUP        1 Y    ALP  0     ROOT ALP Y 8
     5 SEP2        3 GROUP        1 Y    SEP  0     **** SEP Y 9
     6 GLP5       14 GROUP        1 Y    GLP  0     **** GLP Y 13
     7 ALL1        5 GROUP        1 Z    ALL  0     ROOT ALL Z 15
     8 SEL2        2 GROUP        1 Z    SEL  0     **** SEL Z 16
     9 GLL5       13 GROUP        1 Z    GLL  0     **** GLL Z 20
@<TRIPOS>SET

