#    Name: 2e1q_MTE_1_ligand
#    Modification time : Mon Apr  7 17:34:07 2014

@<TRIPOS>MOLECULE
2e1q_MTE_1_ligand
   34    36     1     0     0
SMALL
NO_CHARGES


@<TRIPOS>ATOM
      1 N1         35.5440   11.5180  155.1660 N.2       1 MTE2004     0.0000 
      2 C2         36.3410   11.4890  156.3280 C.2       1 MTE2004     0.0000 
      3 N2         36.5440   10.2750  156.8890 N.pl3     1 MTE2004     0.0000 
      4 N3         36.8530   12.6450  156.8160 N.am      1 MTE2004     0.0000 
      5 C4         36.6280   13.8860  156.2170 C.2       1 MTE2004     0.0000 
      6 O4         37.1030   15.0180  156.6620 O.2       1 MTE2004     0.0000 
      7 N5         35.3810   15.4340  154.2160 N.pl3     1 MTE2004     0.0000 
      8 C6         34.0260   15.2440  153.3270 C.3       1 MTE2004     0.0000 
      9 C7         34.0930   13.7840  152.5010 C.3       1 MTE2004     0.0000 
     10 N8         34.4080   12.5980  153.2720 N.pl3     1 MTE2004     0.0000 
     11 C9         35.8040   14.0050  154.9890 C.2       1 MTE2004     0.0000 
     12 C10        35.1980   12.6070  154.4210 C.2       1 MTE2004     0.0000 
     13 C1'        33.7640   16.3410  152.4660 C.2       1 MTE2004     0.0000 
     14 S1'        32.8970   17.5520  153.1840 S.3       1 MTE2004     0.0000 
     15 C2'        34.2960   16.2510  151.0830 C.2       1 MTE2004     0.0000 
     16 S2'        33.9610   17.6200  150.0580 S.3       1 MTE2004     0.0000 
     17 C3'        35.1130   14.9990  150.5680 C.3       1 MTE2004     0.0000 
     18 O3'        35.1560   13.9080  151.5210 O.3       1 MTE2004     0.0000 
     19 C4'        36.3430   15.6230  150.2730 C.3       1 MTE2004     0.0000 
     20 O4'        37.1880   14.6680  149.6130 O.3       1 MTE2004     0.0000 
     21 P          37.3790   14.5790  148.2390 P.3       1 MTE2004     0.0000 
     22 O1P        37.2580   16.0110  147.6320 O.co2     1 MTE2004     0.0000 
     23 O2P        36.4150   13.6440  147.6080 O.co2     1 MTE2004     0.0000 
     24 O3P        38.6300   14.1020  147.9700 O.co2     1 MTE2004     0.0000 
     25 H          37.1414   10.2551  157.6907 H         1 MTE2004     0.0000 
     26 H          36.0787    9.5051  156.4523 H         1 MTE2004     0.0000 
     27 H          37.4490   12.6245  157.6844 H         1 MTE2004     0.0000 
     28 H          35.8397   16.1670  154.2943 H         1 MTE2004     0.0000 
     29 H          33.2194   15.0879  154.0639 H         1 MTE2004     0.0000 
     30 H          33.1493   13.7032  151.9898 H         1 MTE2004     0.0000 
     31 H          34.0095   11.6943  152.9288 H         1 MTE2004     0.0000 
     32 H          34.6119   14.7215  149.6409 H         1 MTE2004     0.0000 
     33 H          36.8320   15.9826  151.1931 H         1 MTE2004     0.0000 
     34 H          36.1926   16.5012  149.6240 H         1 MTE2004     0.0000 
@<TRIPOS>BOND
     1    2    1 2    
     2   12    1 1    
     3    3    2 1    
     4    4    2 1    
     5   25    3 1    
     6   26    3 1    
     7    5    4 am   
     8   27    4 1    
     9    6    5 2    
    10   11    5 1    
    11    8    7 1    
    12   11    7 1    
    13   28    7 1    
    14    9    8 1    
    15   13    8 1    
    16   29    8 1    
    17   10    9 1    
    18   18    9 1    
    19   30    9 1    
    20   12   10 1    
    21   31   10 1    
    22   12   11 2    
    23   14   13 1    
    24   15   13 2    
    25   16   15 1    
    26   17   15 1    
    27   18   17 1    
    28   19   17 1    
    29   32   17 1    
    30   20   19 1    
    31   33   19 1    
    32   34   19 1    
    33   21   20 1    
    34   22   21 ar   
    35   23   21 ar   
    36   24   21 ar   
@<TRIPOS>SUBSTRUCTURE
     1 MTE2004     1 GROUP   
@<TRIPOS>SET

