#    Name: 3wd1_ST7_1_INTS_M
#    Modification time : Tue Mar 25 02:29:57 2014

@<TRIPOS>MOLECULE
3wd1_ST7_1_INTS_M
   69     0    12     0     0
SMALL
NO_CHARGES


@<TRIPOS>ATOM
      1 CA        -20.4605   -8.3510  -32.0830 C.3       4 GLC5        0.0000 
      2 CA        -20.3200   -7.0560  -31.0620 C.3      12 GLL5        0.0000 
      3 CA        -20.6010   -9.6460  -33.1040 C.3       8 GLP5        0.0000 
      4 CA        -20.3500   -8.6035  -29.5650 C.3       4 GLC5        0.0000 
      5 CA        -20.3800  -10.1510  -28.0680 C.3       8 GLP5        0.0000 
      6 CA        -19.7095   -6.7055  -29.2465 C.3       4 GLC5        0.0000 
      7 CA        -19.0990   -6.3550  -27.4310 C.3       8 GLP5        0.0000 
      8 CA        -20.4170   -6.0380  -32.9495 C.3       4 GLC5        0.0000 
      9 CA        -20.5140   -5.0200  -34.8370 C.3       8 GLP5        0.0000 
     10 O         -22.1670   -6.6350  -29.9480 O.2       1 ALC1        0.0000 
     11 O         -20.8840   -5.9640  -30.2460 O.2       9 ALL1        0.0000 
     12 O         -23.4500   -7.3060  -29.6500 O.2       5 ALP1        0.0000 
     13 O         -21.7415   -5.6125  -28.8295 O.2       1 ALC1        0.0000 
     14 O         -22.5990   -5.2610  -27.4130 O.2       5 ALP1        0.0000 
     15 N         -17.9200   -5.1295  -30.7110 N.am      2 SEC2        0.0000 
     16 N         -19.1700   -4.5550  -30.6080 N.am     10 SEL2        0.0000 
     17 N         -16.6700   -5.7040  -30.8140 N.am      6 SEP2        0.0000 
     18 O         -21.7250   -4.6030  -28.3145 O.2       1 ALC1        0.0000 
     19 O         -20.8510   -3.9450  -29.2160 O.2       9 ALL1        0.0000 
     20 OD1       -22.0210   -2.7735  -27.0280 O.co2     3 ASC3        0.0000 
     21 OD1       -20.4890   -2.6710  -28.9630 O.co2    11 ASL3        0.0000 
     22 OD1       -22.7950   -3.5130  -26.0080 O.co2     7 ASP3        0.0000 
     23 OD1       -21.7250   -4.6030  -28.3145 O.co2     3 ASC3        0.0000 
     24 OD1       -22.5990   -5.2610  -27.4130 O.co2     7 ASP3        0.0000 
     25 OD1       -18.4945   -1.2035  -28.5845 O.co2     3 ASC3        0.0000 
     26 OD1       -17.6770   -0.2720  -27.7420 O.co2     7 ASP3        0.0000 
     27 O         -18.4945   -1.2035  -28.5845 O.2       1 ALC1        0.0000 
     28 O         -19.3120   -2.1350  -29.4270 O.2       9 ALL1        0.0000 
     29 O         -17.6770   -0.2720  -27.7420 O.2       5 ALP1        0.0000 
     30 O         -22.0210   -2.7735  -27.0280 O.2       1 ALC1        0.0000 
     31 O         -21.2470   -2.0340  -28.0480 O.2       9 ALL1        0.0000 
     32 O         -22.7950   -3.5130  -26.0080 O.2       5 ALP1        0.0000 
     33 CA        -23.6460    0.8165  -27.5240 C.3       4 GLC5        0.0000 
     34 CA        -22.0960    1.6790  -28.4200 C.3      12 GLL5        0.0000 
     35 CA        -25.1960   -0.0460  -26.6280 C.3       8 GLP5        0.0000 
     36 CA        -21.0345    4.2885  -32.5145 C.3       4 GLC5        0.0000 
     37 CA        -22.3810    2.5900  -32.5370 C.3      12 GLL5        0.0000 
     38 CA        -19.6880    5.9870  -32.4920 C.3       8 GLP5        0.0000 
     39 CA        -18.1705    3.0870  -33.5255 C.3       4 GLC5        0.0000 
     40 CA        -18.7880    1.3860  -32.2340 C.3      12 GLL5        0.0000 
     41 CA        -17.5530    4.7880  -34.8170 C.3       8 GLP5        0.0000 
     42 CA        -19.8075    4.0855  -32.4150 C.3       4 GLC5        0.0000 
     43 CA        -19.9270    2.1840  -32.3380 C.3      12 GLL5        0.0000 
     44 N         -19.1075    4.9025  -29.1395 N.am      2 SEC2        0.0000 
     45 N         -20.5270    4.6120  -29.1930 N.am     10 SEL2        0.0000 
     46 N         -17.6880    5.1930  -29.0860 N.am      6 SEP2        0.0000 
     47 N         -19.2895    3.7720  -29.1035 N.am      2 SEC2        0.0000 
     48 N         -18.0520    2.9320  -29.0140 N.am      6 SEP2        0.0000 
     49 CA        -21.0035    6.1690  -30.9210 C.3       4 GLC5        0.0000 
     50 CA        -22.3190    6.3510  -29.3500 C.3      12 GLL5        0.0000 
     51 N         -18.9820    6.3625  -29.0175 N.am      2 SEC2        0.0000 
     52 N         -20.2760    7.5320  -28.9490 N.am     10 SEL2        0.0000 
     53 CA        -18.8705    9.0910  -26.6255 C.3       4 GLC5        0.0000 
     54 CA        -20.4880    8.0920  -26.9340 C.3      12 GLL5        0.0000 
     55 CA        -17.2530   10.0900  -26.3170 C.3       8 GLP5        0.0000 
     56 CA        -19.9935    9.7440  -28.2225 C.3       4 GLC5        0.0000 
     57 CA        -19.4990   11.3960  -29.5110 C.3       8 GLP5        0.0000 
     58 CA        -24.7650    7.6085  -26.5565 C.3       4 GLC5        0.0000 
     59 CA        -22.8580    7.1490  -26.4130 C.3      12 GLL5        0.0000 
     60 CA        -26.6720    8.0680  -26.7000 C.3       8 GLP5        0.0000 
     61 CA        -17.5680    0.7850  -25.2500 C.3       4 GLC5        0.0000 
     62 CA        -19.3350    1.2830  -24.1220 C.3      12 GLL5        0.0000 
     63 CA        -15.8010    0.2870  -26.3780 C.3       8 GLP5        0.0000 
     64 CA        -23.2670   -0.6557  -27.9028 C.3       4 GLC5        0.0000 
     65 CA        -21.0750   -0.5940  -27.6280 C.3      12 GLL5        0.0000 
     66 CA        -25.1030   -1.1170  -27.6260 C.3       8 GLP5        0.0000 
     67 CA        -19.5655    5.9748  -20.8152 C.3       4 GLC5        0.0000 
     68 CA        -21.1080    4.7070  -21.0520 C.3      12 GLL5        0.0000 
     69 CA        -18.4900    7.6230  -20.9260 C.3       8 GLP5        0.0000 
@<TRIPOS>BOND
@<TRIPOS>SUBSTRUCTURE
     1 ALC1       10 GROUP        1 X    ALC  0     ROOT ALC X 1
     2 SEC2       15 GROUP        1 X    SEC  0     **** SEC X 2
     3 ASC3       20 GROUP        1 X    ASC  0     **** ASC X 3
     4 GLC5        1 GROUP        1 X    GLC  0     **** GLC X 6
     5 ALP1       12 GROUP        1 Y    ALP  0     ROOT ALP Y 8
     6 SEP2       17 GROUP        1 Y    SEP  0     **** SEP Y 9
     7 ASP3       22 GROUP        1 Y    ASP  0     **** ASP Y 10
     8 GLP5        3 GROUP        1 Y    GLP  0     **** GLP Y 13
     9 ALL1       11 GROUP        1 Z    ALL  0     ROOT ALL Z 15
    10 SEL2       16 GROUP        1 Z    SEL  0     **** SEL Z 16
    11 ASL3       21 GROUP        1 Z    ASL  0     **** ASL Z 17
    12 GLL5        2 GROUP        1 Z    GLL  0     **** GLL Z 20
@<TRIPOS>SET

