#    Name: 3wd1_ST7_1_ligand
#    Modification time : Tue Mar 25 02:29:57 2014

@<TRIPOS>MOLECULE
3wd1_ST7_1_ligand
   94    98     1     0     0
SMALL
NO_CHARGES


@<TRIPOS>ATOM
      1 C9        -20.3200   -7.0560  -31.0620 C.3       1 ST7514      0.0000 
      2 N6        -20.8840   -5.9640  -30.2460 N.am      1 ST7514      0.0000 
      3 C8        -20.2680   -4.8010  -30.0990 C.2       1 ST7514      0.0000 
      4 O3        -19.1700   -4.5550  -30.6080 O.2       1 ST7514      0.0000 
      5 N4        -20.8510   -3.9450  -29.2160 N.am      1 ST7514      0.0000 
      6 C7        -20.4890   -2.6710  -28.9630 C.cat     1 ST7514      0.0000 
      7 N5        -19.3120   -2.1350  -29.4270 N.pl3     1 ST7514      0.0000 
      8 N3        -21.2470   -2.0340  -28.0480 N.pl3     1 ST7514      0.0000 
      9 C6        -21.0750   -0.5940  -27.6280 C.3       1 ST7514      0.0000 
     10 C5        -21.7870    0.2050  -28.7310 C.3       1 ST7514      0.0000 
     11 C4        -22.0960    1.6790  -28.4200 C.3       1 ST7514      0.0000 
     12 C2        -22.3310    2.4290  -29.6860 C.3       1 ST7514      0.0000 
     13 C1        -23.5910    2.0260  -30.4470 C.2       1 ST7514      0.0000 
     14 O2        -24.6480    1.7430  -29.8810 O.2       1 ST7514      0.0000 
     15 N1        -23.5840    2.2310  -31.7320 N.am      1 ST7514      0.0000 
     16 C12       -24.9010    2.1660  -32.3970 C.3       1 ST7514      0.0000 
     17 C13       -24.9020    1.1350  -33.4850 C.ar      1 ST7514      0.0000 
     18 C20       -24.9610   -0.1940  -33.0700 C.ar      1 ST7514      0.0000 
     19 C21       -25.0230   -1.1320  -34.0810 C.ar      1 ST7514      0.0000 
     20 C22       -24.9310   -0.7130  -35.4210 C.ar      1 ST7514      0.0000 
     21 C23       -24.8350    0.6230  -35.8340 C.ar      1 ST7514      0.0000 
     22 C24       -24.8240    1.5640  -34.8280 C.ar      1 ST7514      0.0000 
     23 C11       -22.3810    2.5900  -32.5370 C.3       1 ST7514      0.0000 
     24 C14       -21.2210    1.6390  -32.4340 C.ar      1 ST7514      0.0000 
     25 C15       -21.4100    0.2380  -32.4600 C.ar      1 ST7514      0.0000 
     26 C16       -20.2540   -0.5420  -32.3470 C.ar      1 ST7514      0.0000 
     27 C17       -18.9490   -0.0130  -32.2350 C.ar      1 ST7514      0.0000 
     28 C18       -18.7880    1.3860  -32.2340 C.ar      1 ST7514      0.0000 
     29 C19       -19.9270    2.1840  -32.3380 C.ar      1 ST7514      0.0000 
     30 N2        -22.6070    3.9320  -29.4650 N.am      1 ST7514      0.0000 
     31 C3        -21.7300    4.8790  -29.3350 C.2       1 ST7514      0.0000 
     32 O1        -20.5270    4.6120  -29.1930 O.2       1 ST7514      0.0000 
     33 C10       -22.3190    6.3510  -29.3500 C.3       1 ST7514      0.0000 
     34 N7        -21.4070    7.1550  -28.5460 N.pl3     1 ST7514      0.0000 
     35 N8        -20.2760    7.5320  -28.9490 N.2       1 ST7514      0.0000 
     36 N9        -19.6720    8.0930  -28.0370 N.2       1 ST7514      0.0000 
     37 C25       -20.4880    8.0920  -26.9340 C.2       1 ST7514      0.0000 
     38 C26       -21.6180    7.4700  -27.2720 C.2       1 ST7514      0.0000 
     39 C27       -22.8580    7.1490  -26.4130 C.3       1 ST7514      0.0000 
     40 O4        -22.8940    5.7280  -26.0970 O.3       1 ST7514      0.0000 
     41 N11       -21.9360    5.1400  -25.2600 N.2       1 ST7514      0.0000 
     42 C28       -21.9220    3.8070  -25.0780 C.2       1 ST7514      0.0000 
     43 C29       -20.9890    3.0910  -24.3040 C.ar      1 ST7514      0.0000 
     44 C30       -20.7180    3.3910  -22.9770 C.ar      1 ST7514      0.0000 
     45 C34       -21.3900    4.4600  -22.3690 C.ar      1 ST7514      0.0000 
     46 C35       -21.1080    4.7070  -21.0520 C.ar      1 ST7514      0.0000 
     47 C36       -20.1740    3.9460  -20.3570 C.ar      1 ST7514      0.0000 
     48 C37       -19.4900    2.9020  -20.9500 C.ar      1 ST7514      0.0000 
     49 C31       -19.7570    2.6050  -22.2830 C.ar      1 ST7514      0.0000 
     50 N10       -19.0810    1.5710  -22.8750 N.ar      1 ST7514      0.0000 
     51 C32       -19.3350    1.2830  -24.1220 C.ar      1 ST7514      0.0000 
     52 C33       -20.2680    2.0330  -24.8320 C.ar      1 ST7514      0.0000 
     53 H         -21.8008   -6.1776  -29.7961 H         1 ST7514      0.0000 
     54 H         -21.6995   -4.3349  -28.6568 H         1 ST7514      0.0000 
     55 H         -18.7582   -2.7286  -30.0110 H         1 ST7514      0.0000 
     56 H         -19.1119   -1.1981  -29.1402 H         1 ST7514      0.0000 
     57 H         -22.0378   -2.5251  -27.5512 H         1 ST7514      0.0000 
     58 H         -20.0452   -0.3327  -27.6145 H         1 ST7514      0.0000 
     59 H         -21.5600   -0.4188  -26.6990 H         1 ST7514      0.0000 
     60 H         -22.7398   -0.3101  -28.9820 H         1 ST7514      0.0000 
     61 H         -21.1694    0.1610  -29.6545 H         1 ST7514      0.0000 
     62 H         -21.2514    2.1023  -27.8792 H         1 ST7514      0.0000 
     63 H         -22.9791    1.7202  -27.7849 H         1 ST7514      0.0000 
     64 H         -21.5046    2.3630  -30.3661 H         1 ST7514      0.0000 
     65 H         -25.1528    3.1441  -32.8282 H         1 ST7514      0.0000 
     66 H         -25.6800    1.9164  -31.6642 H         1 ST7514      0.0000 
     67 H         -24.9583   -0.4448  -32.1030 H         1 ST7514      0.0000 
     68 H         -25.1349   -2.1274  -33.8698 H         1 ST7514      0.0000 
     69 H         -24.9347   -1.4609  -36.1682 H         1 ST7514      0.0000 
     70 H         -24.7785    0.8660  -36.8025 H         1 ST7514      0.0000 
     71 H         -24.7608    2.5617  -35.0344 H         1 ST7514      0.0000 
     72 H         -22.0343    3.6097  -32.2425 H         1 ST7514      0.0000 
     73 H         -22.6731    2.6823  -33.6107 H         1 ST7514      0.0000 
     74 H         -22.3166   -0.1634  -32.5536 H         1 ST7514      0.0000 
     75 H         -20.3575   -1.5896  -32.3448 H         1 ST7514      0.0000 
     76 H         -18.1492   -0.6271  -32.1573 H         1 ST7514      0.0000 
     77 H         -17.8648    1.7966  -32.1593 H         1 ST7514      0.0000 
     78 H         -19.8220    3.2199  -32.3453 H         1 ST7514      0.0000 
     79 H         -23.6653    4.1204  -29.4283 H         1 ST7514      0.0000 
     80 H         -23.3012    6.3021  -28.9248 H         1 ST7514      0.0000 
     81 H         -22.3479    6.6688  -30.3728 H         1 ST7514      0.0000 
     82 H         -20.2649    8.4753  -26.0841 H         1 ST7514      0.0000 
     83 H         -23.7433    7.4525  -26.9769 H         1 ST7514      0.0000 
     84 H         -22.8029    7.7558  -25.5060 H         1 ST7514      0.0000 
     85 H         -22.6801    3.2147  -25.5556 H         1 ST7514      0.0000 
     86 H         -22.0514    5.0155  -22.8931 H         1 ST7514      0.0000 
     87 H         -21.5977    5.4781  -20.5523 H         1 ST7514      0.0000 
     88 H         -19.9864    4.1739  -19.3552 H         1 ST7514      0.0000 
     89 H         -18.8044    2.3589  -20.4266 H         1 ST7514      0.0000 
     90 H         -18.8607    0.5000  -24.6212 H         1 ST7514      0.0000 
     91 H         -20.4364    1.7744  -25.8468 H         1 ST7514      0.0000 
     92 H         -19.4289   -7.3536  -30.7193 H         1 ST7514      0.0000 
     93 H         -20.9148   -7.8599  -31.0688 H         1 ST7514      0.0000 
     94 H         -20.1904   -6.7793  -32.0142 H         1 ST7514      0.0000 
@<TRIPOS>BOND
     1    2    1 1    
     2   92    1 1    
     3   93    1 1    
     4   94    1 1    
     5    3    2 am   
     6   53    2 1    
     7    4    3 2    
     8    5    3 am   
     9    6    5 1    
    10   54    5 1    
    11    7    6 ar   
    12    8    6 ar   
    13   55    7 1    
    14   56    7 1    
    15    9    8 1    
    16   57    8 1    
    17   10    9 1    
    18   58    9 1    
    19   59    9 1    
    20   11   10 1    
    21   60   10 1    
    22   61   10 1    
    23   12   11 1    
    24   62   11 1    
    25   63   11 1    
    26   13   12 1    
    27   30   12 1    
    28   64   12 1    
    29   14   13 2    
    30   15   13 am   
    31   16   15 1    
    32   23   15 1    
    33   17   16 1    
    34   65   16 1    
    35   66   16 1    
    36   18   17 ar   
    37   22   17 ar   
    38   19   18 ar   
    39   67   18 1    
    40   20   19 ar   
    41   68   19 1    
    42   21   20 ar   
    43   69   20 1    
    44   22   21 ar   
    45   70   21 1    
    46   71   22 1    
    47   24   23 1    
    48   72   23 1    
    49   73   23 1    
    50   25   24 ar   
    51   29   24 ar   
    52   26   25 ar   
    53   74   25 1    
    54   27   26 ar   
    55   75   26 1    
    56   28   27 ar   
    57   76   27 1    
    58   29   28 ar   
    59   77   28 1    
    60   78   29 1    
    61   31   30 am   
    62   79   30 1    
    63   32   31 2    
    64   33   31 1    
    65   34   33 1    
    66   80   33 1    
    67   81   33 1    
    68   35   34 1    
    69   38   34 1    
    70   36   35 2    
    71   37   36 1    
    72   38   37 2    
    73   82   37 1    
    74   39   38 1    
    75   40   39 1    
    76   83   39 1    
    77   84   39 1    
    78   41   40 1    
    79   42   41 2    
    80   43   42 1    
    81   85   42 1    
    82   44   43 ar   
    83   52   43 ar   
    84   45   44 ar   
    85   49   44 ar   
    86   46   45 ar   
    87   86   45 1    
    88   47   46 ar   
    89   87   46 1    
    90   48   47 ar   
    91   88   47 1    
    92   49   48 ar   
    93   89   48 1    
    94   50   49 ar   
    95   51   50 ar   
    96   52   51 ar   
    97   90   51 1    
    98   91   52 1    
@<TRIPOS>SUBSTRUCTURE
     1 ST7514      1 GROUP   
@<TRIPOS>SET

