#    Name: 3vtc_TK3_1_INTS_M
#    Modification time : Tue Mar 25 01:34:51 2014

@<TRIPOS>MOLECULE
3vtc_TK3_1_INTS_M
  130     0     9     0     0
SMALL
NO_CHARGES


@<TRIPOS>ATOM
      1 CA          0.8505    2.8455   36.5960 C.3       3 GLC5        0.0000 
      2 CA          1.9060    1.2640   35.8390 C.3       9 GLL5        0.0000 
      3 CA         -0.2050    4.4270   37.3530 C.3       6 GLP5        0.0000 
      4 CA          3.1610   -2.5075   32.0085 C.3       3 GLC5        0.0000 
      5 CA          3.3320   -1.4720   33.9440 C.3       9 GLL5        0.0000 
      6 CA          2.9900   -3.5430   30.0730 C.3       6 GLP5        0.0000 
      7 CA          4.9760   -2.4760   33.3550 C.3       3 GLC5        0.0000 
      8 CA          6.6200   -3.4800   32.7660 C.3       6 GLP5        0.0000 
      9 CA          3.4460   -3.6910   35.1970 C.3       3 GLC5        0.0000 
     10 CA          4.7440   -2.2220   35.8850 C.3       9 GLL5        0.0000 
     11 CA          2.1480   -5.1600   34.5090 C.3       6 GLP5        0.0000 
     12 CA          5.6820   -2.8510   34.3255 C.3       3 GLC5        0.0000 
     13 CA          3.9700   -4.1995   37.0975 C.3       3 GLC5        0.0000 
     14 CA          4.9830   -2.5210   37.4010 C.3       9 GLL5        0.0000 
     15 CA          2.9570   -5.8780   36.7940 C.3       6 GLP5        0.0000 
     16 CA          8.0360   -0.4140   37.4520 C.3       3 GLC5        0.0000 
     17 CA          6.9730    0.7240   38.9330 C.3       9 GLL5        0.0000 
     18 CA          9.0990   -1.5520   35.9710 C.3       6 GLP5        0.0000 
     19 CA          8.7570    0.0030   39.6725 C.3       3 GLC5        0.0000 
     20 CA         10.5410   -0.7180   40.4120 C.3       6 GLP5        0.0000 
     21 CA          8.0690    2.0450   40.3540 C.3       3 GLC5        0.0000 
     22 CA          9.1650    3.3660   41.7750 C.3       6 GLP5        0.0000 
     23 CA          7.2185   -0.6790   40.4615 C.3       3 GLC5        0.0000 
     24 CA          7.4640   -2.0820   41.9900 C.3       6 GLP5        0.0000 
     25 CA          4.3860    3.6620   39.7475 C.3       3 GLC5        0.0000 
     26 CA          5.2410    2.4310   38.4530 C.3       9 GLL5        0.0000 
     27 CA          3.5310    4.8930   41.0420 C.3       6 GLP5        0.0000 
     28 CA          4.4505    1.6605   40.3590 C.3       3 GLC5        0.0000 
     29 CA          3.6600    0.8900   42.2650 C.3       6 GLP5        0.0000 
     30 O           5.2675   -4.2940   38.7055 O.2       1 ALC1        0.0000 
     31 O           5.7390   -3.7020   37.5440 O.2       7 ALL1        0.0000 
     32 O           4.7960   -4.8860   39.8670 O.2       4 ALP1        0.0000 
     33 CA          9.9020    6.0120   39.1270 C.3       3 GLC5        0.0000 
     34 CA          9.0900    4.9770   37.5900 C.3       9 GLL5        0.0000 
     35 CA         10.7140    7.0470   40.6640 C.3       6 GLP5        0.0000 
     36 CA         10.7520    2.9900   35.6355 C.3       3 GLC5        0.0000 
     37 CA         10.0280    3.7810   37.3850 C.3       9 GLL5        0.0000 
     38 CA         11.4760    2.1990   33.8860 C.3       6 GLP5        0.0000 
     39 CA         11.8070    5.0270   36.8375 C.3       3 GLC5        0.0000 
     40 CA         13.5860    6.2730   36.2900 C.3       6 GLP5        0.0000 
     41 CA          5.3175    7.3135   35.7495 C.3       3 GLC5        0.0000 
     42 CA          6.8420    6.8630   37.1270 C.3       9 GLL5        0.0000 
     43 CA          3.7930    7.7640   34.3720 C.3       6 GLP5        0.0000 
     44 CA          7.9565    8.0730   38.5900 C.3       3 GLC5        0.0000 
     45 CA          9.0710    9.2830   40.0530 C.3       6 GLP5        0.0000 
     46 CA          6.4070    9.0525   37.2255 C.3       3 GLC5        0.0000 
     47 CA          5.9720   11.2420   37.3240 C.3       6 GLP5        0.0000 
     48 CA          9.2940    8.2190   38.2820 C.3       3 GLC5        0.0000 
     49 CA          8.3110    7.3430   37.2020 C.3       9 GLL5        0.0000 
     50 CA         10.2770    9.0950   39.3620 C.3       6 GLP5        0.0000 
     51 CA         10.1935    7.1200   38.2205 C.3       3 GLC5        0.0000 
     52 CA          9.3070    6.2640   36.7570 C.3       9 GLL5        0.0000 
     53 CA         11.0800    7.9760   39.6840 C.3       6 GLP5        0.0000 
     54 CA          6.8875    3.1255   34.3435 C.3       3 GLC5        0.0000 
     55 CA          7.4120    4.0160   35.7990 C.3       9 GLL5        0.0000 
     56 CA          6.3630    2.2350   32.8880 C.3       6 GLP5        0.0000 
     57 CA          9.9050    8.2445   31.6470 C.3       3 GLC5        0.0000 
     58 CA         11.3430    8.9040   33.0670 C.3       9 GLL5        0.0000 
     59 CA          8.4670    7.5850   30.2270 C.3       6 GLP5        0.0000 
     60 CA         14.7565    9.2780   31.7295 C.3       3 GLC5        0.0000 
     61 CA         12.6990    9.0090   32.3130 C.3       9 GLL5        0.0000 
     62 CA         16.8140    9.5470   31.1460 C.3       6 GLP5        0.0000 
     63 CA         13.3930   10.5220   33.6045 C.3       3 GLC5        0.0000 
     64 CA         14.0870   12.0350   34.8960 C.3       6 GLP5        0.0000 
     65 CA         14.3455    5.3260   32.2970 C.3       3 GLC5        0.0000 
     66 CA         12.8240    6.4760   32.1620 C.3       9 GLL5        0.0000 
     67 CA         15.8670    4.1760   32.4320 C.3       6 GLP5        0.0000 
     68 CA         13.8535    6.6485   33.9300 C.3       3 GLC5        0.0000 
     69 CA         14.8830    6.8210   35.6980 C.3       6 GLP5        0.0000 
     70 CA          9.9840    6.9620   31.5885 C.3       3 GLC5        0.0000 
     71 CA         11.5010    6.3390   32.9500 C.3       9 GLL5        0.0000 
     72 CA         11.4885    4.2690   33.4180 C.3       3 GLC5        0.0000 
     73 N          13.9605    5.2000   30.2300 N.am      2 SEC2        0.0000 
     74 N          12.9350    5.3950   31.2500 N.am      8 SEL2        0.0000 
     75 N          14.9860    5.0050   29.2100 N.am      5 SEP2        0.0000 
     76 O          11.8770    4.8940   30.5650 O.2       1 ALC1        0.0000 
     77 O          12.9350    5.3950   31.2500 O.2       7 ALL1        0.0000 
     78 O          10.8190    4.3930   29.8800 O.2       4 ALP1        0.0000 
     79 N          14.9575    9.5845   32.7255 N.am      2 SEC2        0.0000 
     80 N          13.7840    9.0650   33.2490 N.am      8 SEL2        0.0000 
     81 N          16.1310   10.1040   32.2020 N.am      5 SEP2        0.0000 
     82 O          13.5935    9.9795   34.3185 O.2       1 ALC1        0.0000 
     83 O          13.7840    9.0650   33.2490 O.2       7 ALL1        0.0000 
     84 O          13.4030   10.8940   35.3880 O.2       4 ALP1        0.0000 
     85 CA          2.6625   -3.2449   34.7092 C.3       3 GLC5        0.0000 
     86 CA          3.6850   -1.1560   35.4470 C.3       9 GLL5        0.0000 
     87 CA         -0.3166    0.8682   34.5680 C.3       3 GLC5        0.0000 
     88 CA          0.9880   -0.5250   34.2490 C.3       9 GLL5        0.0000 
     89 CA         -1.9320    1.7300   34.1150 C.3       6 GLP5        0.0000 
     90 CA         -0.2065   -1.1081   35.7975 C.3       3 GLC5        0.0000 
     91 CA         -1.8250   -1.6020   36.4580 C.3       6 GLP5        0.0000 
     92 CA          0.2873   -0.8890   32.6235 C.3       3 GLC5        0.0000 
     93 CA         -1.0670   -1.2990   31.4260 C.3       6 GLP5        0.0000 
     94 CA          2.2420    1.4810   31.9563 C.3       3 GLC5        0.0000 
     95 CA          2.2950   -0.4330   33.3930 C.3       9 GLL5        0.0000 
     96 CA          1.8860    2.6720   30.4720 C.3       6 GLP5        0.0000 
     97 CA          4.8416    1.5791   33.6290 C.3       3 GLC5        0.0000 
     98 CA          2.9010    1.0130   33.4880 C.3       9 GLL5        0.0000 
     99 CA          6.9813   -1.9618   36.3070 C.3       3 GLC5        0.0000 
    100 CA          7.5580   -1.2492   37.0970 C.3       3 GLC5        0.0000 
    101 CA          5.7300   -1.4160   38.0030 C.3       9 GLL5        0.0000 
    102 CA          6.5376   -2.2334   39.5713 C.3       3 GLC5        0.0000 
    103 CA          6.3040   -0.4770   38.4430 C.3       9 GLL5        0.0000 
    104 CA          7.2450   -3.2440   41.0700 C.3       6 GLP5        0.0000 
    105 CA         11.0817    1.9047   38.3370 C.3       3 GLC5        0.0000 
    106 CA          9.2270    2.6060   37.9710 C.3       9 GLL5        0.0000 
    107 CA         12.5360    0.6160   38.9960 C.3       6 GLP5        0.0000 
    108 CA          5.6450    6.6348   38.9675 C.3       3 GLC5        0.0000 
    109 CA          6.6460    5.4800   37.8090 C.3       9 GLL5        0.0000 
    110 CA          4.5460    7.0980   40.4670 C.3       6 GLP5        0.0000 
    111 CA         11.6822    6.2973   36.2858 C.3       3 GLC5        0.0000 
    112 CA         11.2515    8.0480   36.7313 C.3       3 GLC5        0.0000 
    113 CA         10.2500    6.3790   35.8060 C.3       9 GLL5        0.0000 
    114 CA         12.1060    9.1280   38.0690 C.3       6 GLP5        0.0000 
    115 CA          9.0225    7.7700   33.3660 C.3       3 GLC5        0.0000 
    116 CA         10.5440    7.5570   34.9810 C.3       9 GLL5        0.0000 
    117 CA          7.2290    7.9730   32.3620 C.3       6 GLP5        0.0000 
    118 CA         11.0265    9.6582   31.0450 C.3       3 GLC5        0.0000 
    119 CA         10.0320   10.3600   29.4000 C.3       6 GLP5        0.0000 
    120 CA         11.4945   10.6683   32.7410 C.3       3 GLC5        0.0000 
    121 CA         10.9680   12.3800   32.7920 C.3       6 GLP5        0.0000 
    122 CA         11.5115    9.1075   30.0650 C.3       3 GLC5        0.0000 
    123 CA         12.9050    7.8050   31.3970 C.3       9 GLL5        0.0000 
    124 CA         12.3723    6.6130   34.9750 C.3       3 GLC5        0.0000 
    125 CA         14.8499    7.8524   30.9186 C.3       3 GLC5        0.0000 
    126 CA         16.7290    8.1820   30.9160 C.3       6 GLP5        0.0000 
    127 CA         13.5043   10.0580   30.6530 C.3       3 GLC5        0.0000 
    128 CA         13.0770    7.9050   30.0630 C.3       9 GLL5        0.0000 
    129 CA         14.0690   11.9600   30.3470 C.3       6 GLP5        0.0000 
    130 CA          9.0959    3.4923   39.7823 C.3       3 GLC5        0.0000 
@<TRIPOS>BOND
@<TRIPOS>SUBSTRUCTURE
     1 ALC1       30 GROUP        1 X    ALC  0     ROOT ALC X 1
     2 SEC2       73 GROUP        1 X    SEC  0     **** SEC X 2
     3 GLC5        1 GROUP        1 X    GLC  0     **** GLC X 6
     4 ALP1       32 GROUP        1 Y    ALP  0     ROOT ALP Y 8
     5 SEP2       75 GROUP        1 Y    SEP  0     **** SEP Y 9
     6 GLP5        3 GROUP        1 Y    GLP  0     **** GLP Y 13
     7 ALL1       31 GROUP        1 Z    ALL  0     ROOT ALL Z 15
     8 SEL2       74 GROUP        1 Z    SEL  0     **** SEL Z 16
     9 GLL5        2 GROUP        1 Z    GLL  0     **** GLL Z 20
@<TRIPOS>SET

