#    Name: 3vtc_TK3_1_ligand
#    Modification time : Tue Mar 25 01:34:51 2014

@<TRIPOS>MOLECULE
3vtc_TK3_1_ligand
   89    94     1     0     0
SMALL
NO_CHARGES


@<TRIPOS>ATOM
      1 C29         3.6850   -1.1560   35.4470 C.3       1 TK3500      0.0000 
      2 C30         2.3590   -1.2190   36.3030 C.3       1 TK3500      0.0000 
      3 C31         1.3130   -0.1880   35.7470 C.3       1 TK3500      0.0000 
      4 C32         1.9060    1.2640   35.8390 C.3       1 TK3500      0.0000 
      5 C33         3.2190    1.3490   34.9820 C.3       1 TK3500      0.0000 
      6 C34         4.2600    0.3180   35.5220 C.3       1 TK3500      0.0000 
      7 C37         3.3320   -1.4720   33.9440 C.3       1 TK3500      0.0000 
      8 C36         0.9880   -0.5250   34.2490 C.3       1 TK3500      0.0000 
      9 C38         2.9010    1.0130   33.4880 C.3       1 TK3500      0.0000 
     10 C35         2.2950   -0.4330   33.3930 C.3       1 TK3500      0.0000 
     11 C26         4.7440   -2.2220   35.8850 C.3       1 TK3500      0.0000 
     12 C25         4.9830   -2.5210   37.4010 C.3       1 TK3500      0.0000 
     13 C24         5.7300   -1.4160   38.0030 C.1       1 TK3500      0.0000 
     14 C23         6.3040   -0.4770   38.4430 C.1       1 TK3500      0.0000 
     15 C22         6.9730    0.7240   38.9330 C.3       1 TK3500      0.0000 
     16 C20         6.6740    1.9820   38.0580 C.3       1 TK3500      0.0000 
     17 C17         7.7620    3.1100   38.2120 C.3       1 TK3500      0.0000 
     18 C21         5.2410    2.4310   38.4530 C.3       1 TK3500      0.0000 
     19 O03         5.7390   -3.7020   37.5440 O.3       1 TK3500      0.0000 
     20 C13         7.6670    4.3940   37.3160 C.3       1 TK3500      0.0000 
     21 C14         9.0900    4.9770   37.5900 C.3       1 TK3500      0.0000 
     22 C15        10.0280    3.7810   37.3850 C.3       1 TK3500      0.0000 
     23 C16         9.2270    2.6060   37.9710 C.3       1 TK3500      0.0000 
     24 C12         6.6460    5.4800   37.8090 C.3       1 TK3500      0.0000 
     25 C11         6.8420    6.8630   37.1270 C.3       1 TK3500      0.0000 
     26 C09         8.3110    7.3430   37.2020 C.3       1 TK3500      0.0000 
     27 C08         9.3070    6.2640   36.7570 C.2       1 TK3500      0.0000 
     28 C18         7.4120    4.0160   35.7990 C.3       1 TK3500      0.0000 
     29 C07        10.2500    6.3790   35.8060 C.2       1 TK3500      0.0000 
     30 C06        10.5440    7.5570   34.9810 C.2       1 TK3500      0.0000 
     31 C05        11.0880    7.5770   33.7590 C.2       1 TK3500      0.0000 
     32 C04        11.3430    8.9040   33.0670 C.3       1 TK3500      0.0000 
     33 C03        12.6990    9.0090   32.3130 C.3       1 TK3500      0.0000 
     34 C02        12.9050    7.8050   31.3970 C.2       1 TK3500      0.0000 
     35 C01        12.8240    6.4760   32.1620 C.3       1 TK3500      0.0000 
     36 C10        11.5010    6.3390   32.9500 C.3       1 TK3500      0.0000 
     37 C28        13.0770    7.9050   30.0630 C.2       1 TK3500      0.0000 
     38 O01        12.9350    5.3950   31.2500 O.3       1 TK3500      0.0000 
     39 O02        13.7840    9.0650   33.2490 O.3       1 TK3500      0.0000 
     40 H           2.5928   -0.9691   37.3218 H         1 TK3500      0.0000 
     41 H           1.9487   -2.2098   36.2328 H         1 TK3500      0.0000 
     42 H           0.4286   -0.2419   36.3189 H         1 TK3500      0.0000 
     43 H           2.1418    1.4813   36.8637 H         1 TK3500      0.0000 
     44 H           1.1877    1.9605   35.4495 H         1 TK3500      0.0000 
     45 H           3.6199    2.3214   35.0474 H         1 TK3500      0.0000 
     46 H           5.1554    0.3663   34.9217 H         1 TK3500      0.0000 
     47 H           4.4859    0.5445   36.5526 H         1 TK3500      0.0000 
     48 H           2.9048   -2.4599   33.8883 H         1 TK3500      0.0000 
     49 H           4.2338   -1.4155   33.3565 H         1 TK3500      0.0000 
     50 H           0.2729    0.1871   33.8780 H         1 TK3500      0.0000 
     51 H           0.5995   -1.5259   34.1925 H         1 TK3500      0.0000 
     52 H           3.8105    1.0478   32.9168 H         1 TK3500      0.0000 
     53 H           2.1817    1.7176   33.1129 H         1 TK3500      0.0000 
     54 H           2.0754   -0.6594   32.3876 H         1 TK3500      0.0000 
     55 H           5.7309   -1.9329   35.4308 H         1 TK3500      0.0000 
     56 H           4.4851   -3.1919   35.3789 H         1 TK3500      0.0000 
     57 H           4.0170   -2.6052   37.8631 H         1 TK3500      0.0000 
     58 H           8.0667    0.5921   38.9496 H         1 TK3500      0.0000 
     59 H           6.6605    0.9623   39.9623 H         1 TK3500      0.0000 
     60 H           6.6440    1.6545   37.0262 H         1 TK3500      0.0000 
     61 H           7.7589    3.4686   39.2633 H         1 TK3500      0.0000 
     62 H           9.0892    5.2297   38.6572 H         1 TK3500      0.0000 
     63 H          10.9138    3.9204   37.9422 H         1 TK3500      0.0000 
     64 H          10.1876    3.6231   36.3534 H         1 TK3500      0.0000 
     65 H           9.2014    1.7975   37.2719 H         1 TK3500      0.0000 
     66 H           9.6470    2.3100   38.9086 H         1 TK3500      0.0000 
     67 H           6.7595    5.5958   38.8890 H         1 TK3500      0.0000 
     68 H           5.6349    5.1217   37.6043 H         1 TK3500      0.0000 
     69 H           6.2030    7.5924   37.6219 H         1 TK3500      0.0000 
     70 H           6.5455    6.7847   36.0823 H         1 TK3500      0.0000 
     71 H           8.5327    7.6351   38.2322 H         1 TK3500      0.0000 
     72 H           8.4255    8.2239   36.5643 H         1 TK3500      0.0000 
     73 H          10.8859    5.5363   35.5905 H         1 TK3500      0.0000 
     74 H          10.2737    8.4871   35.4555 H         1 TK3500      0.0000 
     75 H          11.3023    9.7211   33.8117 H         1 TK3500      0.0000 
     76 H          10.5323    9.1020   32.3407 H         1 TK3500      0.0000 
     77 H          12.6681    9.8974   31.7016 H         1 TK3500      0.0000 
     78 H          13.6364    6.4561   32.8834 H         1 TK3500      0.0000 
     79 H          10.6929    6.0917   32.2371 H         1 TK3500      0.0000 
     80 H          11.5899    5.4767   33.6362 H         1 TK3500      0.0000 
     81 H           5.1784    2.6611   39.4241 H         1 TK3500      0.0000 
     82 H           4.9507    3.2394   37.9409 H         1 TK3500      0.0000 
     83 H           4.5657    1.7147   38.2774 H         1 TK3500      0.0000 
     84 H           8.1478    3.4490   35.4288 H         1 TK3500      0.0000 
     85 H           6.5606    3.5047   35.6817 H         1 TK3500      0.0000 
     86 H           7.3482    4.8285   35.2195 H         1 TK3500      0.0000 
     87 H           5.3789   -4.1416   38.3669 H         1 TK3500      0.0000 
     88 H          12.0091    5.2573   30.8981 H         1 TK3500      0.0000 
     89 H          13.4649    9.6693   33.9790 H         1 TK3500      0.0000 
@<TRIPOS>BOND
     1    2    1 1    
     2    6    1 1    
     3    7    1 1    
     4   11    1 1    
     5    3    2 1    
     6   40    2 1    
     7   41    2 1    
     8    4    3 1    
     9    8    3 1    
    10   42    3 1    
    11    5    4 1    
    12   43    4 1    
    13   44    4 1    
    14    6    5 1    
    15    9    5 1    
    16   45    5 1    
    17   46    6 1    
    18   47    6 1    
    19   10    7 1    
    20   48    7 1    
    21   49    7 1    
    22   10    8 1    
    23   50    8 1    
    24   51    8 1    
    25   10    9 1    
    26   52    9 1    
    27   53    9 1    
    28   54   10 1    
    29   12   11 1    
    30   55   11 1    
    31   56   11 1    
    32   13   12 1    
    33   19   12 1    
    34   57   12 1    
    35   14   13 3    
    36   15   14 1    
    37   16   15 1    
    38   58   15 1    
    39   59   15 1    
    40   17   16 1    
    41   18   16 1    
    42   60   16 1    
    43   20   17 1    
    44   23   17 1    
    45   61   17 1    
    46   81   18 1    
    47   82   18 1    
    48   83   18 1    
    49   87   19 1    
    50   21   20 1    
    51   24   20 1    
    52   28   20 1    
    53   22   21 1    
    54   27   21 1    
    55   62   21 1    
    56   23   22 1    
    57   63   22 1    
    58   64   22 1    
    59   65   23 1    
    60   66   23 1    
    61   25   24 1    
    62   67   24 1    
    63   68   24 1    
    64   26   25 1    
    65   69   25 1    
    66   70   25 1    
    67   27   26 1    
    68   71   26 1    
    69   72   26 1    
    70   29   27 2    
    71   84   28 1    
    72   85   28 1    
    73   86   28 1    
    74   30   29 1    
    75   73   29 1    
    76   31   30 2    
    77   74   30 1    
    78   32   31 1    
    79   36   31 1    
    80   33   32 1    
    81   75   32 1    
    82   76   32 1    
    83   34   33 1    
    84   39   33 1    
    85   77   33 1    
    86   35   34 1    
    87   37   34 2    
    88   36   35 1    
    89   38   35 1    
    90   78   35 1    
    91   79   36 1    
    92   80   36 1    
    93   88   38 1    
    94   89   39 1    
@<TRIPOS>SUBSTRUCTURE
     1 TK3500      1 GROUP   
@<TRIPOS>SET

