#    Name: 4mam_A12_2_INTS_M
#    Modification time : Tue Mar 25 12:07:06 2014

@<TRIPOS>MOLECULE
4mam_A12_2_INTS_M
   61     0    12     0     0
SMALL
NO_CHARGES


@<TRIPOS>ATOM
      1 N         -49.4805   17.4310  -27.3765 N.am      2 SEC2        0.0000 
      2 N         -49.9300   16.0920  -27.5150 N.am     10 SEL2        0.0000 
      3 N         -49.0310   18.7700  -27.2380 N.am      6 SEP2        0.0000 
      4 NZ        -51.9655   14.6185  -29.0580 N.4       3 LYC4        0.0000 
      5 NZ        -51.7320   14.4290  -27.5990 N.4      11 LYL4        0.0000 
      6 NZ        -53.3230   14.2750  -30.9770 N.4       7 LYP4        0.0000 
      7 N         -51.9655   14.6185  -29.0580 N.am      2 SEC2        0.0000 
      8 N         -51.7320   14.4290  -27.5990 N.am     10 SEL2        0.0000 
      9 N         -52.1990   14.8080  -30.5170 N.am      6 SEP2        0.0000 
     10 N         -52.4270   13.7535  -26.7235 N.am      2 SEC2        0.0000 
     11 N         -53.1220   13.0780  -25.8480 N.am      6 SEP2        0.0000 
     12 NZ        -55.8505   16.7590  -28.8915 N.4       3 LYC4        0.0000 
     13 NZ        -54.8090   16.4070  -28.0530 N.4      11 LYL4        0.0000 
     14 NZ        -56.8920   17.1110  -29.7300 N.4       7 LYP4        0.0000 
     15 NZ        -54.0660   15.3410  -29.5150 N.4       3 LYC4        0.0000 
     16 N         -55.8505   16.7590  -28.8915 N.am      2 SEC2        0.0000 
     17 N         -54.8090   16.4070  -28.0530 N.am     10 SEL2        0.0000 
     18 N         -56.8920   17.1110  -29.7300 N.am      6 SEP2        0.0000 
     19 N         -53.8605   17.3405  -28.9935 N.am      2 SEC2        0.0000 
     20 N         -52.9120   18.2740  -29.9340 N.am      6 SEP2        0.0000 
     21 N         -55.4120   15.4620  -24.9590 N.am      2 SEC2        0.0000 
     22 N         -54.2430   15.9090  -25.6360 N.am     10 SEL2        0.0000 
     23 N         -56.5810   15.0150  -24.2820 N.am      6 SEP2        0.0000 
     24 CA        -51.0525   18.4135  -27.6095 C.3       4 GLC5        0.0000 
     25 CA        -52.2920   17.0760  -27.2500 C.3      12 GLL5        0.0000 
     26 CA        -49.8130   19.7510  -27.9690 C.3       8 GLP5        0.0000 
     27 O         -56.0330   18.2735  -21.8420 O.2       1 ALC1        0.0000 
     28 O         -55.1550   18.4350  -22.7260 O.2       9 ALL1        0.0000 
     29 O         -56.9110   18.1120  -20.9580 O.2       5 ALP1        0.0000 
     30 CA        -58.2125   20.7350  -22.8920 C.3       4 GLC5        0.0000 
     31 CA        -56.6030   19.9630  -23.9670 C.3      12 GLL5        0.0000 
     32 CA        -59.8220   21.5070  -21.8170 C.3       8 GLP5        0.0000 
     33 O         -56.5375   20.4780  -21.4535 O.2       1 ALC1        0.0000 
     34 O         -56.4120   20.8430  -22.8210 O.2       9 ALL1        0.0000 
     35 O         -56.6630   20.1130  -20.0860 O.2       5 ALP1        0.0000 
     36 O         -56.6615   19.4775  -21.8895 O.2       1 ALC1        0.0000 
     37 N         -57.4935   17.9875  -28.7560 N.am      2 SEC2        0.0000 
     38 N         -58.0950   18.8640  -27.7820 N.am     10 SEL2        0.0000 
     39 CA        -61.9000   21.2835  -28.7715 C.3       4 GLC5        0.0000 
     40 CA        -60.3850   19.9410  -27.9410 C.3      12 GLL5        0.0000 
     41 CA        -63.4150   22.6260  -29.6020 C.3       8 GLP5        0.0000 
     42 CA        -62.2995   19.3590  -27.4000 C.3       4 GLC5        0.0000 
     43 CA        -64.2140   18.7770  -26.8590 C.3       8 GLP5        0.0000 
     44 O         -60.3405   17.9760  -29.6060 O.2       1 ALC1        0.0000 
     45 O         -60.9320   19.1350  -28.9730 O.2       9 ALL1        0.0000 
     46 O         -59.7490   16.8170  -30.2390 O.2       5 ALP1        0.0000 
     47 O         -62.2105   19.5745  -29.6985 O.2       1 ALC1        0.0000 
     48 O         -63.4890   20.0140  -30.4240 O.2       5 ALP1        0.0000 
     49 N         -62.4905   21.2455  -27.4460 N.am      2 SEC2        0.0000 
     50 N         -61.1260   20.9080  -27.4220 N.am     10 SEL2        0.0000 
     51 N         -63.8550   21.5830  -27.4700 N.am      6 SEP2        0.0000 
     52 CA        -59.3545   21.8300  -28.1265 C.3       4 GLC5        0.0000 
     53 CA        -60.6530   21.7150  -26.4420 C.3      12 GLL5        0.0000 
     54 CA        -58.0560   21.9450  -29.8110 C.3       8 GLP5        0.0000 
     55 CA        -62.0340   22.1705  -28.0220 C.3       4 GLC5        0.0000 
     56 CA        -62.6465   21.4545  -26.3775 C.3       4 GLC5        0.0000 
     57 CA        -64.6400   21.1940  -26.3130 C.3       8 GLP5        0.0000 
     58 CA        -57.7485   18.6502  -23.7190 C.3       4 GLC5        0.0000 
     59 CA        -59.4310   17.8180  -23.4310 C.3       8 GLP5        0.0000 
     60 CA        -58.6181   21.0785  -28.4462 C.3       4 GLC5        0.0000 
     61 CA        -59.1040   19.7350  -27.4790 C.3      12 GLL5        0.0000 
@<TRIPOS>BOND
@<TRIPOS>SUBSTRUCTURE
     1 ALC1       27 GROUP        1 X    ALC  0     ROOT ALC X 1
     2 SEC2        1 GROUP        1 X    SEC  0     **** SEC X 2
     3 LYC4        4 GROUP        1 X    LYC  0     **** LYC X 4
     4 GLC5       24 GROUP        1 X    GLC  0     **** GLC X 6
     5 ALP1       29 GROUP        1 Y    ALP  0     ROOT ALP Y 8
     6 SEP2        3 GROUP        1 Y    SEP  0     **** SEP Y 9
     7 LYP4        6 GROUP        1 Y    LYP  0     **** LYP Y 11
     8 GLP5       26 GROUP        1 Y    GLP  0     **** GLP Y 13
     9 ALL1       28 GROUP        1 Z    ALL  0     ROOT ALL Z 15
    10 SEL2        2 GROUP        1 Z    SEL  0     **** SEL Z 16
    11 LYL4        5 GROUP        1 Z    LYL  0     **** LYL Z 18
    12 GLL5       25 GROUP        1 Z    GLL  0     **** GLL Z 20
@<TRIPOS>SET

