#    Name: 4mam_A12_2_ligand
#    Modification time : Tue Mar 25 12:07:06 2014

@<TRIPOS>MOLECULE
4mam_A12_2_ligand
   41    43     1     0     0
SMALL
NO_CHARGES


@<TRIPOS>ATOM
      1 PB        -51.2350   15.6730  -26.9120 P.3       1 A12401      0.0000 
      2 O1B       -49.9300   16.0920  -27.5150 O.co2     1 A12401      0.0000 
      3 O2B       -51.7320   14.4290  -27.5990 O.co2     1 A12401      0.0000 
      4 O3B       -51.0880   15.4360  -25.4210 O.co2     1 A12401      0.0000 
      5 PA        -54.0340   16.8280  -26.8320 P.3       1 A12401      0.0000 
      6 O1A       -54.8090   16.4070  -28.0530 O.co2     1 A12401      0.0000 
      7 O2A       -54.2430   15.9090  -25.6360 O.co2     1 A12401      0.0000 
      8 C3A       -52.2920   17.0760  -27.2500 C.3       1 A12401      0.0000 
      9 O5'       -54.4180   18.3000  -26.4230 O.3       1 A12401      0.0000 
     10 C5'       -53.5760   18.8690  -25.4330 C.3       1 A12401      0.0000 
     11 C4'       -54.4300   19.7690  -24.6490 C.3       1 A12401      0.0000 
     12 O4'       -55.0630   20.7210  -25.6290 O.3       1 A12401      0.0000 
     13 C3'       -55.5290   19.0020  -24.0470 C.3       1 A12401      0.0000 
     14 O3'       -55.1550   18.4350  -22.7260 O.3       1 A12401      0.0000 
     15 C2'       -56.6030   19.9630  -23.9670 C.3       1 A12401      0.0000 
     16 O2'       -56.4120   20.8430  -22.8210 O.3       1 A12401      0.0000 
     17 C1'       -56.4970   20.7520  -25.2170 C.3       1 A12401      0.0000 
     18 N9        -57.3110   20.1820  -26.1840 N.pl3     1 A12401      0.0000 
     19 C8        -57.0400   19.1200  -27.0260 C.2       1 A12401      0.0000 
     20 N7        -58.0950   18.8640  -27.7820 N.2       1 A12401      0.0000 
     21 C5        -59.1040   19.7350  -27.4790 C.ar      1 A12401      0.0000 
     22 C6        -60.3850   19.9410  -27.9410 C.ar      1 A12401      0.0000 
     23 N6        -60.9320   19.1350  -28.9730 N.pl3     1 A12401      0.0000 
     24 N1        -61.1260   20.9080  -27.4220 N.ar      1 A12401      0.0000 
     25 C2        -60.6530   21.7150  -26.4420 C.ar      1 A12401      0.0000 
     26 N3        -59.4080   21.5520  -25.9710 N.ar      1 A12401      0.0000 
     27 C4        -58.6160   20.5860  -26.4530 C.ar      1 A12401      0.0000 
     28 H         -52.2563   17.2501  -28.2852 H         1 A12401      0.0000 
     29 H         -51.9532   17.8714  -26.6536 H         1 A12401      0.0000 
     30 H         -52.7639   19.4382  -25.8802 H         1 A12401      0.0000 
     31 H         -53.1575   18.1062  -24.7799 H         1 A12401      0.0000 
     32 H         -53.8886   20.3015  -23.9359 H         1 A12401      0.0000 
     33 H         -55.8056   18.2111  -24.7312 H         1 A12401      0.0000 
     34 H         -57.5436   19.4773  -23.9367 H         1 A12401      0.0000 
     35 H         -56.7667   21.7718  -24.9962 H         1 A12401      0.0000 
     36 H         -56.1862   18.6506  -27.0358 H         1 A12401      0.0000 
     37 H         -61.8550   19.3733  -29.2750 H         1 A12401      0.0000 
     38 H         -60.3482   18.3968  -29.3110 H         1 A12401      0.0000 
     39 H         -61.2667   22.4672  -26.0548 H         1 A12401      0.0000 
     40 H         -55.9798   17.9731  -22.3999 H         1 A12401      0.0000 
     41 H         -56.5525   20.2599  -22.0208 H         1 A12401      0.0000 
@<TRIPOS>BOND
     1    2    1 ar   
     2    3    1 ar   
     3    4    1 ar   
     4    8    1 1    
     5    6    5 ar   
     6    7    5 ar   
     7    8    5 1    
     8    9    5 1    
     9   28    8 1    
    10   29    8 1    
    11   10    9 1    
    12   11   10 1    
    13   30   10 1    
    14   31   10 1    
    15   12   11 1    
    16   13   11 1    
    17   32   11 1    
    18   17   12 1    
    19   14   13 1    
    20   15   13 1    
    21   33   13 1    
    22   40   14 1    
    23   16   15 1    
    24   17   15 1    
    25   34   15 1    
    26   41   16 1    
    27   18   17 1    
    28   35   17 1    
    29   19   18 1    
    30   27   18 1    
    31   20   19 2    
    32   36   19 1    
    33   21   20 1    
    34   22   21 ar   
    35   27   21 ar   
    36   23   22 1    
    37   24   22 ar   
    38   37   23 1    
    39   38   23 1    
    40   25   24 ar   
    41   26   25 ar   
    42   39   25 1    
    43   27   26 ar   
@<TRIPOS>SUBSTRUCTURE
     1 A12401      1 GROUP   
@<TRIPOS>SET

