#    Name: 3tuc_FPW_1_INTS_M
#    Modification time : Mon Mar 24 20:57:17 2014

@<TRIPOS>MOLECULE
3tuc_FPW_1_INTS_M
   99     0     6     0     0
SMALL
NO_CHARGES


@<TRIPOS>ATOM
      1 CA         25.6490   -7.6985   -7.2395 C.3       2 GLC5        0.0000 
      2 CA         23.9080   -6.4870   -7.5310 C.3       6 GLL5        0.0000 
      3 CA         27.3900   -8.9100   -6.9480 C.3       4 GLP5        0.0000 
      4 CA         25.3175   -5.1730   -6.9430 C.3       2 GLC5        0.0000 
      5 CA         26.7270   -3.8590   -6.3550 C.3       4 GLP5        0.0000 
      6 CA         26.0175   -7.2585   -9.4970 C.3       2 GLC5        0.0000 
      7 CA         24.5250   -5.5960   -9.6000 C.3       6 GLL5        0.0000 
      8 CA         27.5100   -8.9210   -9.3940 C.3       4 GLP5        0.0000 
      9 CA         25.6260   -4.7275   -7.9775 C.3       2 GLC5        0.0000 
     10 CA         20.3495   -4.9345   -8.6665 C.3       2 GLC5        0.0000 
     11 CA         22.1670   -5.8320   -9.0750 C.3       6 GLL5        0.0000 
     12 CA         18.5320   -4.0370   -8.2580 C.3       4 GLP5        0.0000 
     13 CA         18.2425   -3.2730   -4.9055 C.3       2 GLC5        0.0000 
     14 CA         19.0480   -5.3450   -4.6960 C.3       6 GLL5        0.0000 
     15 CA         17.4370   -1.2010   -5.1150 C.3       4 GLP5        0.0000 
     16 N          19.1220   -2.9095   -3.8325 N.am      1 SEC2        0.0000 
     17 N          19.5060   -4.0870   -4.5560 N.am      5 SEL2        0.0000 
     18 N          18.7380   -1.7320   -3.1090 N.am      3 SEP2        0.0000 
     19 CA         20.6805   -2.7085   -3.4840 C.3       2 GLC5        0.0000 
     20 CA         20.5620   -3.6550   -5.2150 C.3       6 GLL5        0.0000 
     21 CA         20.7990   -1.7620   -1.7530 C.3       4 GLP5        0.0000 
     22 CA         18.9995   -2.4280   -5.1650 C.3       2 GLC5        0.0000 
     23 CA         18.6925  -10.6385   -4.3310 C.3       2 GLC5        0.0000 
     24 CA         18.2140  -10.2420   -6.1210 C.3       6 GLL5        0.0000 
     25 CA         19.1710  -11.0350   -2.5410 C.3       4 GLP5        0.0000 
     26 CA         18.7995  -12.2950   -5.8750 C.3       2 GLC5        0.0000 
     27 CA         19.3850  -14.3480   -5.6290 C.3       4 GLP5        0.0000 
     28 CA         14.5595   -5.8405   -4.1230 C.3       2 GLC5        0.0000 
     29 CA         15.5480   -6.6630   -2.7590 C.3       6 GLL5        0.0000 
     30 CA         13.5710   -5.0180   -5.4870 C.3       4 GLP5        0.0000 
     31 CA         29.4000   -1.6010  -13.1160 C.3       2 GLC5        0.0000 
     32 CA         29.0030   -3.4690  -13.6460 C.3       6 GLL5        0.0000 
     33 CA         29.7970    0.2670  -12.5860 C.3       4 GLP5        0.0000 
     34 CA         26.9305   -3.0180  -10.3340 C.3       2 GLC5        0.0000 
     35 CA         26.7170   -3.9910  -12.1940 C.3       6 GLL5        0.0000 
     36 CA         27.1440   -2.0450   -8.4740 C.3       4 GLP5        0.0000 
     37 N          27.4700   -7.1030  -11.4525 N.am      1 SEC2        0.0000 
     38 N          27.9290   -5.6820  -11.1300 N.am      5 SEL2        0.0000 
     39 N          27.0110   -8.5240  -11.7750 N.am      3 SEP2        0.0000 
     40 CA         33.5405   -6.5915  -11.5410 C.3       2 GLC5        0.0000 
     41 CA         32.5460   -4.6320  -11.4800 C.3       6 GLL5        0.0000 
     42 CA         34.5350   -8.5510  -11.6020 C.3       4 GLP5        0.0000 
     43 N          23.4725   -3.6965  -12.5930 N.am      1 SEC2        0.0000 
     44 N          24.4920   -3.5710  -11.6000 N.am      5 SEL2        0.0000 
     45 N          22.4530   -3.8220  -13.5860 N.am      3 SEP2        0.0000 
     46 CA         31.5140   -1.8600   -8.0640 C.3       2 GLC5        0.0000 
     47 CA         31.4240   -3.2950   -9.3130 C.3       6 GLL5        0.0000 
     48 CA         31.6040   -0.4250   -6.8150 C.3       4 GLP5        0.0000 
     49 CA         33.0140   -1.8910   -8.5125 C.3       2 GLC5        0.0000 
     50 CA         32.8030   -3.4270   -9.4040 C.3       6 GLL5        0.0000 
     51 CA         33.2250   -0.3550   -7.6210 C.3       4 GLP5        0.0000 
     52 CA         23.2413   -8.4258   -7.2047 C.3       2 GLC5        0.0000 
     53 CA         23.2510  -10.4310   -6.7270 C.3       4 GLP5        0.0000 
     54 CA         21.5242   -4.4860  -10.4937 C.3       2 GLC5        0.0000 
     55 CA         20.3800   -3.3320  -11.4660 C.3       4 GLP5        0.0000 
     56 CA         19.7070   -7.8312   -3.7285 C.3       2 GLC5        0.0000 
     57 CA         19.7440   -6.2590   -5.5260 C.3       6 GLL5        0.0000 
     58 CA         19.8990   -8.7380   -1.8630 C.3       4 GLP5        0.0000 
     59 CA         18.8145   -4.9930   -2.6103 C.3       2 GLC5        0.0000 
     60 CA         19.1740   -4.4250   -0.8360 C.3       4 GLP5        0.0000 
     61 CA         22.0307   -2.6913   -6.7043 C.3       2 GLC5        0.0000 
     62 CA         21.3190   -4.5020   -6.0160 C.3       6 GLL5        0.0000 
     63 CA         23.1210   -1.3040   -7.7930 C.3       4 GLP5        0.0000 
     64 CA         19.7362   -4.0578   -6.9367 C.3       2 GLC5        0.0000 
     65 CA         18.8547   -7.6952   -3.1167 C.3       2 GLC5        0.0000 
     66 CA         18.1150   -7.9870   -5.0710 C.3       6 GLL5        0.0000 
     67 CA         21.3250   -8.0139   -5.1546 C.3       2 GLC5        0.0000 
     68 CA         19.2860   -7.5900   -5.6620 C.3       6 GLL5        0.0000 
     69 CA         22.8370   -9.2090   -4.5540 C.3       4 GLP5        0.0000 
     70 CA         19.1290   -5.3707   -6.9547 C.3       2 GLC5        0.0000 
     71 CA         29.9623   -2.3797  -14.7587 C.3       2 GLC5        0.0000 
     72 CA         31.4800   -1.6680  -15.7420 C.3       4 GLP5        0.0000 
     73 CA         24.8895   -4.1113  -13.6060 C.3       2 GLC5        0.0000 
     74 CA         26.7150   -2.9600  -13.1620 C.3       6 GLL5        0.0000 
     75 CA         23.0630   -4.7470  -14.5340 C.3       4 GLP5        0.0000 
     76 CA         31.1425   -2.1960  -11.3670 C.3       2 GLC5        0.0000 
     77 CA         31.1590   -4.5070  -11.4000 C.3       6 GLL5        0.0000 
     78 CA         31.4010   -0.2150  -11.8850 C.3       4 GLP5        0.0000 
     79 CA         28.0005   -1.6374  -12.2707 C.3       2 GLC5        0.0000 
     80 CA         27.8860   -2.7140  -13.9050 C.3       6 GLL5        0.0000 
     81 CA         28.7000   -0.1800  -11.2500 C.3       4 GLP5        0.0000 
     82 CA         29.5532   -3.3260   -8.5388 C.3       2 GLC5        0.0000 
     83 CA         30.6090   -3.8470  -10.2980 C.3       6 GLL5        0.0000 
     84 CA         28.0900   -3.0810   -7.2720 C.3       4 GLP5        0.0000 
     85 CA         31.2242   -5.9391  -10.2895 C.3       2 GLC5        0.0000 
     86 CA         30.8410   -7.3900   -9.2800 C.3       4 GLP5        0.0000 
     87 CA         31.7572   -1.7880  -10.6218 C.3       2 GLC5        0.0000 
     88 CA         33.5134   -3.9376  -12.6175 C.3       2 GLC5        0.0000 
     89 CA         33.3690   -4.0770  -10.5040 C.3       6 GLL5        0.0000 
     90 CA         34.4160   -3.5520  -14.2630 C.3       4 GLP5        0.0000 
     91 CA         34.3595   -2.4270  -10.3155 C.3       2 GLC5        0.0000 
     92 CA         35.6330   -1.1020  -10.6770 C.3       4 GLP5        0.0000 
     93 CA         34.1780   -4.5990   -8.7705 C.3       2 GLC5        0.0000 
     94 CA         35.2700   -5.4460   -7.5870 C.3       4 GLP5        0.0000 
     95 CA         32.1571   -5.3570   -8.9801 C.3       2 GLC5        0.0000 
     96 CA         31.5730   -6.9950   -8.0290 C.3       4 GLP5        0.0000 
     97 CA         21.6256   -5.1874   -4.2941 C.3       2 GLC5        0.0000 
     98 CA         20.9360   -5.8360   -6.1710 C.3       6 GLL5        0.0000 
     99 CA         22.6980   -5.4260   -2.9600 C.3       4 GLP5        0.0000 
@<TRIPOS>BOND
@<TRIPOS>SUBSTRUCTURE
     1 SEC2       16 GROUP        1 X    SEC  0     ROOT SEC X 2
     2 GLC5        1 GROUP        1 X    GLC  0     **** GLC X 6
     3 SEP2       18 GROUP        1 Y    SEP  0     ROOT SEP Y 9
     4 GLP5        3 GROUP        1 Y    GLP  0     **** GLP Y 13
     5 SEL2       17 GROUP        1 Z    SEL  0     ROOT SEL Z 16
     6 GLL5        2 GROUP        1 Z    GLL  0     **** GLL Z 20
@<TRIPOS>SET

