#    Name: 3tuc_FPW_1_ligand
#    Modification time : Mon Mar 24 20:57:17 2014

@<TRIPOS>MOLECULE
3tuc_FPW_1_ligand
   62    66     1     0     0
SMALL
NO_CHARGES


@<TRIPOS>ATOM
      1 C1         22.5550   -6.3540   -7.8340 C.ar      1 FPW999      0.0000 
      2 C2         23.9080   -6.4870   -7.5310 C.ar      1 FPW999      0.0000 
      3 N3         24.8380   -6.1300   -8.4140 N.ar      1 FPW999      0.0000 
      4 C4         24.5250   -5.5960   -9.6000 C.ar      1 FPW999      0.0000 
      5 C5         23.1700   -5.4480   -9.9680 C.ar      1 FPW999      0.0000 
      6 C6         22.1670   -5.8320   -9.0750 C.ar      1 FPW999      0.0000 
      7 C7         19.7440   -6.2590   -5.5260 C.ar      1 FPW999      0.0000 
      8 C8         19.0480   -5.3450   -4.6960 C.ar      1 FPW999      0.0000 
      9 N9         19.5060   -4.0870   -4.5560 N.ar      1 FPW999      0.0000 
     10 C10        20.5620   -3.6550   -5.2150 C.ar      1 FPW999      0.0000 
     11 C11        21.3190   -4.5020   -6.0160 C.ar      1 FPW999      0.0000 
     12 C12        20.9360   -5.8360   -6.1710 C.ar      1 FPW999      0.0000 
     13 C13        18.1150   -7.9870   -5.0710 C.ar      1 FPW999      0.0000 
     14 C14        17.4030   -7.0690   -4.2650 C.ar      1 FPW999      0.0000 
     15 C15        17.8620   -5.7770   -4.0730 C.ar      1 FPW999      0.0000 
     16 C16        19.2860   -7.5900   -5.6620 C.ar      1 FPW999      0.0000 
     17 O17        21.6210   -6.7500   -6.9330 O.3       1 FPW999      0.0000 
     18 O18        17.6600   -9.2830   -5.1900 O.3       1 FPW999      0.0000 
     19 O19        16.2590   -7.5100   -3.6540 O.3       1 FPW999      0.0000 
     20 C20        18.2140  -10.2420   -6.1210 C.3       1 FPW999      0.0000 
     21 C21        15.5480   -6.6630   -2.7590 C.3       1 FPW999      0.0000 
     22 N22        25.5800   -5.2300  -10.4530 N.am      1 FPW999      0.0000 
     23 N23        29.0290   -4.4600  -12.6880 N.am      1 FPW999      0.0000 
     24 C24        27.9180   -4.7620  -11.9610 C.2       1 FPW999      0.0000 
     25 C25        30.2980   -5.1760  -12.4760 C.3       1 FPW999      0.0000 
     26 C26        29.0030   -3.4690  -13.6460 C.2       1 FPW999      0.0000 
     27 C27        26.7170   -3.9910  -12.1940 C.2       1 FPW999      0.0000 
     28 O28        27.9290   -5.6820  -11.1300 O.2       1 FPW999      0.0000 
     29 C29        31.1590   -4.5070  -11.4000 C.ar      1 FPW999      0.0000 
     30 C30        27.8860   -2.7140  -13.9050 C.2       1 FPW999      0.0000 
     31 C31        26.7150   -2.9600  -13.1620 C.2       1 FPW999      0.0000 
     32 C32        25.5090   -4.2570  -11.4070 C.2       1 FPW999      0.0000 
     33 C33        30.6090   -3.8470  -10.2980 C.ar      1 FPW999      0.0000 
     34 C34        32.5460   -4.6320  -11.4800 C.ar      1 FPW999      0.0000 
     35 O35        24.4920   -3.5710  -11.6000 O.2       1 FPW999      0.0000 
     36 C36        31.4240   -3.2950   -9.3130 C.ar      1 FPW999      0.0000 
     37 C37        33.3690   -4.0770  -10.5040 C.ar      1 FPW999      0.0000 
     38 C38        32.8030   -3.4270   -9.4040 C.ar      1 FPW999      0.0000 
     39 H          24.1664   -6.8721   -6.5977 H         1 FPW999      0.0000 
     40 H          22.9318   -5.0621  -10.8825 H         1 FPW999      0.0000 
     41 H          21.1889   -5.7369   -9.3152 H         1 FPW999      0.0000 
     42 H          20.8656   -2.6492   -5.1540 H         1 FPW999      0.0000 
     43 H          22.1567   -4.1512   -6.4930 H         1 FPW999      0.0000 
     44 H          17.3415   -5.1223   -3.4745 H         1 FPW999      0.0000 
     45 H          19.8516   -8.2527   -6.2143 H         1 FPW999      0.0000 
     46 H          26.4951   -5.7603  -10.3335 H         1 FPW999      0.0000 
     47 H          30.8806   -5.2120  -13.4075 H         1 FPW999      0.0000 
     48 H          30.1081   -6.2137  -12.1666 H         1 FPW999      0.0000 
     49 H          29.8783   -3.2852  -14.2014 H         1 FPW999      0.0000 
     50 H          27.8875   -1.9853  -14.6182 H         1 FPW999      0.0000 
     51 H          25.8787   -2.4056  -13.3175 H         1 FPW999      0.0000 
     52 H          29.5817   -3.7684  -10.2146 H         1 FPW999      0.0000 
     53 H          32.9662   -5.1427  -12.2734 H         1 FPW999      0.0000 
     54 H          31.0042   -2.7919   -8.5221 H         1 FPW999      0.0000 
     55 H          34.3891   -4.1438  -10.5899 H         1 FPW999      0.0000 
     56 H          33.4094   -3.0492   -8.6667 H         1 FPW999      0.0000 
     57 H          19.1853  -10.4074   -5.9499 H         1 FPW999      0.0000 
     58 H          17.7513  -11.1266   -6.0623 H         1 FPW999      0.0000 
     59 H          18.1321   -9.9306   -7.0677 H         1 FPW999      0.0000 
     60 H          16.1119   -6.3890   -1.9800 H         1 FPW999      0.0000 
     61 H          15.2400   -5.8239   -3.2074 H         1 FPW999      0.0000 
     62 H          14.7352   -7.1128   -2.3887 H         1 FPW999      0.0000 
@<TRIPOS>BOND
     1    2    1 ar   
     2    6    1 ar   
     3   17    1 1    
     4    3    2 ar   
     5   39    2 1    
     6    4    3 ar   
     7    5    4 ar   
     8   22    4 1    
     9    6    5 ar   
    10   40    5 1    
    11   41    6 1    
    12    8    7 ar   
    13   12    7 ar   
    14   16    7 ar   
    15    9    8 ar   
    16   15    8 ar   
    17   10    9 ar   
    18   11   10 ar   
    19   42   10 1    
    20   12   11 ar   
    21   43   11 1    
    22   17   12 1    
    23   14   13 ar   
    24   16   13 ar   
    25   18   13 1    
    26   15   14 ar   
    27   19   14 1    
    28   44   15 1    
    29   45   16 1    
    30   20   18 1    
    31   21   19 1    
    32   57   20 1    
    33   58   20 1    
    34   59   20 1    
    35   60   21 1    
    36   61   21 1    
    37   62   21 1    
    38   32   22 am   
    39   46   22 1    
    40   24   23 am   
    41   25   23 1    
    42   26   23 1    
    43   27   24 1    
    44   28   24 2    
    45   29   25 1    
    46   47   25 1    
    47   48   25 1    
    48   30   26 2    
    49   49   26 1    
    50   31   27 2    
    51   32   27 1    
    52   33   29 ar   
    53   34   29 ar   
    54   31   30 1    
    55   50   30 1    
    56   51   31 1    
    57   35   32 2    
    58   36   33 ar   
    59   52   33 1    
    60   37   34 ar   
    61   53   34 1    
    62   38   36 ar   
    63   54   36 1    
    64   38   37 ar   
    65   55   37 1    
    66   56   38 1    
@<TRIPOS>SUBSTRUCTURE
     1 FPW999      1 GROUP   
@<TRIPOS>SET

