#    Name: 4jic_FMN_3_INTS_M
#    Modification time : Tue Mar 25 05:55:19 2014

@<TRIPOS>MOLECULE
4jic_FMN_3_INTS_M
   88     0    12     0     0
SMALL
NO_CHARGES


@<TRIPOS>ATOM
      1 N          -2.2095    6.2415  113.6470 N.am      2 SEC2        0.0000 
      2 N          -2.1850    5.7940  115.0260 N.am     10 SEL2        0.0000 
      3 N          -2.2340    6.6890  112.2680 N.am      6 SEP2        0.0000 
      4 N          -1.6850    4.5515  115.1490 N.am      2 SEC2        0.0000 
      5 N          -1.1850    3.3090  115.2720 N.am      6 SEP2        0.0000 
      6 O          -1.2595    8.2065  114.1935 O.2       1 ALC1        0.0000 
      7 O          -1.0340    7.6930  115.5180 O.2       9 ALL1        0.0000 
      8 O          -1.4850    8.7200  112.8690 O.2       5 ALP1        0.0000 
      9 N           0.3085   10.6270  116.8985 N.am      2 SEC2        0.0000 
     10 N           0.1060    9.5430  116.1570 N.am     10 SEL2        0.0000 
     11 N           0.5110   11.7110  117.6400 N.am      6 SEP2        0.0000 
     12 N           0.3540   10.4515  114.8735 N.am      2 SEC2        0.0000 
     13 N           0.6020   11.3600  113.5900 N.am      6 SEP2        0.0000 
     14 N           2.0600    9.2645  117.9455 N.am      2 SEC2        0.0000 
     15 N           1.1140    8.3470  118.3960 N.am     10 SEL2        0.0000 
     16 N           3.0060   10.1820  117.4950 N.am      6 SEP2        0.0000 
     17 CA          1.6880    9.7085  118.9640 C.3       4 GLC5        0.0000 
     18 CA          1.8150    7.5950  119.3200 C.3      12 GLL5        0.0000 
     19 CA          1.5610   11.8220  118.6080 C.3       8 GLP5        0.0000 
     20 CA          2.8420    9.8965  119.0080 C.3       4 GLC5        0.0000 
     21 CA          2.7800    8.2110  120.1140 C.3      12 GLL5        0.0000 
     22 CA          2.9040   11.5820  117.9020 C.3       8 GLP5        0.0000 
     23 CA          6.3470    7.2840  121.3930 C.3       4 GLC5        0.0000 
     24 CA          4.5720    8.1360  121.8710 C.3      12 GLL5        0.0000 
     25 CA          8.1220    6.4320  120.9150 C.3       8 GLP5        0.0000 
     26 CA          5.7795    8.7345  123.1645 C.3       4 GLC5        0.0000 
     27 CA          6.9870    9.3330  124.4580 C.3       8 GLP5        0.0000 
     28 CA          3.4195    8.9950  122.7970 C.3       4 GLC5        0.0000 
     29 CA          2.2670    9.8540  123.7230 C.3       8 GLP5        0.0000 
     30 CA          5.3340    3.8445  122.4015 C.3       4 GLC5        0.0000 
     31 CA          4.0570    5.3050  122.1770 C.3      12 GLL5        0.0000 
     32 CA          6.6110    2.3840  122.6260 C.3       8 GLP5        0.0000 
     33 CA          6.0895    5.8685  121.5460 C.3       4 GLC5        0.0000 
     34 CA          5.3300    6.0885  123.4905 C.3       4 GLC5        0.0000 
     35 CA          6.6030    6.8720  124.8040 C.3       8 GLP5        0.0000 
     36 CA         -0.9215    3.1825  119.5465 C.3       4 GLC5        0.0000 
     37 CA          0.4470    4.1170  118.7400 C.3      12 GLL5        0.0000 
     38 CA         -2.2900    2.2480  120.3530 C.3       8 GLP5        0.0000 
     39 CA          3.3840    4.4580  118.0505 C.3       4 GLC5        0.0000 
     40 CA          1.5620    3.4270  117.9480 C.3      12 GLL5        0.0000 
     41 CA          5.2060    5.4890  118.1530 C.3       8 GLP5        0.0000 
     42 N           0.1335    3.5145  115.9155 N.am      2 SEC2        0.0000 
     43 N           1.4520    3.7200  116.5590 N.am     10 SEL2        0.0000 
     44 N           0.7220    2.5675  115.6365 N.am      2 SEC2        0.0000 
     45 N          -0.0080    1.4150  114.7140 N.am      6 SEP2        0.0000 
     46 O           1.9400    4.9115  116.1895 O.2       1 ALC1        0.0000 
     47 O           1.4520    3.7200  116.5590 O.2       9 ALL1        0.0000 
     48 O           2.4280    6.1030  115.8200 O.2       5 ALP1        0.0000 
     49 N          -0.4830    2.3685  116.5405 N.am      2 SEC2        0.0000 
     50 N           0.2190    1.4280  117.8090 N.am     10 SEL2        0.0000 
     51 N           0.1055    1.4215  116.2615 N.am      2 SEC2        0.0000 
     52 O           0.2215    0.2020  117.3185 O.2       1 ALC1        0.0000 
     53 O           0.2190    1.4280  117.8090 O.2       9 ALL1        0.0000 
     54 O           0.2240   -1.0240  116.8280 O.2       5 ALP1        0.0000 
     55 CA          1.0585   -0.0315  121.7095 C.3       4 GLC5        0.0000 
     56 CA          1.9220    0.0030  119.7760 C.3      12 GLL5        0.0000 
     57 CA          0.1950   -0.0660  123.6430 C.3       8 GLP5        0.0000 
     58 CA          1.4640   -1.8955  119.2430 C.3       4 GLC5        0.0000 
     59 CA          1.0060   -3.7940  118.7100 C.3       8 GLP5        0.0000 
     60 N           2.6560   -0.7880  117.5340 N.am      2 SEC2        0.0000 
     61 N           2.9550   -0.5490  118.9910 N.am     10 SEL2        0.0000 
     62 N           2.3570   -1.0270  116.0770 N.am      6 SEP2        0.0000 
     63 NZ          4.7955    0.1320  121.8480 N.4       3 LYC4        0.0000 
     64 NZ          4.8780    0.1620  120.4150 N.4      11 LYL4        0.0000 
     65 NZ          4.7130    0.1020  123.2810 N.4       7 LYP4        0.0000 
     66 N           6.0250    0.9825  120.0395 N.am      2 SEC2        0.0000 
     67 N           4.8780    0.1620  120.4150 N.am     10 SEL2        0.0000 
     68 N           7.1720    1.8030  119.6640 N.am      6 SEP2        0.0000 
     69 N           4.7955    0.1320  121.8480 N.am      2 SEC2        0.0000 
     70 N           4.7130    0.1020  123.2810 N.am      6 SEP2        0.0000 
     71 NZ          4.3940   -1.0300  121.9540 N.4       3 LYC4        0.0000 
     72 NZ          4.0750   -2.1620  120.6270 N.4      11 LYL4        0.0000 
     73 N           3.3840   -3.4170  120.4095 N.am      2 SEC2        0.0000 
     74 N           4.0750   -2.1620  120.6270 N.am     10 SEL2        0.0000 
     75 N           2.6930   -4.6720  120.1920 N.am      6 SEP2        0.0000 
     76 N           5.7080   -0.4370  117.7690 N.am      2 SEC2        0.0000 
     77 N           5.2390   -1.4530  118.5540 N.am     10 SEL2        0.0000 
     78 N           6.1770    0.5790  116.9840 N.am      6 SEP2        0.0000 
     79 CA          3.1997    8.0570  118.1515 C.3       4 GLC5        0.0000 
     80 CA          4.1020    8.2110  116.5860 C.3       8 GLP5        0.0000 
     81 CA          4.4631    5.7680  119.8994 C.3       4 GLC5        0.0000 
     82 CA          3.5040    7.4710  121.0450 C.3      12 GLL5        0.0000 
     83 CA          3.5617    5.6768  119.0495 C.3       4 GLC5        0.0000 
     84 CA          2.2810    5.4930  120.4100 C.3      12 GLL5        0.0000 
     85 CA          2.7012    2.4690  116.2542 C.3       4 GLC5        0.0000 
     86 CA          3.8660    2.2680  114.4610 C.3       8 GLP5        0.0000 
     87 CA         -0.3105    1.9805  119.6102 C.3       4 GLC5        0.0000 
     88 CA          1.5110    1.9130  118.1470 C.3      12 GLL5        0.0000 
@<TRIPOS>BOND
@<TRIPOS>SUBSTRUCTURE
     1 ALC1        6 GROUP        1 X    ALC  0     ROOT ALC X 1
     2 SEC2        1 GROUP        1 X    SEC  0     **** SEC X 2
     3 LYC4       63 GROUP        1 X    LYC  0     **** LYC X 4
     4 GLC5       17 GROUP        1 X    GLC  0     **** GLC X 6
     5 ALP1        8 GROUP        1 Y    ALP  0     ROOT ALP Y 8
     6 SEP2        3 GROUP        1 Y    SEP  0     **** SEP Y 9
     7 LYP4       65 GROUP        1 Y    LYP  0     **** LYP Y 11
     8 GLP5       19 GROUP        1 Y    GLP  0     **** GLP Y 13
     9 ALL1        7 GROUP        1 Z    ALL  0     ROOT ALL Z 15
    10 SEL2        2 GROUP        1 Z    SEL  0     **** SEL Z 16
    11 LYL4       64 GROUP        1 Z    LYL  0     **** LYL Z 18
    12 GLL5       18 GROUP        1 Z    GLL  0     **** GLL Z 20
@<TRIPOS>SET

