#    Name: 4jic_FMN_3_ligand
#    Modification time : Tue Mar 25 05:55:19 2014

@<TRIPOS>MOLECULE
4jic_FMN_3_ligand
   50    52     1     0     0
SMALL
NO_CHARGES


@<TRIPOS>ATOM
      1 N1         -0.8600    5.7080  116.8290 N.2       1 FMN401      0.0000 
      2 C2         -1.3900    6.3800  115.7630 C.2       1 FMN401      0.0000 
      3 O2         -2.1850    5.7940  115.0260 O.2       1 FMN401      0.0000 
      4 N3         -1.0340    7.6930  115.5180 N.am      1 FMN401      0.0000 
      5 C4         -0.1850    8.3630  116.3760 C.2       1 FMN401      0.0000 
      6 O4          0.1060    9.5430  116.1570 O.2       1 FMN401      0.0000 
      7 C4A         0.3330    7.6860  117.4780 C.2       1 FMN401      0.0000 
      8 N5          1.1140    8.3470  118.3960 N.2       1 FMN401      0.0000 
      9 C5A         1.8150    7.5950  119.3200 C.ar      1 FMN401      0.0000 
     10 C6          2.7800    8.2110  120.1140 C.ar      1 FMN401      0.0000 
     11 C7          3.5040    7.4710  121.0450 C.ar      1 FMN401      0.0000 
     12 C7M         4.5720    8.1360  121.8710 C.3       1 FMN401      0.0000 
     13 C8          3.2630    6.1070  121.1840 C.ar      1 FMN401      0.0000 
     14 C8M         4.0570    5.3050  122.1770 C.3       1 FMN401      0.0000 
     15 C9          2.2810    5.4930  120.4100 C.ar      1 FMN401      0.0000 
     16 C9A         1.5540    6.2360  119.4820 C.ar      1 FMN401      0.0000 
     17 N10         0.5870    5.6180  118.7130 N.pl3     1 FMN401      0.0000 
     18 C10         0.0050    6.3470  117.6910 C.2       1 FMN401      0.0000 
     19 C1'         0.4470    4.1170  118.7400 C.3       1 FMN401      0.0000 
     20 C2'         1.5620    3.4270  117.9480 C.3       1 FMN401      0.0000 
     21 O2'         1.4520    3.7200  116.5590 O.3       1 FMN401      0.0000 
     22 C3'         1.5110    1.9130  118.1470 C.3       1 FMN401      0.0000 
     23 O3'         0.2190    1.4280  117.8090 O.3       1 FMN401      0.0000 
     24 C4'         1.8270    1.5130  119.5880 C.3       1 FMN401      0.0000 
     25 O4'         3.0370    2.1000  120.0350 O.3       1 FMN401      0.0000 
     26 C5'         1.9220    0.0030  119.7760 C.3       1 FMN401      0.0000 
     27 O5'         2.9550   -0.5490  118.9910 O.3       1 FMN401      0.0000 
     28 P           4.3290   -1.0250  119.6720 P.3       1 FMN401      0.0000 
     29 O1P         4.8780    0.1620  120.4150 O.co2     1 FMN401      0.0000 
     30 O2P         4.0750   -2.1620  120.6270 O.co2     1 FMN401      0.0000 
     31 O3P         5.2390   -1.4530  118.5540 O.co2     1 FMN401      0.0000 
     32 H          -1.4080    8.1779  114.6829 H         1 FMN401      0.0000 
     33 H           2.9587    9.2206  120.0113 H         1 FMN401      0.0000 
     34 H           2.0918    4.4883  120.5236 H         1 FMN401      0.0000 
     35 H          -0.5186    3.8286  118.3122 H         1 FMN401      0.0000 
     36 H           0.4792    3.7619  119.7751 H         1 FMN401      0.0000 
     37 H           2.5143    3.7765  118.3417 H         1 FMN401      0.0000 
     38 H           2.2658    1.4643  117.5055 H         1 FMN401      0.0000 
     39 H           0.9914    1.8605  120.2176 H         1 FMN401      0.0000 
     40 H           0.9349   -0.4241  119.5199 H         1 FMN401      0.0000 
     41 H           2.0761   -0.1862  120.8544 H         1 FMN401      0.0000 
     42 H           5.0100    7.4929  122.4991 H         1 FMN401      0.0000 
     43 H           5.2943    8.5259  121.2998 H         1 FMN401      0.0000 
     44 H           4.2023    8.8815  122.4255 H         1 FMN401      0.0000 
     45 H           5.0367    5.3332  121.9786 H         1 FMN401      0.0000 
     46 H           3.9369    5.6449  123.1098 H         1 FMN401      0.0000 
     47 H           3.7859    4.3425  122.1786 H         1 FMN401      0.0000 
     48 H           1.8937    4.6101  116.4466 H         1 FMN401      0.0000 
     49 H           0.2771    0.4362  117.9228 H         1 FMN401      0.0000 
     50 H           3.6810    1.3388  120.1114 H         1 FMN401      0.0000 
@<TRIPOS>BOND
     1    2    1 1    
     2   18    1 2    
     3    3    2 2    
     4    4    2 am   
     5    5    4 am   
     6   32    4 1    
     7    6    5 2    
     8    7    5 1    
     9    8    7 2    
    10   18    7 1    
    11    9    8 1    
    12   10    9 ar   
    13   16    9 ar   
    14   11   10 ar   
    15   33   10 1    
    16   12   11 1    
    17   13   11 ar   
    18   42   12 1    
    19   43   12 1    
    20   44   12 1    
    21   14   13 1    
    22   15   13 ar   
    23   45   14 1    
    24   46   14 1    
    25   47   14 1    
    26   16   15 ar   
    27   34   15 1    
    28   17   16 1    
    29   18   17 1    
    30   19   17 1    
    31   20   19 1    
    32   35   19 1    
    33   36   19 1    
    34   21   20 1    
    35   22   20 1    
    36   37   20 1    
    37   48   21 1    
    38   23   22 1    
    39   24   22 1    
    40   38   22 1    
    41   49   23 1    
    42   25   24 1    
    43   26   24 1    
    44   39   24 1    
    45   50   25 1    
    46   27   26 1    
    47   40   26 1    
    48   41   26 1    
    49   28   27 1    
    50   29   28 ar   
    51   30   28 ar   
    52   31   28 ar   
@<TRIPOS>SUBSTRUCTURE
     1 FMN401      1 GROUP   
@<TRIPOS>SET

