#    Name: 1l2j_ETC_1_INTS_M
#    Modification time : Mon Apr  7 13:54:12 2014

@<TRIPOS>MOLECULE
1l2j_ETC_1_INTS_M
   83     0     9     0     0
SMALL
NO_CHARGES


@<TRIPOS>ATOM
      1 CA         27.6740   84.9585  -13.1165 C.3       3 GLC5        0.0000 
      2 CA         29.4720   84.5280  -13.2620 C.3       9 GLL5        0.0000 
      3 CA         25.8760   85.3890  -12.9710 C.3       6 GLP5        0.0000 
      4 CA         29.3195   86.1310  -11.7515 C.3       3 GLC5        0.0000 
      5 CA         29.1670   87.7340  -10.2410 C.3       6 GLP5        0.0000 
      6 CA         29.0200   83.7430  -10.3725 C.3       3 GLC5        0.0000 
      7 CA         30.9790   83.5710  -11.4000 C.3       9 GLL5        0.0000 
      8 CA         27.0610   83.9150   -9.3450 C.3       6 GLP5        0.0000 
      9 CA         32.2450   85.6110   -9.2110 C.3       3 GLC5        0.0000 
     10 CA         31.8860   84.7890  -11.2000 C.3       9 GLL5        0.0000 
     11 CA         32.6040   86.4330   -7.2220 C.3       6 GLP5        0.0000 
     12 CA         30.5265   86.2615  -10.7205 C.3       3 GLC5        0.0000 
     13 CA         34.8050   82.5575  -14.3070 C.3       3 GLC5        0.0000 
     14 CA         35.1320   82.9550  -12.1170 C.3       9 GLL5        0.0000 
     15 CA         34.4780   82.1600  -16.4970 C.3       6 GLP5        0.0000 
     16 CA         35.9420   82.9740  -14.5640 C.3       3 GLC5        0.0000 
     17 CA         35.9150   84.0210  -12.5950 C.3       9 GLL5        0.0000 
     18 CA         35.9690   81.9270  -16.5330 C.3       6 GLP5        0.0000 
     19 CA         37.6450   84.3300  -11.5425 C.3       3 GLC5        0.0000 
     20 CA         39.3750   84.6390  -10.4900 C.3       6 GLP5        0.0000 
     21 CA         35.3630   87.0530  -12.0395 C.3       3 GLC5        0.0000 
     22 CA         35.3720   85.3170  -12.5940 C.3       9 GLL5        0.0000 
     23 CA         35.3540   88.7890  -11.4850 C.3       6 GLP5        0.0000 
     24 O          37.2650   86.5720  -11.9085 O.2       1 ALC1        0.0000 
     25 O          36.1680   86.3690  -13.0050 O.2       7 ALL1        0.0000 
     26 O          38.3620   86.7750  -10.8120 O.2       4 ALP1        0.0000 
     27 CA         34.3105   87.2695  -12.4585 C.3       3 GLC5        0.0000 
     28 CA         34.0690   85.5890  -12.1470 C.3       9 GLL5        0.0000 
     29 CA         34.5520   88.9500  -12.7700 C.3       6 GLP5        0.0000 
     30 CA         33.8535   86.5820  -10.9885 C.3       3 GLC5        0.0000 
     31 CA         33.2890   84.5330  -11.6790 C.3       9 GLL5        0.0000 
     32 CA         34.4180   88.6310  -10.2980 C.3       6 GLP5        0.0000 
     33 CA         32.1175   80.2625   -7.6945 C.3       3 GLC5        0.0000 
     34 CA         32.9600   80.2010   -9.5800 C.3       9 GLL5        0.0000 
     35 CA         31.2750   80.3240   -5.8090 C.3       6 GLP5        0.0000 
     36 CA         34.5070   79.6505   -8.3700 C.3       3 GLC5        0.0000 
     37 CA         36.0540   79.1000   -7.1600 C.3       6 GLP5        0.0000 
     38 CA         35.6100   80.6180   -9.8875 C.3       3 GLC5        0.0000 
     39 CA         33.6170   80.8160  -10.8230 C.3       9 GLL5        0.0000 
     40 CA         37.6030   80.4200   -8.9520 C.3       6 GLP5        0.0000 
     41 CA         31.9470   78.8500  -12.5845 C.3       3 GLC5        0.0000 
     42 CA         33.4570   79.8620  -12.0570 C.3       9 GLL5        0.0000 
     43 CA         30.4370   77.8380  -13.1120 C.3       6 GLP5        0.0000 
     44 CA         32.8110   77.8665  -12.9255 C.3       3 GLC5        0.0000 
     45 CA         34.3010   78.5880  -11.9150 C.3       9 GLL5        0.0000 
     46 CA         31.3210   77.1450  -13.9360 C.3       6 GLP5        0.0000 
     47 CA         36.3185   79.1650  -12.1340 C.3       3 GLC5        0.0000 
     48 CA         38.3360   79.7420  -12.3530 C.3       6 GLP5        0.0000 
     49 CA         35.1830   77.0585  -11.1380 C.3       3 GLC5        0.0000 
     50 CA         36.0650   75.5290  -10.3610 C.3       6 GLP5        0.0000 
     51 CA         31.0000   79.7280   -7.5055 C.3       3 GLC5        0.0000 
     52 CA         30.7250   79.1320   -9.2020 C.3       9 GLL5        0.0000 
     53 CA         29.0520   79.8130   -7.5295 C.3       3 GLC5        0.0000 
     54 CA         29.3510   79.1470   -9.3500 C.3       9 GLL5        0.0000 
     55 CA         28.7530   80.4790   -5.7090 C.3       6 GLP5        0.0000 
     56 N          28.3015   76.5215   -8.7015 N.am      2 SEC2        0.0000 
     57 N          28.6290   78.1190   -8.8450 N.am      8 SEL2        0.0000 
     58 N          27.9740   74.9240   -8.5580 N.am      5 SEP2        0.0000 
     59 O          27.5765   78.5285   -8.2220 O.2       1 ALC1        0.0000 
     60 O          28.6290   78.1190   -8.8450 O.2       7 ALL1        0.0000 
     61 O          26.5240   78.9380   -7.5990 O.2       4 ALP1        0.0000 
     62 CA         26.9395   79.0285  -10.5530 C.3       3 GLC5        0.0000 
     63 CA         28.6830   80.1700  -10.0060 C.3       9 GLL5        0.0000 
     64 CA         25.1960   77.8870  -11.1000 C.3       6 GLP5        0.0000 
     65 CA         27.3535   81.5845   -9.3625 C.3       3 GLC5        0.0000 
     66 CA         26.0240   82.9990   -8.7190 C.3       6 GLP5        0.0000 
     67 CA         28.2405   82.5810   -9.9405 C.3       3 GLC5        0.0000 
     68 CA         29.4200   81.2470  -10.5360 C.3       9 GLL5        0.0000 
     69 CA         28.9473   82.9820  -13.9962 C.3       3 GLC5        0.0000 
     70 CA         30.5310   83.4540  -12.8890 C.3       9 GLL5        0.0000 
     71 CA         27.8930   81.9730  -14.9170 C.3       6 GLP5        0.0000 
     72 CA         34.9552   83.2104   -9.8166 C.3       3 GLC5        0.0000 
     73 CA         32.9760   82.1540  -11.1290 C.3       9 GLL5        0.0000 
     74 CA         35.6490   83.6020   -7.8820 C.3       6 GLP5        0.0000 
     75 CA         35.8928   84.9880  -10.4992 C.3       3 GLC5        0.0000 
     76 CA         36.1420   85.3070   -8.4040 C.3       6 GLP5        0.0000 
     77 CA         34.9105   85.1840  -10.1585 C.3       3 GLC5        0.0000 
     78 CA         30.7293   81.6170   -8.4841 C.3       3 GLC5        0.0000 
     79 CA         31.6400   82.3210  -10.9660 C.3       9 GLL5        0.0000 
     80 CA         30.1100   82.2440   -6.7670 C.3       6 GLP5        0.0000 
     81 CA         33.3375   77.4035  -11.5345 C.3       3 GLC5        0.0000 
     82 CA         32.7960   75.5820  -11.0830 C.3       6 GLP5        0.0000 
     83 CA         29.5808   81.4762   -8.5190 C.3       3 GLC5        0.0000 
@<TRIPOS>BOND
@<TRIPOS>SUBSTRUCTURE
     1 ALC1       24 GROUP        1 X    ALC  0     ROOT ALC X 1
     2 SEC2       56 GROUP        1 X    SEC  0     **** SEC X 2
     3 GLC5        1 GROUP        1 X    GLC  0     **** GLC X 6
     4 ALP1       26 GROUP        1 Y    ALP  0     ROOT ALP Y 8
     5 SEP2       58 GROUP        1 Y    SEP  0     **** SEP Y 9
     6 GLP5        3 GROUP        1 Y    GLP  0     **** GLP Y 13
     7 ALL1       25 GROUP        1 Z    ALL  0     ROOT ALL Z 15
     8 SEL2       57 GROUP        1 Z    SEL  0     **** SEL Z 16
     9 GLL5        2 GROUP        1 Z    GLL  0     **** GLL Z 20
@<TRIPOS>SET

