#    Name: 1l2j_ETC_1_ligand
#    Modification time : Mon Apr  7 13:54:12 2014

@<TRIPOS>MOLECULE
1l2j_ETC_1_ligand
   48    51     1     0     0
SMALL
NO_CHARGES


@<TRIPOS>ATOM
      1 C22        29.4720   84.5280  -13.2620 C.3       1 ETC600      0.0000 
      2 C21        30.5310   83.4540  -12.8890 C.3       1 ETC600      0.0000 
      3 C11        30.9790   83.5710  -11.4000 C.3       1 ETC600      0.0000 
      4 C12        31.8860   84.7890  -11.2000 C.3       1 ETC600      0.0000 
      5 C9         31.6400   82.3210  -10.9660 C.2       1 ETC600      0.0000 
      6 C8         32.9760   82.1540  -11.1290 C.2       1 ETC600      0.0000 
      7 C14        33.8060   83.2110  -11.6420 C.ar      1 ETC600      0.0000 
      8 C15        35.1320   82.9550  -12.1170 C.ar      1 ETC600      0.0000 
      9 C16        35.9150   84.0210  -12.5950 C.ar      1 ETC600      0.0000 
     10 C17        35.3720   85.3170  -12.5940 C.ar      1 ETC600      0.0000 
     11 O25        36.1680   86.3690  -13.0050 O.3       1 ETC600      0.0000 
     12 C18        34.0690   85.5890  -12.1470 C.ar      1 ETC600      0.0000 
     13 C13        33.2890   84.5330  -11.6790 C.ar      1 ETC600      0.0000 
     14 C10        30.8240   81.2610  -10.3990 C.ar      1 ETC600      0.0000 
     15 C5         31.4650   80.1890   -9.7200 C.ar      1 ETC600      0.0000 
     16 C6         32.9600   80.2010   -9.5800 C.3       1 ETC600      0.0000 
     17 C7         33.6170   80.8160  -10.8230 C.3       1 ETC600      0.0000 
     18 C20        33.4570   79.8620  -12.0570 C.3       1 ETC600      0.0000 
     19 C19        34.3010   78.5880  -11.9150 C.3       1 ETC600      0.0000 
     20 C4         30.7250   79.1320   -9.2020 C.ar      1 ETC600      0.0000 
     21 C3         29.3510   79.1470   -9.3500 C.ar      1 ETC600      0.0000 
     22 O23        28.6290   78.1190   -8.8450 O.3       1 ETC600      0.0000 
     23 C2         28.6830   80.1700  -10.0060 C.ar      1 ETC600      0.0000 
     24 C1         29.4200   81.2470  -10.5360 C.ar      1 ETC600      0.0000 
     25 H          31.4018   83.5776  -13.5280 H         1 ETC600      0.0000 
     26 H          30.1067   82.4663  -13.0510 H         1 ETC600      0.0000 
     27 H          30.0721   83.7260  -10.8099 H         1 ETC600      0.0000 
     28 H          31.8994   85.0453  -10.1343 H         1 ETC600      0.0000 
     29 H          31.4578   85.6385  -11.7446 H         1 ETC600      0.0000 
     30 H          35.4944   82.0064  -12.1042 H         1 ETC600      0.0000 
     31 H          36.8576   83.8562  -12.9353 H         1 ETC600      0.0000 
     32 H          33.7065   86.5380  -12.1662 H         1 ETC600      0.0000 
     33 H          33.3314   79.1832   -9.4559 H         1 ETC600      0.0000 
     34 H          33.2483   80.7867   -8.7064 H         1 ETC600      0.0000 
     35 H          34.6624   80.9519  -10.6391 H         1 ETC600      0.0000 
     36 H          33.7621   80.4048  -12.9506 H         1 ETC600      0.0000 
     37 H          32.4050   79.5952  -12.1487 H         1 ETC600      0.0000 
     38 H          31.1915   78.3610   -8.7219 H         1 ETC600      0.0000 
     39 H          27.6670   80.1518  -10.1090 H         1 ETC600      0.0000 
     40 H          28.9443   82.0096  -11.0142 H         1 ETC600      0.0000 
     41 H          29.8244   85.4557  -13.1383 H         1 ETC600      0.0000 
     42 H          29.1830   84.4490  -14.2161 H         1 ETC600      0.0000 
     43 H          28.6492   84.4495  -12.6991 H         1 ETC600      0.0000 
     44 H          35.2761   78.7953  -11.8363 H         1 ETC600      0.0000 
     45 H          34.0466   78.0625  -11.1031 H         1 ETC600      0.0000 
     46 H          34.1930   77.9813  -12.7025 H         1 ETC600      0.0000 
     47 H          36.8257   86.5009  -12.2633 H         1 ETC600      0.0000 
     48 H          27.6884   78.4567   -8.8089 H         1 ETC600      0.0000 
@<TRIPOS>BOND
     1    2    1 1    
     2   41    1 1    
     3   42    1 1    
     4   43    1 1    
     5    3    2 1    
     6   25    2 1    
     7   26    2 1    
     8    4    3 1    
     9    5    3 1    
    10   27    3 1    
    11   13    4 1    
    12   28    4 1    
    13   29    4 1    
    14    6    5 2    
    15   14    5 1    
    16    7    6 1    
    17   17    6 1    
    18    8    7 ar   
    19   13    7 ar   
    20    9    8 ar   
    21   30    8 1    
    22   10    9 ar   
    23   31    9 1    
    24   11   10 1    
    25   12   10 ar   
    26   47   11 1    
    27   13   12 ar   
    28   32   12 1    
    29   15   14 ar   
    30   24   14 ar   
    31   16   15 1    
    32   20   15 ar   
    33   17   16 1    
    34   33   16 1    
    35   34   16 1    
    36   18   17 1    
    37   35   17 1    
    38   19   18 1    
    39   36   18 1    
    40   37   18 1    
    41   44   19 1    
    42   45   19 1    
    43   46   19 1    
    44   21   20 ar   
    45   38   20 1    
    46   22   21 1    
    47   23   21 ar   
    48   48   22 1    
    49   24   23 ar   
    50   39   23 1    
    51   40   24 1    
@<TRIPOS>SUBSTRUCTURE
     1 ETC600      1 GROUP   
@<TRIPOS>SET

