#    Name: 3k2b_NAD_7_INTS_M
#    Modification time : Mon Mar 24 18:03:12 2014

@<TRIPOS>MOLECULE
3k2b_NAD_7_INTS_M
   69     0     9     0     0
SMALL
NO_CHARGES


@<TRIPOS>ATOM
      1 N          47.0555  114.4890   82.7720 N.am      2 SEC2        0.0000 
      2 N          46.7750  115.7990   81.8020 N.am      8 SEL2        0.0000 
      3 N          47.3360  113.1790   83.7420 N.am      5 SEP2        0.0000 
      4 CA         45.1620  111.1365   78.1475 C.3       3 GLC5        0.0000 
      5 CA         45.5580  113.2820   78.4570 C.3       9 GLL5        0.0000 
      6 CA         44.7660  108.9910   77.8380 C.3       6 GLP5        0.0000 
      7 O          47.8475  111.7000   77.5025 O.2       1 ALC1        0.0000 
      8 O          47.9670  113.0310   78.2620 O.2       7 ALL1        0.0000 
      9 O          47.7280  110.3690   76.7430 O.2       4 ALP1        0.0000 
     10 CA         45.2645  110.8125   77.0120 C.3       3 GLC5        0.0000 
     11 CA         45.7630  112.6340   76.1860 C.3       9 GLL5        0.0000 
     12 CA         42.4765  111.5640   74.7560 C.3       3 GLC5        0.0000 
     13 CA         43.6230  112.0460   73.2610 C.3       9 GLL5        0.0000 
     14 CA         41.3300  111.0820   76.2510 C.3       6 GLP5        0.0000 
     15 CA         43.7055  110.3750   70.3685 C.3       3 GLC5        0.0000 
     16 CA         43.2040  111.0950   72.2580 C.3       9 GLL5        0.0000 
     17 CA         44.2070  109.6550   68.4790 C.3       6 GLP5        0.0000 
     18 CA         42.5405  110.3970   74.1090 C.3       3 GLC5        0.0000 
     19 CA         41.8770  109.6990   75.9600 C.3       6 GLP5        0.0000 
     20 O          42.0725  110.5575   69.9550 O.2       1 ALC1        0.0000 
     21 O          42.3110  111.3550   71.2990 O.2       7 ALL1        0.0000 
     22 O          41.8340  109.7600   68.6110 O.2       4 ALP1        0.0000 
     23 CA         46.4560  108.8240   73.9300 C.3       3 GLC5        0.0000 
     24 CA         44.6880  109.5300   73.2670 C.3       9 GLL5        0.0000 
     25 CA         48.2240  108.1180   74.5930 C.3       6 GLP5        0.0000 
     26 CA         45.7745  110.4145   71.9035 C.3       3 GLC5        0.0000 
     27 CA         46.8610  111.2990   70.5400 C.3       6 GLP5        0.0000 
     28 CA         43.2825  109.6145   74.6135 C.3       3 GLC5        0.0000 
     29 CA         44.6625  110.2935   76.0065 C.3       3 GLC5        0.0000 
     30 CA         44.5590  111.5960   74.1750 C.3       9 GLL5        0.0000 
     31 CA         43.2180  110.6475   75.0675 C.3       3 GLC5        0.0000 
     32 N          44.7180  112.8870   84.4215 N.am      2 SEC2        0.0000 
     33 N          44.3110  113.7940   83.4130 N.am      8 SEL2        0.0000 
     34 N          45.1250  111.9800   85.4300 N.am      5 SEP2        0.0000 
     35 CA         41.8615  113.2410   84.1425 C.3       3 GLC5        0.0000 
     36 CA         41.5420  114.2050   82.1400 C.3       9 GLL5        0.0000 
     37 CA         42.1810  112.2770   86.1450 C.3       6 GLP5        0.0000 
     38 CA         40.6060  113.4120   85.3570 C.3       3 GLC5        0.0000 
     39 CA         39.0310  114.5470   84.5690 C.3       9 GLL5        0.0000 
     40 CA         37.0930  113.9570   83.8670 C.3       3 GLC5        0.0000 
     41 CA         35.1550  113.3670   83.1650 C.3       6 GLP5        0.0000 
     42 CA         41.4565  113.8820   86.1480 C.3       3 GLC5        0.0000 
     43 CA         40.7320  115.4870   86.1510 C.3       9 GLL5        0.0000 
     44 N          42.7680  117.4475   90.2055 N.am      2 SEC2        0.0000 
     45 N          42.6380  116.5010   89.2020 N.am      8 SEL2        0.0000 
     46 N          42.8980  118.3940   91.2090 N.am      5 SEP2        0.0000 
     47 CA         40.8125  116.0300   90.3475 C.3       3 GLC5        0.0000 
     48 CA         40.4650  115.0870   88.5710 C.3       9 GLL5        0.0000 
     49 CA         41.1600  116.9730   92.1240 C.3       6 GLP5        0.0000 
     50 CA         39.3665  112.9985   89.8395 C.3       3 GLC5        0.0000 
     51 CA         39.2830  114.3590   88.2750 C.3       9 GLL5        0.0000 
     52 CA         39.4500  111.6380   91.4040 C.3       6 GLP5        0.0000 
     53 CA         40.4720  113.2115   86.5725 C.3       3 GLC5        0.0000 
     54 CA         38.7630  114.1460   87.0000 C.3       9 GLL5        0.0000 
     55 CA         43.3060  112.6072   78.2528 C.3       3 GLC5        0.0000 
     56 CA         41.5380  111.4440   77.7300 C.3       6 GLP5        0.0000 
     57 CA         46.7640  112.9419   79.9521 C.3       3 GLC5        0.0000 
     58 CA         44.5900  114.2590   79.0940 C.3       9 GLL5        0.0000 
     59 CA         47.5700  112.0930   81.5690 C.3       6 GLP5        0.0000 
     60 CA         41.4977  112.4923   73.1287 C.3       3 GLC5        0.0000 
     61 CA         39.5820  113.4140   73.4980 C.3       6 GLP5        0.0000 
     62 CA         45.4236  111.4411   72.0036 C.3       3 GLC5        0.0000 
     63 CA         39.4711  114.3564   80.4179 C.3       3 GLC5        0.0000 
     64 CA         39.1770  115.2450   82.2500 C.3       9 GLL5        0.0000 
     65 CA         38.9480  114.0410   78.5530 C.3       6 GLP5        0.0000 
     66 CA         41.0946  113.4945   87.9070 C.3       3 GLC5        0.0000 
     67 CA         42.1360  112.1250   87.6680 C.3       6 GLP5        0.0000 
     68 CA         38.4642  115.7262   88.9213 C.3       3 GLC5        0.0000 
     69 CA         37.6100  117.0180   90.1310 C.3       6 GLP5        0.0000 
@<TRIPOS>BOND
@<TRIPOS>SUBSTRUCTURE
     1 ALC1        7 GROUP        1 X    ALC  0     ROOT ALC X 1
     2 SEC2        1 GROUP        1 X    SEC  0     **** SEC X 2
     3 GLC5        4 GROUP        1 X    GLC  0     **** GLC X 6
     4 ALP1        9 GROUP        1 Y    ALP  0     ROOT ALP Y 8
     5 SEP2        3 GROUP        1 Y    SEP  0     **** SEP Y 9
     6 GLP5        6 GROUP        1 Y    GLP  0     **** GLP Y 13
     7 ALL1        8 GROUP        1 Z    ALL  0     ROOT ALL Z 15
     8 SEL2        2 GROUP        1 Z    SEL  0     **** SEL Z 16
     9 GLL5        5 GROUP        1 Z    GLL  0     **** GLL Z 20
@<TRIPOS>SET

