#    Name: 3k2b_NAD_7_ligand
#    Modification time : Mon Mar 24 18:03:12 2014

@<TRIPOS>MOLECULE
3k2b_NAD_7_ligand
   70    74     1     0     0
SMALL
NO_CHARGES


@<TRIPOS>ATOM
      1 PA         45.4030  115.8320   81.1360 P.3       1 NAD335      0.0000 
      2 O1A        45.4300  116.9500   80.1440 O.co2     1 NAD335      0.0000 
      3 O2A        46.7750  115.7990   81.8020 O.co2     1 NAD335      0.0000 
      4 O5B        45.2020  114.4250   80.4740 O.3       1 NAD335      0.0000 
      5 C5B        44.5900  114.2590   79.0940 C.3       1 NAD335      0.0000 
      6 C4B        45.5580  113.2820   78.4570 C.3       1 NAD335      0.0000 
      7 O4B        44.9160  112.5690   77.3560 O.3       1 NAD335      0.0000 
      8 C3B        46.8420  113.8110   77.8950 C.3       1 NAD335      0.0000 
      9 O3B        47.9670  113.0310   78.2620 O.3       1 NAD335      0.0000 
     10 C2B        46.6420  113.8420   76.3860 C.3       1 NAD335      0.0000 
     11 O2B        47.8790  113.7790   75.6540 O.3       1 NAD335      0.0000 
     12 C1B        45.7630  112.6340   76.1860 C.3       1 NAD335      0.0000 
     13 N9A        44.8000  112.6780   75.0280 N.pl3     1 NAD335      0.0000 
     14 C8A        44.0040  113.7050   74.5870 C.2       1 NAD335      0.0000 
     15 N7A        43.2870  113.3450   73.5230 N.2       1 NAD335      0.0000 
     16 C5A        43.6230  112.0460   73.2610 C.ar      1 NAD335      0.0000 
     17 C6A        43.2040  111.0950   72.2580 C.ar      1 NAD335      0.0000 
     18 N6A        42.3110  111.3550   71.2990 N.pl3     1 NAD335      0.0000 
     19 N1A        43.7690  109.8500   72.3080 N.ar      1 NAD335      0.0000 
     20 C2A        44.6880  109.5300   73.2670 C.ar      1 NAD335      0.0000 
     21 N3A        45.1430  110.3360   74.2390 N.ar      1 NAD335      0.0000 
     22 C4A        44.5590  111.5960   74.1750 C.ar      1 NAD335      0.0000 
     23 O3         44.2080  115.8880   82.1220 O.3       1 NAD335      0.0000 
     24 PN         43.6690  115.1080   83.3430 P.3       1 NAD335      0.0000 
     25 O1N        43.9250  116.0110   84.4700 O.co2     1 NAD335      0.0000 
     26 O2N        44.3110  113.7940   83.4130 O.co2     1 NAD335      0.0000 
     27 O5D        42.0770  115.0430   83.1900 O.3       1 NAD335      0.0000 
     28 C5D        41.5420  114.2050   82.1400 C.3       1 NAD335      0.0000 
     29 C4D        40.0810  113.9920   82.4910 C.3       1 NAD335      0.0000 
     30 O4D        39.9140  113.6570   83.9050 O.3       1 NAD335      0.0000 
     31 C3D        39.1770  115.2450   82.2500 C.3       1 NAD335      0.0000 
     32 O3D        37.9260  114.6760   81.7280 O.3       1 NAD335      0.0000 
     33 C2D        38.9750  115.7880   83.6870 C.3       1 NAD335      0.0000 
     34 O2D        37.7140  116.4280   83.8530 O.3       1 NAD335      0.0000 
     35 C1D        39.0310  114.5470   84.5690 C.3       1 NAD335      0.0000 
     36 N1N        39.5600  114.7550   85.9670 N.pl3     1 NAD335      0.0000 
     37 C2N        40.7320  115.4870   86.1510 C.ar      1 NAD335      0.0000 
     38 C3N        41.1820  115.6510   87.4630 C.ar      1 NAD335      0.0000 
     39 C7N        42.4610  116.4220   87.9640 C.2       1 NAD335      0.0000 
     40 O7N        42.6380  116.5010   89.2020 O.2       1 NAD335      0.0000 
     41 N7N        43.3010  116.9620   87.1440 N.am      1 NAD335      0.0000 
     42 C4N        40.4650  115.0870   88.5710 C.ar      1 NAD335      0.0000 
     43 C5N        39.2830  114.3590   88.2750 C.ar      1 NAD335      0.0000 
     44 C6N        38.7630  114.1460   87.0000 C.ar      1 NAD335      0.0000 
     45 H          44.6101  115.1770   78.5784 H         1 NAD335      0.0000 
     46 H          43.6349  113.8226   79.1738 H         1 NAD335      0.0000 
     47 H          45.8223  112.5115   79.2174 H         1 NAD335      0.0000 
     48 H          46.9405  114.8472   78.2176 H         1 NAD335      0.0000 
     49 H          46.0563  114.7127   76.1626 H         1 NAD335      0.0000 
     50 H          46.3551  111.7470   76.1364 H         1 NAD335      0.0000 
     51 H          43.9810  114.5900   75.0180 H         1 NAD335      0.0000 
     52 H          41.6047  112.0256   71.5256 H         1 NAD335      0.0000 
     53 H          42.4291  110.8557   70.4407 H         1 NAD335      0.0000 
     54 H          45.0847  108.5198   73.2314 H         1 NAD335      0.0000 
     55 H          42.0330  113.2454   82.1092 H         1 NAD335      0.0000 
     56 H          41.5988  114.6892   81.1781 H         1 NAD335      0.0000 
     57 H          39.6708  113.1898   81.8859 H         1 NAD335      0.0000 
     58 H          39.6469  115.8964   81.6557 H         1 NAD335      0.0000 
     59 H          39.8047  116.4023   83.9276 H         1 NAD335      0.0000 
     60 H          38.0449  114.1128   84.6145 H         1 NAD335      0.0000 
     61 H          41.2337  115.8812   85.3721 H         1 NAD335      0.0000 
     62 H          43.0706  116.8987   86.1730 H         1 NAD335      0.0000 
     63 H          44.1034  117.3931   87.5566 H         1 NAD335      0.0000 
     64 H          40.7891  115.2056   89.5051 H         1 NAD335      0.0000 
     65 H          38.7584  113.9462   89.1012 H         1 NAD335      0.0000 
     66 H          37.9563  113.6470   86.8047 H         1 NAD335      0.0000 
     67 H          47.8488  112.1633   77.7792 H         1 NAD335      0.0000 
     68 H          48.5752  113.5683   76.3402 H         1 NAD335      0.0000 
     69 H          38.0678  113.6862   81.7385 H         1 NAD335      0.0000 
     70 H          37.1706  116.1370   83.0656 H         1 NAD335      0.0000 
@<TRIPOS>BOND
     1    2    1 ar   
     2    3    1 ar   
     3    4    1 1    
     4   23    1 1    
     5    5    4 1    
     6    6    5 1    
     7   45    5 1    
     8   46    5 1    
     9    7    6 1    
    10    8    6 1    
    11   47    6 1    
    12   12    7 1    
    13    9    8 1    
    14   10    8 1    
    15   48    8 1    
    16   67    9 1    
    17   11   10 1    
    18   12   10 1    
    19   49   10 1    
    20   68   11 1    
    21   13   12 1    
    22   50   12 1    
    23   14   13 1    
    24   22   13 1    
    25   15   14 2    
    26   51   14 1    
    27   16   15 1    
    28   17   16 ar   
    29   22   16 ar   
    30   18   17 1    
    31   19   17 ar   
    32   52   18 1    
    33   53   18 1    
    34   20   19 ar   
    35   21   20 ar   
    36   54   20 1    
    37   22   21 ar   
    38   24   23 1    
    39   25   24 ar   
    40   26   24 ar   
    41   27   24 1    
    42   28   27 1    
    43   29   28 1    
    44   55   28 1    
    45   56   28 1    
    46   30   29 1    
    47   31   29 1    
    48   57   29 1    
    49   35   30 1    
    50   32   31 1    
    51   33   31 1    
    52   58   31 1    
    53   69   32 1    
    54   34   33 1    
    55   35   33 1    
    56   59   33 1    
    57   70   34 1    
    58   36   35 1    
    59   60   35 1    
    60   37   36 ar   
    61   44   36 ar   
    62   38   37 ar   
    63   61   37 1    
    64   39   38 1    
    65   42   38 ar   
    66   40   39 2    
    67   41   39 am   
    68   62   41 1    
    69   63   41 1    
    70   43   42 ar   
    71   64   42 1    
    72   44   43 ar   
    73   65   43 1    
    74   66   44 1    
@<TRIPOS>SUBSTRUCTURE
     1 NAD335      1 GROUP   
@<TRIPOS>SET

