#    Name: 4djx_0KQ_2_INTS_M
#    Modification time : Tue Mar 25 09:46:25 2014

@<TRIPOS>MOLECULE
4djx_0KQ_2_INTS_M
   53     0     9     0     0
SMALL
NO_CHARGES


@<TRIPOS>ATOM
      1 O          21.0140   37.1810   56.7295 O.2       1 ALC1        0.0000 
      2 O          20.7800   35.8840   56.8720 O.2       7 ALL1        0.0000 
      3 O          21.2480   38.4780   56.5870 O.2       4 ALP1        0.0000 
      4 OD1        20.3380   37.6020   58.8415 O.co2     2 ASC3        0.0000 
      5 OD1        20.6350   35.4790   58.1500 O.co2     8 ASL3        0.0000 
      6 OD1        20.2180   38.9370   58.4850 O.co2     5 ASP3        0.0000 
      7 OD1        20.9415   36.9785   57.3685 O.co2     2 ASC3        0.0000 
      8 OD1        21.2480   38.4780   56.5870 O.co2     5 ASP3        0.0000 
      9 OD1        20.1305   36.0660   60.5610 O.co2     2 ASC3        0.0000 
     10 OD1        19.8030   35.8650   61.9240 O.co2     5 ASP3        0.0000 
     11 O          20.3380   37.6020   58.8415 O.2       1 ALC1        0.0000 
     12 O          20.4580   36.2670   59.1980 O.2       7 ALL1        0.0000 
     13 O          20.2180   38.9370   58.4850 O.2       4 ALP1        0.0000 
     14 O          20.1305   36.0660   60.5610 O.2       1 ALC1        0.0000 
     15 O          19.8030   35.8650   61.9240 O.2       4 ALP1        0.0000 
     16 CA         22.3960   32.4355   54.8915 C.3       3 GLC5        0.0000 
     17 CA         22.4910   34.4900   55.5030 C.3       9 GLL5        0.0000 
     18 CA         22.3010   30.3810   54.2800 C.3       6 GLP5        0.0000 
     19 CA         21.3980   36.3030   53.2335 C.3       3 GLC5        0.0000 
     20 CA         20.2460   34.4600   53.5870 C.3       9 GLL5        0.0000 
     21 CA         22.5500   38.1460   52.8800 C.3       6 GLP5        0.0000 
     22 CA         19.5780   32.8500   50.9735 C.3       3 GLC5        0.0000 
     23 CA         19.2500   34.3100   52.6330 C.3       9 GLL5        0.0000 
     24 CA         19.9060   31.3900   49.3140 C.3       6 GLP5        0.0000 
     25 CA         19.5730   36.4365   52.0430 C.3       3 GLC5        0.0000 
     26 CA         19.8960   38.5630   51.4530 C.3       6 GLP5        0.0000 
     27 CA         14.7230   33.0585   52.4170 C.3       3 GLC5        0.0000 
     28 CA         15.2180   33.5320   54.2550 C.3       9 GLL5        0.0000 
     29 CA         14.2280   32.5850   50.5790 C.3       6 GLP5        0.0000 
     30 CA         12.0060   34.4950   54.6385 C.3       3 GLC5        0.0000 
     31 CA         13.5420   34.1610   55.6890 C.3       9 GLL5        0.0000 
     32 CA         10.4700   34.8290   53.5880 C.3       6 GLP5        0.0000 
     33 CA         12.8860   37.0360   56.3180 C.3       3 GLC5        0.0000 
     34 CA         13.8100   36.0690   57.5950 C.3       9 GLL5        0.0000 
     35 CA         11.9620   38.0030   55.0410 C.3       6 GLP5        0.0000 
     36 CA         15.4890   36.7895   58.2105 C.3       3 GLC5        0.0000 
     37 CA         17.1680   37.5100   58.8260 C.3       6 GLP5        0.0000 
     38 CA         14.9000   35.2585   59.2060 C.3       3 GLC5        0.0000 
     39 CA         15.9900   34.4480   60.8170 C.3       6 GLP5        0.0000 
     40 CA         13.0470   34.8395   59.2055 C.3       3 GLC5        0.0000 
     41 CA         12.2840   33.6100   60.8160 C.3       6 GLP5        0.0000 
     42 CA         22.7240   36.6257   54.1232 C.3       3 GLC5        0.0000 
     43 CA         17.8244   36.4430   54.3306 C.3       3 GLC5        0.0000 
     44 CA         17.9190   34.3120   53.0170 C.3       9 GLL5        0.0000 
     45 CA         17.4910   38.3690   54.1600 C.3       6 GLP5        0.0000 
     46 CA         16.6940   36.6130   54.7297 C.3       3 GLC5        0.0000 
     47 CA         16.1270   34.4420   54.7870 C.3       9 GLL5        0.0000 
     48 CA         12.9602   36.3190   55.5070 C.3       3 GLC5        0.0000 
     49 CA         14.3750   35.1090   56.2570 C.3       9 GLL5        0.0000 
     50 CA         16.0945   36.3503   57.4303 C.3       3 GLC5        0.0000 
     51 CA         24.0625   36.9213   56.5885 C.3       3 GLC5        0.0000 
     52 CA         23.3050   35.7210   55.2300 C.3       9 GLL5        0.0000 
     53 CA         24.6320   38.5750   57.3830 C.3       6 GLP5        0.0000 
@<TRIPOS>BOND
@<TRIPOS>SUBSTRUCTURE
     1 ALC1        1 GROUP        1 X    ALC  0     ROOT ALC X 1
     2 ASC3        4 GROUP        1 X    ASC  0     **** ASC X 3
     3 GLC5       16 GROUP        1 X    GLC  0     **** GLC X 6
     4 ALP1        3 GROUP        1 Y    ALP  0     ROOT ALP Y 8
     5 ASP3        6 GROUP        1 Y    ASP  0     **** ASP Y 10
     6 GLP5       18 GROUP        1 Y    GLP  0     **** GLP Y 13
     7 ALL1        2 GROUP        1 Z    ALL  0     ROOT ALL Z 15
     8 ASL3        5 GROUP        1 Z    ASL  0     **** ASL Z 17
     9 GLL5       17 GROUP        1 Z    GLL  0     **** GLL Z 20
@<TRIPOS>SET

