#    Name: 4djx_0KQ_2_ligand
#    Modification time : Tue Mar 25 09:46:25 2014

@<TRIPOS>MOLECULE
4djx_0KQ_2_ligand
   42    45     1     0     0
SMALL
NO_CHARGES


@<TRIPOS>ATOM
      1 C1         20.8370   33.4920   57.0210 C.2       1 0KQ501      0.0000 
      2 C2         21.0240   34.6580   56.0130 C.3       1 0KQ501      0.0000 
      3 N1         20.7800   35.8840   56.8720 N.pl3     1 0KQ501      0.0000 
      4 C3         20.6350   35.4790   58.1500 C.cat     1 0KQ501      0.0000 
      5 N2         20.6140   34.0650   58.2590 N.am      1 0KQ501      0.0000 
      6 N3         20.4580   36.2670   59.1980 N.pl3     1 0KQ501      0.0000 
      7 C4         20.3880   33.2880   59.4770 C.3       1 0KQ501      0.0000 
      8 O1         20.8230   32.2990   56.7870 O.2       1 0KQ501      0.0000 
      9 C5         19.9210   34.6070   54.9340 C.ar      1 0KQ501      0.0000 
     10 C6         22.4910   34.4900   55.5030 C.3       1 0KQ501      0.0000 
     11 C7         20.2460   34.4600   53.5870 C.ar      1 0KQ501      0.0000 
     12 C8         19.2500   34.3100   52.6330 C.ar      1 0KQ501      0.0000 
     13 C9         17.9190   34.3120   53.0170 C.ar      1 0KQ501      0.0000 
     14 C10        17.5620   34.4760   54.3640 C.ar      1 0KQ501      0.0000 
     15 C11        18.5750   34.6400   55.3120 C.ar      1 0KQ501      0.0000 
     16 C12        16.1270   34.4420   54.7870 C.ar      1 0KQ501      0.0000 
     17 C13        15.2180   33.5320   54.2550 C.ar      1 0KQ501      0.0000 
     18 C15        13.5420   34.1610   55.6890 C.ar      1 0KQ501      0.0000 
     19 C16        15.6670   35.2720   55.8120 C.ar      1 0KQ501      0.0000 
     20 N5         13.9570   33.3830   54.6840 N.ar      1 0KQ501      0.0000 
     21 C17        23.3050   35.7210   55.2300 C.3       1 0KQ501      0.0000 
     22 C18        23.6810   34.8140   56.3580 C.3       1 0KQ501      0.0000 
     23 C19        14.3750   35.1090   56.2570 C.ar      1 0KQ501      0.0000 
     24 CL1        13.8100   36.0690   57.5950 Cl        1 0KQ501      0.0000 
     25 H          20.7520   36.7362   56.4888 H         1 0KQ501      0.0000 
     26 H          20.3696   35.8093   60.0827 H         1 0KQ501      0.0000 
     27 H          20.4287   37.2488   59.0103 H         1 0KQ501      0.0000 
     28 H          22.7783   33.8197   54.8506 H         1 0KQ501      0.0000 
     29 H          21.2374   34.4631   53.2991 H         1 0KQ501      0.0000 
     30 H          19.5006   34.1974   51.6411 H         1 0KQ501      0.0000 
     31 H          17.1761   34.1921   52.3106 H         1 0KQ501      0.0000 
     32 H          18.3279   34.7872   56.3024 H         1 0KQ501      0.0000 
     33 H          15.5685   32.9218   53.4527 H         1 0KQ501      0.0000 
     34 H          12.5700   34.0669   56.0688 H         1 0KQ501      0.0000 
     35 H          16.2809   35.9785   56.2144 H         1 0KQ501      0.0000 
     36 H          22.8412   36.4706   55.5877 H         1 0KQ501      0.0000 
     37 H          23.8801   35.5410   54.4939 H         1 0KQ501      0.0000 
     38 H          24.4078   34.2684   56.0767 H         1 0KQ501      0.0000 
     39 H          23.3689   35.1980   57.1705 H         1 0KQ501      0.0000 
     40 H          21.1641   32.6937   59.6877 H         1 0KQ501      0.0000 
     41 H          20.2456   33.8772   60.2723 H         1 0KQ501      0.0000 
     42 H          19.5821   32.7011   59.3990 H         1 0KQ501      0.0000 
@<TRIPOS>BOND
     1    2    1 1    
     2    5    1 am   
     3    8    1 2    
     4    3    2 1    
     5    9    2 1    
     6   10    2 1    
     7    4    3 ar   
     8   25    3 1    
     9    5    4 ar   
    10    6    4 ar   
    11    7    5 1    
    12   26    6 1    
    13   27    6 1    
    14   40    7 1    
    15   41    7 1    
    16   42    7 1    
    17   11    9 ar   
    18   15    9 ar   
    19   21   10 1    
    20   22   10 1    
    21   28   10 1    
    22   12   11 ar   
    23   29   11 1    
    24   13   12 ar   
    25   30   12 1    
    26   14   13 ar   
    27   31   13 1    
    28   15   14 ar   
    29   16   14 1    
    30   32   15 1    
    31   17   16 ar   
    32   19   16 ar   
    33   20   17 ar   
    34   33   17 1    
    35   20   18 ar   
    36   23   18 ar   
    37   34   18 1    
    38   23   19 ar   
    39   35   19 1    
    40   22   21 1    
    41   36   21 1    
    42   37   21 1    
    43   38   22 1    
    44   39   22 1    
    45   24   23 1    
@<TRIPOS>SUBSTRUCTURE
     1 0KQ501      1 GROUP   
@<TRIPOS>SET

