#    Name: 1PN9_2_CAVITY_N1_ALL.mol2
#    Modification time : Tue Mar 11 01:26:20 2014

@<TRIPOS>MOLECULE
1PN9_2_CAVITY_N1_ALL.mol2
  135     0     7     0     0
SMALL
NO_CHARGES


@<TRIPOS>ATOM
      1 CA         45.1453   57.3398   22.4149 C.3       6 GLY6        0.0000 
      2 N          44.6094   54.6307   23.5870 N.2       2 ALA2        0.0000 
      3 CA         43.8154   57.3031   21.7221 C.3       6 GLY6        0.0000 
      4 CA         43.5475   55.9486   22.3081 C.3       6 GLY6        0.0000 
      5 N          43.2795   54.5940   22.8942 N.2       2 ALA2        0.0000 
      6 NZ         42.4855   57.2664   21.0292 N.2       4 LYS4        0.0000 
      7 CA         42.2176   55.9118   21.6153 C.3       6 GLY6        0.0000 
      8 N          41.9496   54.5573   22.2014 N.2       2 ALA2        0.0000 
      9 OG         40.8876   55.8751   20.9225 O.2       1 SER1        0.0000 
     10 N          39.2856   60.4832   27.0011 N.2       2 ALA2        0.0000 
     11 DU         39.0177   59.1287   27.5871 H         7 CUB7        0.0000 
     12 CA         37.9557   60.4465   26.3082 C.3       6 GLY6        0.0000 
     13 CA         37.6878   59.0920   26.8943 C.3       6 GLY6        0.0000 
     14 CA         36.3579   59.0553   26.2015 C.3       6 GLY6        0.0000 
     15 DU         36.0899   57.7007   26.7876 H         7 CUB7        0.0000 
     16 O          34.7600   57.6640   26.0947 O.2       2 ALA2        0.0000 
     17 CA         42.5854   59.9133   27.1923 C.3       6 GLY6        0.0000 
     18 OG         42.3175   58.5587   27.7784 O.2       1 SER1        0.0000 
     19 OG         42.0495   57.2042   28.3645 O.2       1 SER1        0.0000 
     20 N          41.2555   59.8766   26.4995 N.2       2 ALA2        0.0000 
     21 DU         40.9875   58.5220   27.0856 H         7 CUB7        0.0000 
     22 DU         40.7196   57.1675   27.6717 H         7 CUB7        0.0000 
     23 CZ         40.4517   55.8130   28.2578 C.ar      5 PHE5        0.0000 
     24 N          40.1935   61.1944   25.2206 N.2       2 ALA2        0.0000 
     25 CA         39.9256   59.8398   25.8067 C.3       6 GLY6        0.0000 
     26 DU         39.6576   58.4853   26.3928 H         7 CUB7        0.0000 
     27 CA         38.5957   59.8031   25.1139 C.3       6 GLY6        0.0000 
     28 CA         38.3277   58.4486   25.6999 C.3       6 GLY6        0.0000 
     29 DU         38.0598   57.0941   26.2860 H         7 CUB7        0.0000 
     30 CA         36.9978   58.4119   25.0071 C.3       6 GLY6        0.0000 
     31 O          36.7299   57.0574   25.5932 O.2       2 ALA2        0.0000 
     32 N          35.6679   58.3752   24.3143 N.2       2 ALA2        0.0000 
     33 O          35.4000   57.0207   24.9004 O.2       2 ALA2        0.0000 
     34 O          34.0701   56.9839   24.2075 O.2       2 ALA2        0.0000 
     35 CA         43.2254   59.2699   25.9980 C.3       6 GLY6        0.0000 
     36 CZ         42.9574   57.9154   26.5841 C.ar      5 PHE5        0.0000 
     37 CZ         42.6895   56.5609   27.1701 C.ar      5 PHE5        0.0000 
     38 CZ         42.4216   55.2063   27.7562 C.ar      5 PHE5        0.0000 
     39 CZ         42.1536   53.8518   28.3423 C.ar      5 PHE5        0.0000 
     40 N          42.4313   61.9422   24.1330 N.2       2 ALA2        0.0000 
     41 N          42.1634   60.5877   24.7191 N.2       2 ALA2        0.0000 
     42 DU         41.8955   59.2332   25.3052 H         7 CUB7        0.0000 
     43 DU         41.6275   57.8787   25.8912 H         7 CUB7        0.0000 
     44 DU         41.3596   56.5241   26.4773 H         7 CUB7        0.0000 
     45 DU         41.0917   55.1696   27.0634 H         7 CUB7        0.0000 
     46 CZ         40.8237   53.8151   27.6495 C.ar      5 PHE5        0.0000 
     47 N          41.1014   61.9055   23.4402 N.2       2 ALA2        0.0000 
     48 N          40.8335   60.5510   24.0263 N.2       2 ALA2        0.0000 
     49 DU         40.5656   59.1965   24.6123 H         7 CUB7        0.0000 
     50 DU         39.2259   52.4239   27.5427 H         7 CUB7        0.0000 
     51 CA         39.5036   60.5143   23.3334 C.3       6 GLY6        0.0000 
     52 CA         39.2356   59.1598   23.9195 C.3       6 GLY6        0.0000 
     53 DU         38.9677   57.8052   24.5056 H         7 CUB7        0.0000 
     54 DU         38.6998   56.4507   25.0917 H         7 CUB7        0.0000 
     55 O          38.4319   55.0962   25.6777 O.2       2 ALA2        0.0000 
     56 O          38.1639   53.7417   26.2638 O.2       2 ALA2        0.0000 
     57 OD1        37.8960   52.3871   26.8499 O.3       3 ASP3        0.0000 
     58 OD1        37.6281   51.0326   27.4360 O.3       3 ASP3        0.0000 
     59 CA         37.9057   59.1230   23.2267 C.3       6 GLY6        0.0000 
     60 O          37.6378   57.7685   23.8128 O.2       2 ALA2        0.0000 
     61 O          37.3699   56.4140   24.3988 O.2       2 ALA2        0.0000 
     62 O          36.5661   52.3504   26.1571 O.2       2 ALA2        0.0000 
     63 OD1        36.2982   50.9959   26.7431 O.3       3 ASP3        0.0000 
     64 O          36.3079   57.7318   23.1199 O.2       2 ALA2        0.0000 
     65 O          36.0400   56.3773   23.7060 O.2       2 ALA2        0.0000 
     66 CZ         45.1952   58.6632   25.4964 C.ar      5 PHE5        0.0000 
     67 CZ         44.3915   54.5997   27.2547 C.ar      5 PHE5        0.0000 
     68 CA         44.1333   59.9811   24.2175 C.3       6 GLY6        0.0000 
     69 CA         43.8653   58.6265   24.8036 C.3       6 GLY6        0.0000 
     70 CZ         43.5974   57.2720   25.3897 C.ar      5 PHE5        0.0000 
     71 CZ         43.3295   55.9175   25.9758 C.ar      5 PHE5        0.0000 
     72 CZ         43.0615   54.5630   26.5618 C.ar      5 PHE5        0.0000 
     73 O          42.7936   53.2084   27.1479 O.2       2 ALA2        0.0000 
     74 O          42.5257   51.8539   27.7340 O.2       2 ALA2        0.0000 
     75 O          43.0713   61.2989   22.9386 O.2       2 ALA2        0.0000 
     76 DU         42.8034   59.9443   23.5247 H         7 CUB7        0.0000 
     77 DU         42.5354   58.5898   24.1108 H         7 CUB7        0.0000 
     78 DU         42.2675   57.2353   24.6969 H         7 CUB7        0.0000 
     79 DU         41.9996   55.8808   25.2829 H         7 CUB7        0.0000 
     80 DU         41.7316   54.5263   25.8690 H         7 CUB7        0.0000 
     81 N          41.4637   53.1717   26.4551 N.2       2 ALA2        0.0000 
     82 O          41.1958   51.8172   27.0412 O.2       2 ALA2        0.0000 
     83 CA         41.7414   61.2621   22.2458 C.3       6 GLY6        0.0000 
     84 NZ         41.4735   59.9076   22.8319 N.2       4 LYS4        0.0000 
     85 DU         41.2055   58.5531   23.4180 H         7 CUB7        0.0000 
     86 DU         40.6697   55.8441   24.5901 H         7 CUB7        0.0000 
     87 DU         40.4017   54.4895   25.1762 H         7 CUB7        0.0000 
     88 DU         40.1338   53.1350   25.7623 H         7 CUB7        0.0000 
     89 DU         39.8659   51.7805   26.3484 H         7 CUB7        0.0000 
     90 DU         39.5980   50.4260   26.9344 H         7 CUB7        0.0000 
     91 NZ         40.1436   59.8709   22.1391 N.2       4 LYS4        0.0000 
     92 NZ         39.8756   58.5164   22.7251 N.2       4 LYS4        0.0000 
     93 DU         39.6077   57.1619   23.3112 H         7 CUB7        0.0000 
     94 DU         39.3398   55.8073   23.8973 H         7 CUB7        0.0000 
     95 N          39.0718   54.4528   24.4834 N.2       2 ALA2        0.0000 
     96 O          38.8039   53.0983   25.0694 O.2       2 ALA2        0.0000 
     97 DU         38.5360   51.7438   25.6555 H         7 CUB7        0.0000 
     98 NZ         38.2681   50.3893   26.2416 N.2       4 LYS4        0.0000 
     99 NZ         38.0001   49.0347   26.8277 N.2       4 LYS4        0.0000 
    100 O          38.5457   58.4797   22.0323 O.2       2 ALA2        0.0000 
    101 OG         38.2778   57.1252   22.6184 O.2       1 SER1        0.0000 
    102 OG         38.0099   55.7706   23.2045 O.2       1 SER1        0.0000 
    103 O          37.7419   54.4161   23.7905 O.2       2 ALA2        0.0000 
    104 O          37.4740   53.0616   24.3766 O.2       2 ALA2        0.0000 
    105 O          37.2061   51.7071   24.9627 O.2       2 ALA2        0.0000 
    106 O          36.9381   50.3525   25.5488 O.2       2 ALA2        0.0000 
    107 CA         36.6702   48.9980   26.1349 C.3       6 GLY6        0.0000 
    108 CZ         45.8352   58.0199   24.3021 C.ar      5 PHE5        0.0000 
    109 O          44.7732   59.3377   23.0232 O.2       2 ALA2        0.0000 
    110 O          44.5053   57.9832   23.6093 O.2       2 ALA2        0.0000 
    111 CZ         44.2374   56.6286   24.1953 C.ar      5 PHE5        0.0000 
    112 CZ         43.9695   55.2741   24.7814 C.ar      5 PHE5        0.0000 
    113 N          43.7015   53.9196   25.3675 N.2       2 ALA2        0.0000 
    114 NZ         43.4433   59.3010   22.3304 N.2       4 LYS4        0.0000 
    115 NZ         43.1754   57.9464   22.9164 N.2       4 LYS4        0.0000 
    116 DU         42.9075   56.5919   23.5025 H         7 CUB7        0.0000 
    117 DU         42.6396   55.2374   24.0886 H         7 CUB7        0.0000 
    118 N          42.3716   53.8829   24.6747 N.2       2 ALA2        0.0000 
    119 NZ         41.8455   57.9097   22.2236 N.2       4 LYS4        0.0000 
    120 DU         41.5776   56.5552   22.8097 H         7 CUB7        0.0000 
    121 N          41.3096   55.2007   23.3958 N.2       2 ALA2        0.0000 
    122 N          41.0417   53.8462   23.9818 N.2       2 ALA2        0.0000 
    123 N          40.7738   52.4916   24.5679 N.2       2 ALA2        0.0000 
    124 O          40.5059   51.1371   25.1540 O.2       2 ALA2        0.0000 
    125 NZ         40.2379   49.7826   25.7401 N.2       4 LYS4        0.0000 
    126 NZ         40.5156   57.8730   21.5308 N.2       4 LYS4        0.0000 
    127 OG         40.2477   56.5185   22.1169 O.2       1 SER1        0.0000 
    128 N          39.9797   55.1640   22.7029 N.2       2 ALA2        0.0000 
    129 N          39.4439   52.4549   23.8751 N.2       2 ALA2        0.0000 
    130 CA         39.1760   51.1004   24.4612 C.3       6 GLY6        0.0000 
    131 NZ         38.9080   49.7459   25.0472 N.2       4 LYS4        0.0000 
    132 N          38.3819   53.7727   22.5962 N.2       2 ALA2        0.0000 
    133 O          38.1140   52.4182   23.1823 O.2       2 ALA2        0.0000 
    134 CA         37.8461   51.0637   23.7683 C.3       6 GLY6        0.0000 
    135 CA         37.5781   49.7092   24.3544 C.3       6 GLY6        0.0000 
@<TRIPOS>BOND
@<TRIPOS>SUBSTRUCTURE
     1 SER1        9 GROUP   
     2 ALA2        2 GROUP   
     3 ASP3       57 GROUP   
     4 LYS4        6 GROUP   
     5 PHE5       23 GROUP   
     6 GLY6        1 GROUP   
     7 CUB7       11 GROUP   
@<TRIPOS>SET

