#    Name: 1pn9_GTX_2_INTS_M
#    Modification time : Mon Mar 24 21:57:58 2014

@<TRIPOS>MOLECULE
1pn9_GTX_2_INTS_M
   64     0    12     0     0
SMALL
NO_CHARGES


@<TRIPOS>ATOM
      1 OD1        42.8635   58.8950   20.5370 O.co2     3 ASC3        0.0000 
      2 OD1        43.1190   58.3470   21.7830 O.co2    11 ASL3        0.0000 
      3 OD1        42.6080   59.4430   19.2910 O.co2     7 ASP3        0.0000 
      4 OD1        41.8050   58.6120   20.4690 O.co2     3 ASC3        0.0000 
      5 OD1        40.4910   58.8770   19.1550 O.co2     7 ASP3        0.0000 
      6 O          42.8635   58.8950   20.5370 O.2       1 ALC1        0.0000 
      7 O          43.1190   58.3470   21.7830 O.2       9 ALL1        0.0000 
      8 O          42.6080   59.4430   19.2910 O.2       5 ALP1        0.0000 
      9 CA         42.4610   61.0530   20.8280 C.3       4 GLC5        0.0000 
     10 CA         42.5550   59.5540   22.4670 C.3      12 GLL5        0.0000 
     11 CA         42.3670   62.5520   19.1890 C.3       8 GLP5        0.0000 
     12 N          44.4990   61.9360   21.2185 N.am      2 SEC2        0.0000 
     13 N          44.7000   60.4870   22.0610 N.am     10 SEL2        0.0000 
     14 N          44.2980   63.3850   20.3760 N.am      6 SEP2        0.0000 
     15 N          45.6530   61.4325   21.9295 N.am      2 SEC2        0.0000 
     16 N          46.6060   62.3780   21.7980 N.am      6 SEP2        0.0000 
     17 N          43.6760   62.6365   21.4240 N.am      2 SEC2        0.0000 
     18 N          43.0540   61.8880   22.4720 N.am     10 SEL2        0.0000 
     19 CA         43.4415   61.1035   25.5755 C.3       4 GLC5        0.0000 
     20 CA         41.6830   60.4060   24.7210 C.3      12 GLL5        0.0000 
     21 CA         45.2000   61.8010   26.4300 C.3       8 GLP5        0.0000 
     22 O          40.8140   62.1840   26.3050 O.2       1 ALC1        0.0000 
     23 O          40.5410   60.9050   26.7980 O.2       9 ALL1        0.0000 
     24 O          41.0870   63.4630   25.8120 O.2       5 ALP1        0.0000 
     25 N          38.3130   63.1605   26.7370 N.am      2 SEC2        0.0000 
     26 N          38.1200   62.0470   27.6620 N.am     10 SEL2        0.0000 
     27 N          38.5060   64.2740   25.8120 N.am      6 SEP2        0.0000 
     28 CA         43.4315   62.6355   29.7495 C.3       4 GLC5        0.0000 
     29 CA         42.5010   60.9970   29.3240 C.3      12 GLL5        0.0000 
     30 CA         44.3620   64.2740   30.1750 C.3       8 GLP5        0.0000 
     31 CA         43.8505   61.3990   27.8770 C.3       4 GLC5        0.0000 
     32 CA         43.2445   62.7410   31.3760 C.3       4 GLC5        0.0000 
     33 CA         42.1270   61.2080   32.5770 C.3      12 GLL5        0.0000 
     34 CA         40.2205   62.0245   32.0005 C.3       4 GLC5        0.0000 
     35 CA         38.3140   62.8410   31.4240 C.3       8 GLP5        0.0000 
     36 CA         41.6480   59.5935   35.0090 C.3       4 GLC5        0.0000 
     37 CA         42.5040   61.3490   34.0490 C.3      12 GLL5        0.0000 
     38 CA         40.7920   57.8380   35.9690 C.3       8 GLP5        0.0000 
     39 CA         44.1605   60.6175   34.8185 C.3       4 GLC5        0.0000 
     40 CA         45.8170   59.8860   35.5880 C.3       8 GLP5        0.0000 
     41 CA         39.3285   62.6660   33.0640 C.3       4 GLC5        0.0000 
     42 CA         40.3430   62.4910   34.7040 C.3      12 GLL5        0.0000 
     43 CA         38.7955   62.6890   36.2975 C.3       4 GLC5        0.0000 
     44 CA         37.2480   62.8870   37.8910 C.3       8 GLP5        0.0000 
     45 CA         37.2915   61.5780   30.1705 C.3       4 GLC5        0.0000 
     46 CA         36.2690   60.3150   28.9170 C.3      12 GLL5        0.0000 
     47 CA         34.7630   61.5585   29.1175 C.3       4 GLC5        0.0000 
     48 CA         33.2570   62.8020   29.3180 C.3       8 GLP5        0.0000 
     49 N          33.1945   60.2365   26.9540 N.am      2 SEC2        0.0000 
     50 N          34.2340   59.8800   27.7620 N.am     10 SEL2        0.0000 
     51 N          32.1550   60.5930   26.1460 N.am      6 SEP2        0.0000 
     52 CA         39.3473   61.9373   30.0377 C.3       4 GLC5        0.0000 
     53 CA         40.0010   60.6310   28.1240 C.3      12 GLL5        0.0000 
     54 CA         40.0947   63.0473   28.4582 C.3       4 GLC5        0.0000 
     55 CA         40.7600   61.4360   29.1790 C.3      12 GLL5        0.0000 
     56 CA         39.8090   65.0610   28.2650 C.3       8 GLP5        0.0000 
     57 CA         42.8972   57.9472   31.3470 C.3       4 GLC5        0.0000 
     58 CA         42.4030   59.7140   30.5670 C.3      12 GLL5        0.0000 
     59 CA         43.1170   55.9800   31.4490 C.3       8 GLP5        0.0000 
     60 CA         40.5410   64.3960   34.2175 C.3       4 GLC5        0.0000 
     61 CA         41.8630   62.5850   34.6760 C.3      12 GLL5        0.0000 
     62 CA         39.9790   66.2540   33.7450 C.3       8 GLP5        0.0000 
     63 CA         41.3965   62.4580   36.5465 C.3       4 GLC5        0.0000 
     64 CA         41.6900   62.3780   38.4030 C.3       8 GLP5        0.0000 
@<TRIPOS>BOND
@<TRIPOS>SUBSTRUCTURE
     1 ALC1        6 GROUP        1 X    ALC  0     ROOT ALC X 1
     2 SEC2       12 GROUP        1 X    SEC  0     **** SEC X 2
     3 ASC3        1 GROUP        1 X    ASC  0     **** ASC X 3
     4 GLC5        9 GROUP        1 X    GLC  0     **** GLC X 6
     5 ALP1        8 GROUP        1 Y    ALP  0     ROOT ALP Y 8
     6 SEP2       14 GROUP        1 Y    SEP  0     **** SEP Y 9
     7 ASP3        3 GROUP        1 Y    ASP  0     **** ASP Y 10
     8 GLP5       11 GROUP        1 Y    GLP  0     **** GLP Y 13
     9 ALL1        7 GROUP        1 Z    ALL  0     ROOT ALL Z 15
    10 SEL2       13 GROUP        1 Z    SEL  0     **** SEL Z 16
    11 ASL3        2 GROUP        1 Z    ASL  0     **** ASL Z 17
    12 GLL5       10 GROUP        1 Z    GLL  0     **** GLL Z 20
@<TRIPOS>SET

