#    Name: 1pn9_GTX_2_ligand
#    Modification time : Mon Mar 24 21:57:59 2014

@<TRIPOS>MOLECULE
1pn9_GTX_2_ligand
   54    53     1     0     0
SMALL
NO_CHARGES


@<TRIPOS>ATOM
      1 N1         43.1190   58.3470   21.7830 N.4       1 GTX302      0.0000 
      2 CA1        42.5550   59.5540   22.4670 C.3       1 GTX302      0.0000 
      3 C1         43.5070   60.7360   22.3260 C.2       1 GTX302      0.0000 
      4 O11        44.7000   60.4870   22.0610 O.co2     1 GTX302      0.0000 
      5 O12        43.0540   61.8880   22.4720 O.co2     1 GTX302      0.0000 
      6 CB1        42.3200   59.2520   23.9510 C.3       1 GTX302      0.0000 
      7 CG1        41.6830   60.4060   24.7210 C.3       1 GTX302      0.0000 
      8 CD1        41.1990   59.9870   26.0990 C.2       1 GTX302      0.0000 
      9 OE1        41.4220   58.8530   26.5240 O.2       1 GTX302      0.0000 
     10 N2         40.5410   60.9050   26.7980 N.am      1 GTX302      0.0000 
     11 CA2        40.0010   60.6310   28.1240 C.3       1 GTX302      0.0000 
     12 C2         38.5190   61.0000   28.1630 C.2       1 GTX302      0.0000 
     13 O2         38.1200   62.0470   27.6620 O.2       1 GTX302      0.0000 
     14 CB2        40.7600   61.4360   29.1790 C.3       1 GTX302      0.0000 
     15 SG2        42.5010   60.9970   29.3240 S.3       1 GTX302      0.0000 
     16 C1S        42.4030   59.7140   30.5670 C.3       1 GTX302      0.0000 
     17 C2S        42.9520   60.1150   31.9230 C.3       1 GTX302      0.0000 
     18 C3S        42.1270   61.2080   32.5770 C.3       1 GTX302      0.0000 
     19 C4S        42.5040   61.3490   34.0490 C.3       1 GTX302      0.0000 
     20 C5S        41.8630   62.5850   34.6760 C.3       1 GTX302      0.0000 
     21 C6S        40.3430   62.4910   34.7040 C.3       1 GTX302      0.0000 
     22 N3         37.7130   60.1380   28.7730 N.am      1 GTX302      0.0000 
     23 CA3        36.2690   60.3150   28.9170 C.3       1 GTX302      0.0000 
     24 C3         35.4840   59.8230   27.7130 C.2       1 GTX302      0.0000 
     25 O31        34.2340   59.8800   27.7620 O.co2     1 GTX302      0.0000 
     26 O32        36.1100   59.3740   26.7260 O.co2     1 GTX302      0.0000 
     27 H          41.6103   59.8152   22.0199 H         1 GTX302      0.0000 
     28 H          43.2839   58.9969   24.4184 H         1 GTX302      0.0000 
     29 H          41.6739   58.3642   24.0347 H         1 GTX302      0.0000 
     30 H          40.8364   60.7962   24.1432 H         1 GTX302      0.0000 
     31 H          42.4175   61.2138   24.8255 H         1 GTX302      0.0000 
     32 H          40.3765   61.8700   26.4342 H         1 GTX302      0.0000 
     33 H          40.0948   59.5844   28.3635 H         1 GTX302      0.0000 
     34 H          40.3930   61.2755   30.1813 H         1 GTX302      0.0000 
     35 H          40.8015   62.4919   28.9592 H         1 GTX302      0.0000 
     36 H          42.9488   58.8981   30.1092 H         1 GTX302      0.0000 
     37 H          41.3451   59.4822   30.5857 H         1 GTX302      0.0000 
     38 H          43.9852   60.4650   31.8050 H         1 GTX302      0.0000 
     39 H          42.9705   59.2359   32.5793 H         1 GTX302      0.0000 
     40 H          41.0701   60.9609   32.5006 H         1 GTX302      0.0000 
     41 H          42.3079   62.1533   32.0694 H         1 GTX302      0.0000 
     42 H          43.5899   61.4246   34.1363 H         1 GTX302      0.0000 
     43 H          42.1748   60.4600   34.5912 H         1 GTX302      0.0000 
     44 H          42.1590   63.4706   34.1042 H         1 GTX302      0.0000 
     45 H          42.2359   62.7016   35.6988 H         1 GTX302      0.0000 
     46 H          38.0908   59.2452   29.2019 H         1 GTX302      0.0000 
     47 H          36.0246   61.3833   29.0748 H         1 GTX302      0.0000 
     48 H          35.9012   59.7766   29.8118 H         1 GTX302      0.0000 
     49 H          42.5097   57.5579   21.8601 H         1 GTX302      0.0000 
     50 H          43.2675   58.5085   20.8074 H         1 GTX302      0.0000 
     51 H          43.9994   58.0768   22.1727 H         1 GTX302      0.0000 
     52 H          40.0293   61.7029   35.2336 H         1 GTX302      0.0000 
     53 H          39.9281   63.3034   35.1138 H         1 GTX302      0.0000 
     54 H          39.9597   62.3980   33.7851 H         1 GTX302      0.0000 
@<TRIPOS>BOND
     1    2    1 1    
     2   49    1 1    
     3   50    1 1    
     4   51    1 1    
     5    3    2 1    
     6    6    2 1    
     7   27    2 1    
     8    4    3 ar   
     9    5    3 ar   
    10    7    6 1    
    11   28    6 1    
    12   29    6 1    
    13    8    7 1    
    14   30    7 1    
    15   31    7 1    
    16    9    8 2    
    17   10    8 am   
    18   11   10 1    
    19   32   10 1    
    20   12   11 1    
    21   14   11 1    
    22   33   11 1    
    23   13   12 2    
    24   22   12 am   
    25   15   14 1    
    26   34   14 1    
    27   35   14 1    
    28   16   15 1    
    29   17   16 1    
    30   36   16 1    
    31   37   16 1    
    32   18   17 1    
    33   38   17 1    
    34   39   17 1    
    35   19   18 1    
    36   40   18 1    
    37   41   18 1    
    38   20   19 1    
    39   42   19 1    
    40   43   19 1    
    41   21   20 1    
    42   44   20 1    
    43   45   20 1    
    44   52   21 1    
    45   53   21 1    
    46   54   21 1    
    47   23   22 1    
    48   46   22 1    
    49   24   23 1    
    50   47   23 1    
    51   48   23 1    
    52   25   24 ar   
    53   26   24 ar   
@<TRIPOS>SUBSTRUCTURE
     1 GTX302      1 GROUP   
@<TRIPOS>SET

