#    Name: 2qg2_A91_1_INTS_M
#    Modification time : Mon Mar 24 22:01:26 2014

@<TRIPOS>MOLECULE
2qg2_A91_1_INTS_M
   55     0     6     0     0
SMALL
NO_CHARGES


@<TRIPOS>ATOM
      1 CA          2.9625   30.3650   22.3990 C.3       2 GLC5        0.0000 
      2 CA          4.7270   29.3880   23.2380 C.3       6 GLL5        0.0000 
      3 CA          1.1980   31.3420   21.5600 C.3       4 GLP5        0.0000 
      4 CA          4.5565   29.5155   21.3510 C.3       2 GLC5        0.0000 
      5 CA          4.3860   29.6430   19.4640 C.3       4 GLP5        0.0000 
      6 CA          5.3585   27.8085   23.1155 C.3       2 GLC5        0.0000 
      7 CA          5.9900   26.2290   22.9930 C.3       4 GLP5        0.0000 
      8 CA          3.4810   31.5540   22.7730 C.3       2 GLC5        0.0000 
      9 CA          4.6090   30.5130   24.2690 C.3       6 GLL5        0.0000 
     10 CA          2.3530   32.5950   21.2770 C.3       4 GLP5        0.0000 
     11 CA          5.4845   33.5980   23.3105 C.3       2 GLC5        0.0000 
     12 CA          5.4300   33.2050   25.1140 C.3       6 GLL5        0.0000 
     13 CA          5.5390   33.9910   21.5070 C.3       4 GLP5        0.0000 
     14 CA          5.0450   32.4695   26.7575 C.3       2 GLC5        0.0000 
     15 CA          4.6600   31.7340   28.4010 C.3       4 GLP5        0.0000 
     16 CA          9.5125   36.1190   26.6385 C.3       2 GLC5        0.0000 
     17 CA          7.5090   35.9690   26.7620 C.3       6 GLL5        0.0000 
     18 CA         11.5160   36.2690   26.5150 C.3       4 GLP5        0.0000 
     19 CA          7.4855   34.7745   24.0660 C.3       2 GLC5        0.0000 
     20 CA          7.1350   34.7080   26.1800 C.3       6 GLL5        0.0000 
     21 CA          7.8360   34.8410   21.9520 C.3       4 GLP5        0.0000 
     22 CA          1.6980   33.9125   22.8770 C.3       2 GLC5        0.0000 
     23 CA          1.0430   35.2300   24.4770 C.3       6 GLL5        0.0000 
     24 CA         -0.7620   35.4105   26.4195 C.3       2 GLC5        0.0000 
     25 CA         -1.2080   34.6200   24.5790 C.3       6 GLL5        0.0000 
     26 CA         -0.3160   36.2010   28.2600 C.3       4 GLP5        0.0000 
     27 CA         -2.4245   36.1935   23.8425 C.3       2 GLC5        0.0000 
     28 CA         -3.6410   37.7670   23.1060 C.3       4 GLP5        0.0000 
     29 CA         -2.1570   33.0625   23.5135 C.3       2 GLC5        0.0000 
     30 CA         -3.1060   31.5050   22.4480 C.3       4 GLP5        0.0000 
     31 CA         -1.6060   37.4385   20.2230 C.3       2 GLC5        0.0000 
     32 CA         -0.6980   36.2870   21.3230 C.3       6 GLL5        0.0000 
     33 CA         -2.5140   38.5900   19.1230 C.3       4 GLP5        0.0000 
     34 CA         -1.7375   35.2985   19.8465 C.3       2 GLC5        0.0000 
     35 CA         -2.7770   34.3100   18.3700 C.3       4 GLP5        0.0000 
     36 O          -3.5910   33.8205   25.0790 O.2       1 ALC1        0.0000 
     37 O          -2.1930   34.0640   25.2440 O.2       5 ALL1        0.0000 
     38 O          -4.9890   33.5770   24.9140 O.2       3 ALP1        0.0000 
     39 CA          4.4920   29.5652   25.5572 C.3       2 GLC5        0.0000 
     40 CA          4.3160   29.1800   27.3610 C.3       4 GLP5        0.0000 
     41 CA          3.3080   28.6108   24.2458 C.3       2 GLC5        0.0000 
     42 CA          1.9480   27.2710   24.7380 C.3       4 GLP5        0.0000 
     43 CA          5.8332   35.1380   23.7765 C.3       2 GLC5        0.0000 
     44 CA          5.7870   34.4950   25.7130 C.3       6 GLL5        0.0000 
     45 CA          6.3660   35.2360   21.7740 C.3       4 GLP5        0.0000 
     46 CA          7.6130   36.8420   28.8455 C.3       2 GLC5        0.0000 
     47 CA          8.2020   37.1840   30.8690 C.3       4 GLP5        0.0000 
     48 CA          5.5294   33.9825   27.4982 C.3       2 GLC5        0.0000 
     49 CA          4.8410   33.0910   29.0170 C.3       4 GLP5        0.0000 
     50 CA          0.6903   35.7370   26.5003 C.3       2 GLC5        0.0000 
     51 CA          2.3500   35.3160   25.0040 C.3       6 GLL5        0.0000 
     52 CA         -2.1015   36.8837   22.5527 C.3       2 GLC5        0.0000 
     53 CA         -0.4260   35.7140   22.6760 C.3       6 GLL5        0.0000 
     54 CA          0.6304   34.7890   21.0819 C.3       2 GLC5        0.0000 
     55 CA          1.4970   33.5580   20.0330 C.3       4 GLP5        0.0000 
@<TRIPOS>BOND
@<TRIPOS>SUBSTRUCTURE
     1 ALC1       36 GROUP        1 X    ALC  0     ROOT ALC X 1
     2 GLC5        1 GROUP        1 X    GLC  0     **** GLC X 6
     3 ALP1       38 GROUP        1 Y    ALP  0     ROOT ALP Y 8
     4 GLP5        3 GROUP        1 Y    GLP  0     **** GLP Y 13
     5 ALL1       37 GROUP        1 Z    ALL  0     ROOT ALL Z 15
     6 GLL5        2 GROUP        1 Z    GLL  0     **** GLL Z 20
@<TRIPOS>SET

