#    Name: 2qg2_A91_1_ligand
#    Modification time : Mon Mar 24 22:01:26 2014

@<TRIPOS>MOLECULE
2qg2_A91_1_ligand
   39    41     1     0     0
SMALL
NO_CHARGES


@<TRIPOS>ATOM
      1 C1          4.7270   29.3880   23.2380 C.2       1 A91300      0.0000 
      2 C2          4.6090   30.5130   24.2690 C.2       1 A91300      0.0000 
      3 N3          5.8680   31.2160   24.0760 N.am      1 A91300      0.0000 
      4 C4          6.6810   30.6150   23.1650 C.2       1 A91300      0.0000 
      5 O5          6.0120   29.6240   22.5660 O.3       1 A91300      0.0000 
      6 O6          7.8220   30.9050   22.9030 O.2       1 A91300      0.0000 
      7 N7          6.3140   32.3780   24.6500 N.pl3     1 A91300      0.0000 
      8 C8          5.4300   33.2050   25.1140 C.3       1 A91300      0.0000 
      9 C9          5.7870   34.4950   25.7130 C.ar      1 A91300      0.0000 
     10 C10         4.8140   35.5850   25.8450 C.ar      1 A91300      0.0000 
     11 C11         5.1940   36.8430   26.4270 C.ar      1 A91300      0.0000 
     12 C12         6.5390   37.0310   26.8820 C.ar      1 A91300      0.0000 
     13 C13         7.5090   35.9690   26.7620 C.ar      1 A91300      0.0000 
     14 C14         7.1350   34.7080   26.1800 C.ar      1 A91300      0.0000 
     15 C15         3.4500   35.4450   25.4020 C.1       1 A91300      0.0000 
     16 C16         2.3500   35.3160   25.0040 C.1       1 A91300      0.0000 
     17 C17         1.0430   35.2300   24.4770 C.ar      1 A91300      0.0000 
     18 C18         0.8770   35.7920   23.2010 C.ar      1 A91300      0.0000 
     19 C19        -0.4260   35.7140   22.6760 C.ar      1 A91300      0.0000 
     20 N20        -1.4840   35.1360   23.3400 N.ar      1 A91300      0.0000 
     21 C21        -1.2080   34.6200   24.5790 C.ar      1 A91300      0.0000 
     22 N22         0.0120   34.6390   25.1790 N.ar      1 A91300      0.0000 
     23 C23        -0.6980   36.2870   21.3230 C.3       1 A91300      0.0000 
     24 N24        -2.1930   34.0640   25.2440 N.pl3     1 A91300      0.0000 
     25 H           4.1306   28.7508   23.1039 H         1 A91300      0.0000 
     26 H           3.9468   30.6531   24.8042 H         1 A91300      0.0000 
     27 H           7.3316   32.5569   24.6946 H         1 A91300      0.0000 
     28 H           4.7257   32.6870   25.9003 H         1 A91300      0.0000 
     29 H           4.6113   33.4577   24.3087 H         1 A91300      0.0000 
     30 H           4.5167   37.5868   26.5134 H         1 A91300      0.0000 
     31 H           6.8174   37.9178   27.2935 H         1 A91300      0.0000 
     32 H           8.4569   36.1145   27.0898 H         1 A91300      0.0000 
     33 H           7.8196   33.9655   26.0970 H         1 A91300      0.0000 
     34 H           1.6229   36.2135   22.7049 H         1 A91300      0.0000 
     35 H          -1.9544   33.6583   26.1263 H         1 A91300      0.0000 
     36 H          -3.0922   34.0968   24.8077 H         1 A91300      0.0000 
     37 H          -0.4958   37.2657   21.2866 H         1 A91300      0.0000 
     38 H          -0.1452   35.8470   20.6153 H         1 A91300      0.0000 
     39 H          -1.6558   36.1756   21.0582 H         1 A91300      0.0000 
@<TRIPOS>BOND
     1    2    1 2    
     2    5    1 1    
     3   25    1 1    
     4    3    2 1    
     5   26    2 1    
     6    4    3 am   
     7    7    3 1    
     8    5    4 1    
     9    6    4 2    
    10    8    7 1    
    11   27    7 1    
    12    9    8 1    
    13   28    8 1    
    14   29    8 1    
    15   10    9 ar   
    16   14    9 ar   
    17   11   10 ar   
    18   15   10 1    
    19   12   11 ar   
    20   30   11 1    
    21   13   12 ar   
    22   31   12 1    
    23   14   13 ar   
    24   32   13 1    
    25   33   14 1    
    26   16   15 3    
    27   17   16 1    
    28   18   17 ar   
    29   22   17 ar   
    30   19   18 ar   
    31   34   18 1    
    32   20   19 ar   
    33   23   19 1    
    34   21   20 ar   
    35   22   21 ar   
    36   24   21 1    
    37   37   23 1    
    38   38   23 1    
    39   39   23 1    
    40   35   24 1    
    41   36   24 1    
@<TRIPOS>SUBSTRUCTURE
     1 A91300      1 GROUP   
@<TRIPOS>SET

