#    Name: 4l6s_1WQ_2_INTS_M
#    Modification time : Mon Apr  7 23:56:29 2014

@<TRIPOS>MOLECULE
4l6s_1WQ_2_INTS_M
   52     0     9     0     0
SMALL
NO_CHARGES


@<TRIPOS>ATOM
      1 CA          2.4815  -18.1190  -39.2080 C.3       3 GLC5        0.0000 
      2 CA          1.0310  -18.4110  -37.9010 C.3       9 GLL5        0.0000 
      3 CA          3.9320  -17.8270  -40.5150 C.3       6 GLP5        0.0000 
      4 CA          1.2065  -20.3050  -36.8105 C.3       3 GLC5        0.0000 
      5 CA          1.3820  -22.1990  -35.7200 C.3       6 GLP5        0.0000 
      6 CA          0.0975  -20.6985  -37.1515 C.3       3 GLC5        0.0000 
      7 CA         -0.4510  -18.6430  -37.5510 C.3       9 GLL5        0.0000 
      8 CA          0.6460  -22.7540  -36.7520 C.3       6 GLP5        0.0000 
      9 CA        -10.1880  -22.4715  -33.4650 C.3       3 GLC5        0.0000 
     10 CA         -9.1260  -20.7760  -34.3360 C.3       9 GLL5        0.0000 
     11 CA        -11.2500  -24.1670  -32.5940 C.3       6 GLP5        0.0000 
     12 CA        -10.7650  -14.5305  -33.0035 C.3       3 GLC5        0.0000 
     13 CA        -11.3840  -16.6450  -33.0720 C.3       9 GLL5        0.0000 
     14 CA        -10.1460  -12.4160  -32.9350 C.3       6 GLP5        0.0000 
     15 CA        -11.1575  -15.5545  -31.4270 C.3       3 GLC5        0.0000 
     16 CA        -10.9310  -14.4640  -29.7820 C.3       6 GLP5        0.0000 
     17 CA        -13.5220  -15.2935  -34.4395 C.3       3 GLC5        0.0000 
     18 CA        -14.1110  -16.2890  -33.0770 C.3       9 GLL5        0.0000 
     19 CA        -12.9330  -14.2980  -35.8020 C.3       6 GLP5        0.0000 
     20 CA        -14.0720  -19.3760  -32.8745 C.3       3 GLC5        0.0000 
     21 CA        -12.7280  -18.4210  -34.0070 C.3       9 GLL5        0.0000 
     22 CA        -15.4160  -20.3310  -31.7420 C.3       6 GLP5        0.0000 
     23 CA        -11.2410  -20.1025  -32.3565 C.3       3 GLC5        0.0000 
     24 CA        -11.5860  -19.1690  -34.2740 C.3       9 GLL5        0.0000 
     25 CA        -10.8960  -21.0360  -30.4390 C.3       6 GLP5        0.0000 
     26 O          -2.8810  -21.3145  -38.6305 O.2       1 ALC1        0.0000 
     27 O          -2.0200  -20.5190  -37.8930 O.2       7 ALL1        0.0000 
     28 O          -3.7420  -22.1100  -39.3680 O.2       4 ALP1        0.0000 
     29 N          -1.5580  -20.5415  -40.5560 N.am      2 SEC2        0.0000 
     30 N          -0.6920  -19.9460  -39.5890 N.am      8 SEL2        0.0000 
     31 N          -2.4240  -21.1370  -41.5230 N.am      5 SEP2        0.0000 
     32 N           0.3570  -19.9115  -40.5630 N.am      2 SEC2        0.0000 
     33 N           1.4060  -19.8770  -41.5370 N.am      5 SEP2        0.0000 
     34 CA         -0.5210  -17.0260  -36.5635 C.3       3 GLC5        0.0000 
     35 CA         -1.3320  -15.5250  -35.4010 C.3       6 GLP5        0.0000 
     36 CA          0.2665  -16.7575  -38.7385 C.3       3 GLC5        0.0000 
     37 CA          0.2430  -14.9880  -39.7510 C.3       6 GLP5        0.0000 
     38 CA         -1.6565  -17.5290  -35.2133 C.3       3 GLC5        0.0000 
     39 CA         -1.7430  -19.6060  -35.6800 C.3       9 GLL5        0.0000 
     40 CA         -8.9620  -19.8020  -32.5130 C.3       3 GLC5        0.0000 
     41 CA         -7.8270  -18.6460  -34.2710 C.3       9 GLL5        0.0000 
     42 CA         -9.4660  -20.5560  -30.7710 C.3       6 GLP5        0.0000 
     43 CA         -8.9872  -20.8745  -32.6088 C.3       3 GLC5        0.0000 
     44 CA         -9.8755  -19.2868  -32.2223 C.3       3 GLC5        0.0000 
     45 CA        -10.3310  -18.6560  -33.9850 C.3       9 GLL5        0.0000 
     46 CA        -12.4703  -15.6025  -34.5200 C.3       3 GLC5        0.0000 
     47 CA        -14.1285  -17.6110  -31.6807 C.3       3 GLC5        0.0000 
     48 CA        -12.6310  -17.1690  -33.4040 C.3       9 GLL5        0.0000 
     49 CA        -14.8860  -18.4930  -30.1210 C.3       6 GLP5        0.0000 
     50 CA         -2.2338  -22.2903  -37.0070 C.3       3 GLC5        0.0000 
     51 CA         -3.6610  -21.0260  -36.1610 C.3       9 GLL5        0.0000 
     52 CA         -1.3920  -23.8780  -37.6470 C.3       6 GLP5        0.0000 
@<TRIPOS>BOND
@<TRIPOS>SUBSTRUCTURE
     1 ALC1       26 GROUP        1 X    ALC  0     ROOT ALC X 1
     2 SEC2       29 GROUP        1 X    SEC  0     **** SEC X 2
     3 GLC5        1 GROUP        1 X    GLC  0     **** GLC X 6
     4 ALP1       28 GROUP        1 Y    ALP  0     ROOT ALP Y 8
     5 SEP2       31 GROUP        1 Y    SEP  0     **** SEP Y 9
     6 GLP5        3 GROUP        1 Y    GLP  0     **** GLP Y 13
     7 ALL1       27 GROUP        1 Z    ALL  0     ROOT ALL Z 15
     8 SEL2       30 GROUP        1 Z    SEL  0     **** SEL Z 16
     9 GLL5        2 GROUP        1 Z    GLL  0     **** GLL Z 20
@<TRIPOS>SET

