#    Name: 4l6s_1WQ_2_ligand
#    Modification time : Mon Apr  7 23:56:29 2014

@<TRIPOS>MOLECULE
4l6s_1WQ_2_ligand
   48    51     1     0     0
SMALL
NO_CHARGES


@<TRIPOS>ATOM
      1 C1          1.0310  -18.4110  -37.9010 C.3       1 1WQ1100     0.0000 
      2 C2         -0.4510  -18.6430  -37.5510 C.3       1 1WQ1100     0.0000 
      3 O4         -0.5850  -19.0000  -36.1400 O.3       1 1WQ1100     0.0000 
      4 C5         -1.7430  -19.6060  -35.6800 C.ar      1 1WQ1100     0.0000 
      5 C6         -2.2190  -19.4600  -34.3710 C.ar      1 1WQ1100     0.0000 
      6 C7         -3.3910  -20.1140  -33.9560 C.ar      1 1WQ1100     0.0000 
      7 C8         -4.1320  -20.8930  -34.8560 C.ar      1 1WQ1100     0.0000 
      8 C9         -5.3990  -21.6360  -34.4770 C.3       1 1WQ1100     0.0000 
      9 N10        -6.6460  -20.8500  -34.2870 N.4       1 1WQ1100     0.0000 
     10 C11        -6.6170  -19.4530  -34.7680 C.3       1 1WQ1100     0.0000 
     11 C12        -7.8270  -18.6460  -34.2710 C.3       1 1WQ1100     0.0000 
     12 C13        -9.0890  -19.4500  -34.2390 C.2       1 1WQ1100     0.0000 
     13 C14        -9.1260  -20.7760  -34.3360 C.2       1 1WQ1100     0.0000 
     14 C15        -7.8910  -21.6100  -34.5570 C.3       1 1WQ1100     0.0000 
     15 C16       -10.3310  -18.6560  -33.9850 C.ar      1 1WQ1100     0.0000 
     16 C17       -10.2390  -17.3790  -33.3620 C.ar      1 1WQ1100     0.0000 
     17 C18       -11.3840  -16.6450  -33.0720 C.ar      1 1WQ1100     0.0000 
     18 C19       -12.6310  -17.1690  -33.4040 C.ar      1 1WQ1100     0.0000 
     19 CL        -14.1110  -16.2890  -33.0770 Cl        1 1WQ1100     0.0000 
     20 C21       -12.7280  -18.4210  -34.0070 C.ar      1 1WQ1100     0.0000 
     21 C22       -11.5860  -19.1690  -34.2740 C.ar      1 1WQ1100     0.0000 
     22 C23        -3.6610  -21.0260  -36.1610 C.ar      1 1WQ1100     0.0000 
     23 C24        -2.4900  -20.3790  -36.5730 C.ar      1 1WQ1100     0.0000 
     24 N25        -2.0200  -20.5190  -37.8930 N.am      1 1WQ1100     0.0000 
     25 C26        -1.0530  -19.7320  -38.4220 C.2       1 1WQ1100     0.0000 
     26 O27        -0.6920  -19.9460  -39.5890 O.2       1 1WQ1100     0.0000 
     27 H          -0.9844  -17.7161  -37.7481 H         1 1WQ1100     0.0000 
     28 H          -1.7057  -18.8672  -33.7040 H         1 1WQ1100     0.0000 
     29 H          -3.7077  -20.0197  -32.9819 H         1 1WQ1100     0.0000 
     30 H          -5.1880  -22.2253  -33.5390 H         1 1WQ1100     0.0000 
     31 H          -5.5798  -22.4322  -35.2547 H         1 1WQ1100     0.0000 
     32 H          -6.6827  -20.7186  -33.0864 H         1 1WQ1100     0.0000 
     33 H          -6.6156  -19.4248  -35.8664 H         1 1WQ1100     0.0000 
     34 H          -5.7044  -18.9470  -34.4238 H         1 1WQ1100     0.0000 
     35 H          -7.9548  -17.7737  -34.9290 H         1 1WQ1100     0.0000 
     36 H          -7.5992  -18.2657  -33.2642 H         1 1WQ1100     0.0000 
     37 H         -10.0063  -21.3276  -34.2664 H         1 1WQ1100     0.0000 
     38 H          -7.9370  -22.4961  -33.9037 H         1 1WQ1100     0.0000 
     39 H          -7.8880  -21.9750  -35.5967 H         1 1WQ1100     0.0000 
     40 H          -9.3087  -17.0079  -33.1296 H         1 1WQ1100     0.0000 
     41 H         -11.3122  -15.7304  -32.6199 H         1 1WQ1100     0.0000 
     42 H         -13.6562  -18.7963  -34.2576 H         1 1WQ1100     0.0000 
     43 H         -11.6756  -20.1086  -34.6886 H         1 1WQ1100     0.0000 
     44 H          -4.1814  -21.6096  -36.8357 H         1 1WQ1100     0.0000 
     45 H          -2.4555  -21.2786  -38.4791 H         1 1WQ1100     0.0000 
     46 H           1.4286  -17.6697  -37.3603 H         1 1WQ1100     0.0000 
     47 H           1.5846  -19.2265  -37.7321 H         1 1WQ1100     0.0000 
     48 H           1.1518  -18.1690  -38.8637 H         1 1WQ1100     0.0000 
@<TRIPOS>BOND
     1    2    1 1    
     2   46    1 1    
     3   47    1 1    
     4   48    1 1    
     5    3    2 1    
     6   25    2 1    
     7   27    2 1    
     8    4    3 1    
     9    5    4 ar   
    10   23    4 ar   
    11    6    5 ar   
    12   28    5 1    
    13    7    6 ar   
    14   29    6 1    
    15    8    7 1    
    16   22    7 ar   
    17    9    8 1    
    18   30    8 1    
    19   31    8 1    
    20   10    9 1    
    21   14    9 1    
    22   32    9 1    
    23   11   10 1    
    24   33   10 1    
    25   34   10 1    
    26   12   11 1    
    27   35   11 1    
    28   36   11 1    
    29   13   12 2    
    30   15   12 1    
    31   14   13 1    
    32   37   13 1    
    33   38   14 1    
    34   39   14 1    
    35   16   15 ar   
    36   21   15 ar   
    37   17   16 ar   
    38   40   16 1    
    39   18   17 ar   
    40   41   17 1    
    41   19   18 1    
    42   20   18 ar   
    43   21   20 ar   
    44   42   20 1    
    45   43   21 1    
    46   23   22 ar   
    47   44   22 1    
    48   24   23 1    
    49   25   24 am   
    50   45   24 1    
    51   26   25 2    
@<TRIPOS>SUBSTRUCTURE
     1 1WQ1100     1 GROUP   
@<TRIPOS>SET

