#    Name: 4GFD_1_CAVITY_N1_6.mol2
#    Modification time : Mon Mar 10 23:37:12 2014

@<TRIPOS>MOLECULE
4GFD_1_CAVITY_N1_6.mol2
   75     0     5     0     0
SMALL
NO_CHARGES


@<TRIPOS>ATOM
      1 CZ         10.2461    3.3918    3.2874 C.ar      3 PHE5        0.0000 
      2 O          10.7289    3.5709    1.2295 O.2       1 ALA2        0.0000 
      3 CZ          9.6127    4.0608    2.1037 C.ar      3 PHE5        0.0000 
      4 CZ          8.4964    4.5506    2.9778 C.ar      3 PHE5        0.0000 
      5 CZ          8.9792    4.7297    0.9199 C.ar      3 PHE5        0.0000 
      6 N          15.9856   -2.6725    6.2928 N.2       1 ALA2        0.0000 
      7 N          15.3522   -2.0036    5.1090 N.2       1 ALA2        0.0000 
      8 DU         14.2359   -1.5137    5.9832 H         5 CUB7        0.0000 
      9 CZ         14.7187   -1.3346    3.9253 C.ar      3 PHE5        0.0000 
     10 DU         13.6025   -0.8448    4.7994 H         5 CUB7        0.0000 
     11 DU         12.4863   -0.3550    5.6735 H         5 CUB7        0.0000 
     12 CZ         12.9691   -0.1758    3.6157 C.ar      3 PHE5        0.0000 
     13 DU         11.8528    0.3140    4.4898 H         5 CUB7        0.0000 
     14 CZ         12.3356    0.4932    2.4319 C.ar      3 PHE5        0.0000 
     15 DU         11.2194    0.9830    3.3060 H         5 CUB7        0.0000 
     16 CZ         10.1032    1.4728    4.1802 C.ar      3 PHE5        0.0000 
     17 CZ         11.7022    1.1621    1.2482 C.ar      3 PHE5        0.0000 
     18 CZ         10.5860    1.6519    2.1223 C.ar      3 PHE5        0.0000 
     19 CZ          9.4697    2.1418    2.9964 C.ar      3 PHE5        0.0000 
     20 O          11.0688    1.8311    0.0644 O.2       1 ALA2        0.0000 
     21 CA          9.9525    2.3209    0.9386 C.3       4 GLY6        0.0000 
     22 O          13.6102   -3.6119    8.9338 O.2       1 ALA2        0.0000 
     23 N          15.2092   -3.9226    6.0018 N.2       1 ALA2        0.0000 
     24 CA         14.0930   -3.4327    6.8759 C.3       4 GLY6        0.0000 
     25 CA         12.9767   -2.9429    7.7501 C.3       4 GLY6        0.0000 
     26 N          14.5758   -3.2536    4.8181 N.2       1 ALA2        0.0000 
     27 DU         13.4595   -2.7638    5.6922 H         5 CUB7        0.0000 
     28 DU         12.3433   -2.2739    6.5663 H         5 CUB7        0.0000 
     29 N          15.0586   -3.0744    2.7602 N.2       1 ALA2        0.0000 
     30 N          13.9423   -2.5846    3.6343 N.2       1 ALA2        0.0000 
     31 CA         12.8261   -2.0948    4.5084 C.3       4 GLY6        0.0000 
     32 CA         11.7099   -1.6050    5.3826 C.3       4 GLY6        0.0000 
     33 CZ         14.4251   -2.4055    1.5765 C.ar      3 PHE5        0.0000 
     34 CZ         13.3089   -1.9157    2.4506 C.ar      3 PHE5        0.0000 
     35 CA         12.1927   -1.4258    3.3247 C.3       4 GLY6        0.0000 
     36 CA         11.0764   -0.9360    4.1988 C.3       4 GLY6        0.0000 
     37 O           9.9602   -0.4462    5.0729 O.2       1 ALA2        0.0000 
     38 CZ         12.6755   -1.2467    1.2668 C.ar      3 PHE5        0.0000 
     39 CZ         11.5592   -0.7569    2.1410 C.ar      3 PHE5        0.0000 
     40 CA         10.4430   -0.2670    3.0151 C.3       4 GLY6        0.0000 
     41 CZ         12.0420   -0.5777    0.0831 C.ar      3 PHE5        0.0000 
     42 DU         10.9258   -0.0879    0.9572 H         5 CUB7        0.0000 
     43 CZ          9.8096    0.4019    1.8313 C.ar      3 PHE5        0.0000 
     44 CA         10.2924    0.5811   -0.2265 C.3       4 GLY6        0.0000 
     45 CA         14.4328   -5.1726    5.7108 C.3       4 GLY6        0.0000 
     46 CA         13.3166   -4.6828    6.5850 C.3       4 GLY6        0.0000 
     47 CA         12.2004   -4.1929    7.4591 C.3       4 GLY6        0.0000 
     48 N          13.7994   -4.5036    4.5271 N.2       1 ALA2        0.0000 
     49 CA         12.6832   -4.0138    5.4012 C.3       4 GLY6        0.0000 
     50 CA         11.5669   -3.5240    6.2753 C.3       4 GLY6        0.0000 
     51 NZ         14.2822   -4.3245    2.4692 N.2       2 LYS4        0.0000 
     52 CA         13.1660   -3.8346    3.3434 C.3       4 GLY6        0.0000 
     53 CA         12.0497   -3.3448    4.2175 C.3       4 GLY6        0.0000 
     54 NZ         13.6487   -3.6555    1.2855 N.2       2 LYS4        0.0000 
     55 CA         12.5325   -3.1657    2.1596 C.3       4 GLY6        0.0000 
     56 O          13.0153   -2.9865    0.1017 O.2       1 ALA2        0.0000 
     57 CA         11.8991   -2.4967    0.9759 C.3       4 GLY6        0.0000 
     58 CA         10.7828   -2.0069    1.8500 C.3       4 GLY6        0.0000 
     59 CA         11.2656   -1.8278   -0.2079 C.3       4 GLY6        0.0000 
     60 CA         10.1494   -1.3379    0.6662 C.3       4 GLY6        0.0000 
     61 N          11.9068   -5.2638    5.1103 N.2       1 ALA2        0.0000 
     62 CA         10.7905   -4.7740    5.9844 C.3       4 GLY6        0.0000 
     63 O           9.6743   -4.2842    6.8585 O.2       1 ALA2        0.0000 
     64 NZ         12.2817    6.0710    1.8115 N.2       2 LYS4        0.0000 
     65 NZ         11.6482    6.7399    0.6277 N.2       2 LYS4        0.0000 
     66 CZ         12.1387    4.1520    2.7042 C.ar      3 PHE5        0.0000 
     67 NZ         12.6215    4.3311    0.6464 N.2       2 LYS4        0.0000 
     68 NZ         11.5053    4.8210    1.5205 N.2       2 LYS4        0.0000 
     69 O          10.3891    5.3108    2.3946 O.2       1 ALA2        0.0000 
     70 NZ         10.8719    5.4899    0.3368 N.2       2 LYS4        0.0000 
     71 O           9.7556    5.9797    1.2109 O.2       1 ALA2        0.0000 
     72 DU         14.3789    0.4052    5.0904 H         5 CUB7        0.0000 
     73 CZ         13.7454    1.0742    3.9066 C.ar      3 PHE5        0.0000 
     74 CZ         11.9958    2.2330    3.5970 C.ar      3 PHE5        0.0000 
     75 CZ         11.3623    2.9020    2.4133 C.ar      3 PHE5        0.0000 
@<TRIPOS>BOND
@<TRIPOS>SUBSTRUCTURE
     1 ALA2        2 GROUP   
     2 LYS4       51 GROUP   
     3 PHE5        1 GROUP   
     4 GLY6       21 GROUP   
     5 CUB7        8 GROUP   
@<TRIPOS>SET

