#    Name: 4gfd_0YB_1_INTS_M
#    Modification time : Mon Mar 24 22:09:25 2014

@<TRIPOS>MOLECULE
4gfd_0YB_1_INTS_M
   74     0    12     0     0
SMALL
NO_CHARGES


@<TRIPOS>ATOM
      1 CA         17.9705    2.3955    2.8415 C.3       4 GLC5        0.0000 
      2 CA         17.8000    0.3210    3.3910 C.3      12 GLL5        0.0000 
      3 CA         18.1410    4.4700    2.2920 C.3       8 GLP5        0.0000 
      4 CA         19.7725   -0.4650    3.4445 C.3       4 GLC5        0.0000 
      5 CA         17.8980   -0.6110    2.3770 C.3      12 GLL5        0.0000 
      6 CA         21.6470   -0.3190    4.5120 C.3       8 GLP5        0.0000 
      7 CA         13.2735   -0.2255    1.4425 C.3       4 GLC5        0.0000 
      8 CA         11.6840   -1.1170    1.8630 C.3      12 GLL5        0.0000 
      9 CA         14.8630    0.6660    1.0220 C.3       8 GLP5        0.0000 
     10 CA          9.6435   -1.8135    3.8555 C.3       4 GLC5        0.0000 
     11 CA          9.7630    0.0800    3.8430 C.3      12 GLL5        0.0000 
     12 CA          9.5240   -3.7070    3.8680 C.3       8 GLP5        0.0000 
     13 CA         13.1590    1.7855    2.2440 C.3       4 GLC5        0.0000 
     14 CA         11.7570    1.5710    3.5840 C.3      12 GLL5        0.0000 
     15 CA         14.5610    2.0000    0.9040 C.3       8 GLP5        0.0000 
     16 CA          8.9205    1.6295    2.2620 C.3       4 GLC5        0.0000 
     17 CA         10.6440    0.8730    2.8640 C.3      12 GLL5        0.0000 
     18 CA          7.1970    2.3860    1.6600 C.3       8 GLP5        0.0000 
     19 CA         11.4690   -4.4710    1.7690 C.3       4 GLC5        0.0000 
     20 CA         12.7310   -3.1930    0.9480 C.3      12 GLL5        0.0000 
     21 CA         10.2070   -5.7490    2.5900 C.3       8 GLP5        0.0000 
     22 CA         16.3400    4.9960    6.0770 C.3       4 GLC5        0.0000 
     23 CA         14.6600    5.6020    5.4140 C.3      12 GLL5        0.0000 
     24 CA         18.0200    4.3900    6.7400 C.3       8 GLP5        0.0000 
     25 CA         13.7240    3.1440    2.5275 C.3       4 GLC5        0.0000 
     26 CA         12.8870    4.2880    4.1510 C.3      12 GLL5        0.0000 
     27 O          11.3680    0.7510   -1.7415 O.2       1 ALC1        0.0000 
     28 O          11.4390   -0.0010   -0.5720 O.2       9 ALL1        0.0000 
     29 O          11.2970    1.5030   -2.9110 O.2       5 ALP1        0.0000 
     30 N          12.7750   -3.2025   -1.7805 N.am      2 SEC2        0.0000 
     31 N          12.3530   -1.8310   -1.5490 N.am     10 SEL2        0.0000 
     32 N          13.1970   -4.5740   -2.0120 N.am      6 SEP2        0.0000 
     33 N          12.2635   -1.7295   -2.8250 N.am      2 SEC2        0.0000 
     34 N          12.1740   -1.6280   -4.1010 N.am      6 SEP2        0.0000 
     35 N          11.0545    2.7065   -0.7670 N.am      2 SEC2        0.0000 
     36 N          10.6530    1.9180    0.3480 N.am     10 SEL2        0.0000 
     37 N          11.4560    3.4950   -1.8820 N.am      6 SEP2        0.0000 
     38 NZ         18.1265    0.5075    9.5480 N.4       3 LYC4        0.0000 
     39 NZ         16.9000    0.9390    9.1620 N.4      11 LYL4        0.0000 
     40 NZ         20.1580   -0.2880    8.9450 N.4       7 LYP4        0.0000 
     41 N          18.2785    0.1755    8.4555 N.am      2 SEC2        0.0000 
     42 N          16.9000    0.9390    9.1620 N.am     10 SEL2        0.0000 
     43 N          19.6570   -0.5880    7.7490 N.am      6 SEP2        0.0000 
     44 N          18.1265    0.5075    9.5480 N.am      2 SEC2        0.0000 
     45 N          19.3530    0.0760    9.9340 N.am      6 SEP2        0.0000 
     46 NZ         18.1845   -0.6605    7.6835 N.4       3 LYC4        0.0000 
     47 NZ         16.7120   -0.7330    7.6180 N.4      11 LYL4        0.0000 
     48 N          18.1845   -0.6605    7.6835 N.am      2 SEC2        0.0000 
     49 N          16.7120   -0.7330    7.6180 N.am     10 SEL2        0.0000 
     50 CA         20.8520   -0.0390   -0.0365 C.3       4 GLC5        0.0000 
     51 CA         19.2090   -0.3020    1.0560 C.3      12 GLL5        0.0000 
     52 CA         22.4950    0.2240   -1.1290 C.3       8 GLP5        0.0000 
     53 CA         20.5945    0.2580    2.2890 C.3       4 GLC5        0.0000 
     54 CA         21.9800    0.8180    3.5220 C.3       8 GLP5        0.0000 
     55 CA         19.4895    1.6965    0.8035 C.3       4 GLC5        0.0000 
     56 CA         19.7700    3.6950    0.5510 C.3       8 GLP5        0.0000 
     57 CA         17.2235   -0.1855    0.4720 C.3       4 GLC5        0.0000 
     58 CA         15.2380   -0.0690   -0.1120 C.3       8 GLP5        0.0000 
     59 CA         19.7550   -1.7885    0.1645 C.3       4 GLC5        0.0000 
     60 CA         20.3010   -3.2750   -0.7270 C.3       8 GLP5        0.0000 
     61 CA         19.0337    0.1840    4.7650 C.3       4 GLC5        0.0000 
     62 CA         16.8230    0.1470    4.3470 C.3      12 GLL5        0.0000 
     63 CA         20.7560    0.1340    5.6610 C.3       8 GLP5        0.0000 
     64 CA         16.6525    2.9392    6.5956 C.3       4 GLC5        0.0000 
     65 CA         15.6180    1.4550    5.9490 C.3      12 GLL5        0.0000 
     66 CA         18.4096   -2.6149    3.6285 C.3       4 GLC5        0.0000 
     67 CA         19.5850   -4.0310    4.6600 C.3       8 GLP5        0.0000 
     68 CA         10.7125   -2.5927    2.6035 C.3       4 GLC5        0.0000 
     69 CA         12.1180   -1.8400    0.8150 C.3      12 GLL5        0.0000 
     70 CA         13.8313   -1.2928    0.3847 C.3       4 GLC5        0.0000 
     71 CA          8.1135    1.2022    3.6565 C.3       4 GLC5        0.0000 
     72 CA          6.6570    1.9080    2.8580 C.3       8 GLP5        0.0000 
     73 CA         10.5005   -2.8309    0.4748 C.3       4 GLC5        0.0000 
     74 CA          8.6850   -3.3260   -0.1940 C.3       8 GLP5        0.0000 
@<TRIPOS>BOND
@<TRIPOS>SUBSTRUCTURE
     1 ALC1       27 GROUP        1 X    ALC  0     ROOT ALC X 1
     2 SEC2       30 GROUP        1 X    SEC  0     **** SEC X 2
     3 LYC4       38 GROUP        1 X    LYC  0     **** LYC X 4
     4 GLC5        1 GROUP        1 X    GLC  0     **** GLC X 6
     5 ALP1       29 GROUP        1 Y    ALP  0     ROOT ALP Y 8
     6 SEP2       32 GROUP        1 Y    SEP  0     **** SEP Y 9
     7 LYP4       40 GROUP        1 Y    LYP  0     **** LYP Y 11
     8 GLP5        3 GROUP        1 Y    GLP  0     **** GLP Y 13
     9 ALL1       28 GROUP        1 Z    ALL  0     ROOT ALL Z 15
    10 SEL2       31 GROUP        1 Z    SEL  0     **** SEL Z 16
    11 LYL4       39 GROUP        1 Z    LYL  0     **** LYL Z 18
    12 GLL5        2 GROUP        1 Z    GLL  0     **** GLL Z 20
@<TRIPOS>SET

