#    Name: 4gfd_0YB_1_ligand
#    Modification time : Mon Mar 24 22:09:25 2014

@<TRIPOS>MOLECULE
4gfd_0YB_1_ligand
   72    75     1     0     0
SMALL
NO_CHARGES


@<TRIPOS>ATOM
      1 C31        16.0910   -1.8730    3.3050 C.ar      1 0YB301      0.0000 
      2 C24        14.3000    1.6030    7.9400 C.ar      1 0YB301      0.0000 
      3 C23        13.3380    2.2990    7.2500 C.ar      1 0YB301      0.0000 
      4 C30        15.9730   -0.9470    4.3290 C.ar      1 0YB301      0.0000 
      5 C32        17.0500   -1.7000    2.3290 C.ar      1 0YB301      0.0000 
      6 C27        14.6380    2.1310    5.2580 C.ar      1 0YB301      0.0000 
      7 C34        17.8000    0.3210    3.3910 C.ar      1 0YB301      0.0000 
      8 C25        15.4420    1.1840    7.2990 C.ar      1 0YB301      0.0000 
      9 C22        13.4780    2.5470    5.8950 C.ar      1 0YB301      0.0000 
     10 C29        16.8230    0.1470    4.3470 C.ar      1 0YB301      0.0000 
     11 C26        15.6180    1.4550    5.9490 C.ar      1 0YB301      0.0000 
     12 C33        17.8980   -0.6110    2.3770 C.ar      1 0YB301      0.0000 
     13 C3         11.6840   -1.1170    1.8630 C.2       1 0YB301      0.0000 
     14 C2         12.1180   -1.8400    0.8150 C.2       1 0YB301      0.0000 
     15 C8         12.0020   -1.2640   -0.5160 C.2       1 0YB301      0.0000 
     16 C5         11.0470    0.7650    0.4950 C.2       1 0YB301      0.0000 
     17 C36        16.4420    0.4890    8.1250 C.2       1 0YB301      0.0000 
     18 C12         9.3770    0.9130    5.0670 C.3       1 0YB301      0.0000 
     19 C11         9.7630    0.0800    3.8430 C.3       1 0YB301      0.0000 
     20 C13        10.5990    1.5900    5.6720 C.3       1 0YB301      0.0000 
     21 C15        11.7570    1.5710    3.5840 C.3       1 0YB301      0.0000 
     22 C10        10.6440    0.8730    2.8640 C.3       1 0YB301      0.0000 
     23 C1         12.7310   -3.1930    0.9480 C.3       1 0YB301      0.0000 
     24 C19        13.6540    6.5070    3.4120 C.3       1 0YB301      0.0000 
     25 C20        12.3300    6.4060    5.4450 C.3       1 0YB301      0.0000 
     26 C21        14.6600    5.6020    5.4140 C.3       1 0YB301      0.0000 
     27 C17        12.8870    4.2880    4.1510 C.3       1 0YB301      0.0000 
     28 C16        12.3620    3.2730    5.1850 C.3       1 0YB301      0.0000 
     29 C18        13.3700    5.6630    4.6360 C.3       1 0YB301      0.0000 
     30 N7         11.4390   -0.0010   -0.5720 N.am      1 0YB301      0.0000 
     31 N4         11.1220    0.1320    1.7160 N.am      1 0YB301      0.0000 
     32 N14        11.2630    2.4320    4.6600 N.4       1 0YB301      0.0000 
     33 O9         12.3530   -1.8310   -1.5490 O.2       1 0YB301      0.0000 
     34 O6         10.6530    1.9180    0.3480 O.2       1 0YB301      0.0000 
     35 O37        16.9000    0.9390    9.1620 O.co2     1 0YB301      0.0000 
     36 O38        16.7120   -0.7330    7.6180 O.co2     1 0YB301      0.0000 
     37 O28        16.8000    1.1040    5.3410 O.3       1 0YB301      0.0000 
     38 BR3        19.2090   -0.3020    1.0560 Br        1 0YB301      0.0000 
     39 H          15.4620   -2.6884    3.2753 H         1 0YB301      0.0000 
     40 H          14.1659    1.3931    8.9442 H         1 0YB301      0.0000 
     41 H          12.4946    2.6451    7.7453 H         1 0YB301      0.0000 
     42 H          15.2687   -1.0693    5.0609 H         1 0YB301      0.0000 
     43 H          17.1347   -2.3849    1.5613 H         1 0YB301      0.0000 
     44 H          14.7639    2.3340    4.2491 H         1 0YB301      0.0000 
     45 H          18.4358    1.1182    3.4303 H         1 0YB301      0.0000 
     46 H          11.7711   -1.5086    2.8384 H         1 0YB301      0.0000 
     47 H           8.9179    0.2625    5.8108 H         1 0YB301      0.0000 
     48 H           8.6534    1.6711    4.7688 H         1 0YB301      0.0000 
     49 H           8.8565   -0.2403    3.3250 H         1 0YB301      0.0000 
     50 H          10.3068   -0.8091    4.1694 H         1 0YB301      0.0000 
     51 H          11.2809    0.8182    6.0355 H         1 0YB301      0.0000 
     52 H          10.2771    2.1950    6.5224 H         1 0YB301      0.0000 
     53 H          12.3344    2.1667    2.8545 H         1 0YB301      0.0000 
     54 H          12.4488    0.8120    3.9910 H         1 0YB301      0.0000 
     55 H           9.9707    1.7097    2.4777 H         1 0YB301      0.0000 
     56 H          12.0849    4.4479    3.3812 H         1 0YB301      0.0000 
     57 H          13.7232    3.8025    3.5795 H         1 0YB301      0.0000 
     58 H          11.8814    3.9476    5.9985 H         1 0YB301      0.0000 
     59 H          11.2965    0.4180   -1.5556 H         1 0YB301      0.0000 
     60 H          10.4969    3.1017    4.2169 H         1 0YB301      0.0000 
     61 H          12.9934   -3.5708    0.0601 H         1 0YB301      0.0000 
     62 H          13.5556   -3.1732    1.5133 H         1 0YB301      0.0000 
     63 H          12.1020   -3.8459    1.3700 H         1 0YB301      0.0000 
     64 H          14.0019    7.4119    3.6574 H         1 0YB301      0.0000 
     65 H          14.3367    6.0817    2.8179 H         1 0YB301      0.0000 
     66 H          12.8324    6.6487    2.8598 H         1 0YB301      0.0000 
     67 H          12.0814    5.9089    6.2763 H         1 0YB301      0.0000 
     68 H          12.6551    7.3080    5.7290 H         1 0YB301      0.0000 
     69 H          11.4874    6.5483    4.9256 H         1 0YB301      0.0000 
     70 H          15.3970    5.1886    4.8793 H         1 0YB301      0.0000 
     71 H          14.9716    6.5117    5.6884 H         1 0YB301      0.0000 
     72 H          14.5647    5.0606    6.2493 H         1 0YB301      0.0000 
@<TRIPOS>BOND
     1    4    1 ar   
     2    5    1 ar   
     3   39    1 1    
     4    3    2 ar   
     5    8    2 ar   
     6   40    2 1    
     7    9    3 ar   
     8   41    3 1    
     9   10    4 ar   
    10   42    4 1    
    11   12    5 ar   
    12   43    5 1    
    13    9    6 ar   
    14   11    6 ar   
    15   44    6 1    
    16   10    7 ar   
    17   12    7 ar   
    18   45    7 1    
    19   11    8 ar   
    20   17    8 1    
    21   28    9 1    
    22   37   10 1    
    23   37   11 1    
    24   38   12 1    
    25   14   13 2    
    26   31   13 1    
    27   46   13 1    
    28   15   14 1    
    29   23   14 1    
    30   30   15 am   
    31   33   15 2    
    32   30   16 am   
    33   31   16 am   
    34   34   16 2    
    35   35   17 ar   
    36   36   17 ar   
    37   19   18 1    
    38   20   18 1    
    39   47   18 1    
    40   48   18 1    
    41   22   19 1    
    42   49   19 1    
    43   50   19 1    
    44   32   20 1    
    45   51   20 1    
    46   52   20 1    
    47   22   21 1    
    48   32   21 1    
    49   53   21 1    
    50   54   21 1    
    51   31   22 1    
    52   55   22 1    
    53   61   23 1    
    54   62   23 1    
    55   63   23 1    
    56   29   24 1    
    57   64   24 1    
    58   65   24 1    
    59   66   24 1    
    60   29   25 1    
    61   67   25 1    
    62   68   25 1    
    63   69   25 1    
    64   29   26 1    
    65   70   26 1    
    66   71   26 1    
    67   72   26 1    
    68   28   27 1    
    69   29   27 1    
    70   56   27 1    
    71   57   27 1    
    72   32   28 1    
    73   58   28 1    
    74   59   30 1    
    75   60   32 1    
@<TRIPOS>SUBSTRUCTURE
     1 0YB301      1 GROUP   
@<TRIPOS>SET

