#    Name: 4hb9_FAD_1_INTS_M
#    Modification time : Tue Mar 25 00:46:28 2014

@<TRIPOS>MOLECULE
4hb9_FAD_1_INTS_M
  123     0    12     0     0
SMALL
NO_CHARGES


@<TRIPOS>ATOM
      1 NZ         27.1285   20.6160   17.6670 N.4       3 LYC4        0.0000 
      2 NZ         27.7740   21.8650   17.9570 N.4      11 LYL4        0.0000 
      3 NZ         26.9960   18.2300   16.9180 N.4       7 LYP4        0.0000 
      4 N          27.7530   21.7060   19.5540 N.am      2 SEC2        0.0000 
      5 N          27.7740   21.8650   17.9570 N.am     10 SEL2        0.0000 
      6 N          27.7320   21.5470   21.1510 N.am      6 SEP2        0.0000 
      7 N          27.1285   20.6160   17.6670 N.am      2 SEC2        0.0000 
      8 N          26.4830   19.3670   17.3770 N.am      6 SEP2        0.0000 
      9 CA         27.0070   26.1470   16.0930 C.3       4 GLC5        0.0000 
     10 CA         25.8000   25.1060   17.2860 C.3      12 GLL5        0.0000 
     11 CA         28.2140   27.1880   14.9000 C.3       8 GLP5        0.0000 
     12 CA         23.9325   26.4525   19.3295 C.3       4 GLC5        0.0000 
     13 CA         24.4190   25.2460   17.8960 C.3      12 GLL5        0.0000 
     14 CA         23.4460   27.6590   20.7630 C.3       8 GLP5        0.0000 
     15 O          21.8255   24.3565   19.0730 O.2       1 ALC1        0.0000 
     16 O          22.6180   23.6410   18.3620 O.2       9 ALL1        0.0000 
     17 O          21.0330   25.0720   19.7840 O.2       5 ALP1        0.0000 
     18 N          20.6765   25.4570   15.0435 N.am      2 SEC2        0.0000 
     19 N          21.2110   24.7120   16.2420 N.am     10 SEL2        0.0000 
     20 N          20.1420   26.2020   13.8450 N.am      6 SEP2        0.0000 
     21 O          20.3895   24.7190   17.2170 O.2       1 ALC1        0.0000 
     22 O          21.2110   24.7120   16.2420 O.2       9 ALL1        0.0000 
     23 O          19.5680   24.7260   18.1920 O.2       5 ALP1        0.0000 
     24 CA         23.0205   27.0615   18.9835 C.3       4 GLC5        0.0000 
     25 CA         22.5950   26.4640   17.2040 C.3      12 GLL5        0.0000 
     26 CA         24.3505   27.8205   17.2785 C.3       4 GLC5        0.0000 
     27 CA         26.1060   29.1770   17.3530 C.3       8 GLP5        0.0000 
     28 CA         20.3700   28.4545   15.0390 C.3       4 GLC5        0.0000 
     29 CA         21.5580   29.6820   15.8320 C.3      12 GLL5        0.0000 
     30 CA         19.1820   27.2270   14.2460 C.3       8 GLP5        0.0000 
     31 CA         19.2445   29.4320   16.1095 C.3       4 GLC5        0.0000 
     32 CA         20.7620   30.9050   16.0530 C.3      12 GLL5        0.0000 
     33 CA         17.7270   27.9590   16.1660 C.3       8 GLP5        0.0000 
     34 CA         18.6700   31.3610   16.4785 C.3       4 GLC5        0.0000 
     35 CA         16.5780   31.8170   16.9040 C.3       8 GLP5        0.0000 
     36 CA         20.6255   32.6755   17.0190 C.3       4 GLC5        0.0000 
     37 CA         20.4890   34.4460   17.9850 C.3       8 GLP5        0.0000 
     38 O          20.0510   33.2610   15.0805 O.2       1 ALC1        0.0000 
     39 O          20.7730   31.8390   15.0740 O.2       9 ALL1        0.0000 
     40 O          19.3290   34.6830   15.0870 O.2       5 ALP1        0.0000 
     41 N          19.2180   32.1750   17.2945 N.am      2 SEC2        0.0000 
     42 N          20.0450   31.0070   17.1910 N.am     10 SEL2        0.0000 
     43 N          18.3910   33.3430   17.3980 N.am      6 SEP2        0.0000 
     44 CA         21.3100   31.0235   18.7765 C.3       4 GLC5        0.0000 
     45 CA         20.0840   30.0420   18.1380 C.3      12 GLL5        0.0000 
     46 CA         22.5360   32.0050   19.4150 C.3       8 GLP5        0.0000 
     47 CA         19.4130   28.6985   19.5110 C.3       4 GLC5        0.0000 
     48 CA         18.7420   27.3550   20.8840 C.3       8 GLP5        0.0000 
     49 CA         18.9055   29.0005   17.1520 C.3       4 GLC5        0.0000 
     50 CA         18.3310   30.9295   17.5210 C.3       4 GLC5        0.0000 
     51 CA         20.2865   32.2440   18.0615 C.3       4 GLC5        0.0000 
     52 N          19.4090   28.1805   18.2935 N.am      2 SEC2        0.0000 
     53 N          20.7870   28.8990   18.0130 N.am     10 SEL2        0.0000 
     54 N          18.0310   27.4620   18.5740 N.am      6 SEP2        0.0000 
     55 CA         22.4920   28.1655   18.8240 C.3       4 GLC5        0.0000 
     56 CA         21.5380   28.6720   16.8850 C.3      12 GLL5        0.0000 
     57 CA         20.0725   27.7665   16.2400 C.3       4 GLC5        0.0000 
     58 CA         18.6070   26.8610   15.5950 C.3       8 GLP5        0.0000 
     59 N          34.8775   18.3425   16.8760 N.am      2 SEC2        0.0000 
     60 N          34.9490   17.0940   16.0460 N.am     10 SEL2        0.0000 
     61 N          34.8060   19.5910   17.7060 N.am      6 SEP2        0.0000 
     62 N          36.4505   18.0065   18.8260 N.am      2 SEC2        0.0000 
     63 N          36.5500   17.0680   17.6890 N.am     10 SEL2        0.0000 
     64 N          36.3510   18.9450   19.9630 N.am      6 SEP2        0.0000 
     65 O          36.6520   14.2820   17.9290 O.2       1 ALC1        0.0000 
     66 O          36.0830   15.1320   16.6220 O.2       9 ALL1        0.0000 
     67 O          37.2210   13.4320   19.2360 O.2       5 ALP1        0.0000 
     68 N          35.5215   12.4700   16.7975 N.am      2 SEC2        0.0000 
     69 N          35.7450   13.1530   15.5980 N.am     10 SEL2        0.0000 
     70 N          35.2980   11.7870   17.9970 N.am      6 SEP2        0.0000 
     71 CA         29.5605   13.5480   11.3590 C.3       4 GLC5        0.0000 
     72 CA         30.5750   14.1770   10.1540 C.3      12 GLL5        0.0000 
     73 CA         28.5460   12.9190   12.5640 C.3       8 GLP5        0.0000 
     74 CA         31.3390   12.3680   10.3245 C.3       4 GLC5        0.0000 
     75 CA         32.1030   10.5590   10.4950 C.3       8 GLP5        0.0000 
     76 CA         29.0175   16.3140   11.9355 C.3       4 GLC5        0.0000 
     77 CA         30.0500   17.0860   10.5610 C.3      12 GLL5        0.0000 
     78 CA         27.9850   15.5420   13.3100 C.3       8 GLP5        0.0000 
     79 CA         32.8690   18.4020   17.3025 C.3       4 GLC5        0.0000 
     80 CA         32.1540   18.9160   15.5720 C.3      12 GLL5        0.0000 
     81 CA         33.5840   17.8880   19.0330 C.3       8 GLP5        0.0000 
     82 O          33.4100   22.6015   15.1525 O.2       1 ALC1        0.0000 
     83 O          33.1040   21.1130   15.3890 O.2       9 ALL1        0.0000 
     84 O          33.7160   24.0900   14.9160 O.2       5 ALP1        0.0000 
     85 O          32.4730   22.2565   14.7090 O.2       1 ALC1        0.0000 
     86 O          31.8420   23.4000   14.0290 O.2       5 ALP1        0.0000 
     87 CA         30.3085   20.0640   18.5170 C.3       4 GLC5        0.0000 
     88 CA         31.2160   20.8570   16.8500 C.3      12 GLL5        0.0000 
     89 CA         29.4010   19.2710   20.1840 C.3       8 GLP5        0.0000 
     90 N          29.0640   19.3390   16.7135 N.am      2 SEC2        0.0000 
     91 N          29.8450   20.5110   16.7830 N.am     10 SEL2        0.0000 
     92 N          28.2830   18.1670   16.6440 N.am      6 SEP2        0.0000 
     93 CA         31.6625   24.0515   15.8195 C.3       4 GLC5        0.0000 
     94 CA         31.3310   22.3490   17.0800 C.3      12 GLL5        0.0000 
     95 CA         31.9940   25.7540   14.5590 C.3       8 GLP5        0.0000 
     96 CA         32.3560   22.8720   18.8220 C.3       4 GLC5        0.0000 
     97 CA         33.3810   23.3950   20.5640 C.3       8 GLP5        0.0000 
     98 N          29.5305   23.5345   21.0925 N.am      2 SEC2        0.0000 
     99 N          29.2530   23.9640   19.7950 N.am     10 SEL2        0.0000 
    100 N          29.8080   23.1050   22.3900 N.am      6 SEP2        0.0000 
    101 N          31.8615   25.8400   17.3880 N.am      2 SEC2        0.0000 
    102 N          30.8120   25.1500   18.0530 N.am     10 SEL2        0.0000 
    103 N          32.9110   26.5300   16.7230 N.am      6 SEP2        0.0000 
    104 CA         25.6078   27.1765   17.4720 C.3       4 GLC5        0.0000 
    105 CA         24.9436   23.6807   19.0922 C.3       4 GLC5        0.0000 
    106 CA         25.6370   22.6490   20.7260 C.3       8 GLP5        0.0000 
    107 CA         20.5892   26.3308   16.2067 C.3       4 GLC5        0.0000 
    108 CA         22.5480   25.1370   16.4330 C.3      12 GLL5        0.0000 
    109 CA         23.3550   29.7815   16.7593 C.3       4 GLC5        0.0000 
    110 CA         25.1620   30.3860   17.1600 C.3       8 GLP5        0.0000 
    111 CA         21.9425   30.7439   17.9144 C.3       4 GLC5        0.0000 
    112 CA         30.3242   13.0450   11.8915 C.3       4 GLC5        0.0000 
    113 CA         31.3180   14.9260   11.2440 C.3      12 GLL5        0.0000 
    114 CA         28.8660   11.4850   12.1280 C.3       8 GLP5        0.0000 
    115 CA         32.6905   17.7620   10.5297 C.3       4 GLC5        0.0000 
    116 CA         31.0590   16.3640   11.4270 C.3      12 GLL5        0.0000 
    117 CA         33.9830   18.8140    9.1330 C.3       8 GLP5        0.0000 
    118 CA         34.1436   20.2915   15.7094 C.3       4 GLC5        0.0000 
    119 CA         33.1690   18.5880   14.4790 C.3      12 GLL5        0.0000 
    120 CA         36.0220   20.9990   16.1320 C.3       8 GLP5        0.0000 
    121 CA         32.8498   19.9718   17.5955 C.3       4 GLC5        0.0000 
    122 CA         31.8690   20.4160   15.5480 C.3      12 GLL5        0.0000 
    123 CA         34.1570   19.3070   18.9920 C.3       8 GLP5        0.0000 
@<TRIPOS>BOND
@<TRIPOS>SUBSTRUCTURE
     1 ALC1       15 GROUP        1 X    ALC  0     ROOT ALC X 1
     2 SEC2        4 GROUP        1 X    SEC  0     **** SEC X 2
     3 LYC4        1 GROUP        1 X    LYC  0     **** LYC X 4
     4 GLC5        9 GROUP        1 X    GLC  0     **** GLC X 6
     5 ALP1       17 GROUP        1 Y    ALP  0     ROOT ALP Y 8
     6 SEP2        6 GROUP        1 Y    SEP  0     **** SEP Y 9
     7 LYP4        3 GROUP        1 Y    LYP  0     **** LYP Y 11
     8 GLP5       11 GROUP        1 Y    GLP  0     **** GLP Y 13
     9 ALL1       16 GROUP        1 Z    ALL  0     ROOT ALL Z 15
    10 SEL2        5 GROUP        1 Z    SEL  0     **** SEL Z 16
    11 LYL4        2 GROUP        1 Z    LYL  0     **** LYL Z 18
    12 GLL5       10 GROUP        1 Z    GLL  0     **** GLL Z 20
@<TRIPOS>SET

