#    Name: 4hb9_FAD_1_ligand
#    Modification time : Tue Mar 25 00:46:28 2014

@<TRIPOS>MOLECULE
4hb9_FAD_1_ligand
   84    89     1     0     0
SMALL
NO_CHARGES


@<TRIPOS>ATOM
      1 PA         27.4910   23.0810   17.1150 P.3       1 FAD501      0.0000 
      2 O1A        27.7740   21.8650   17.9570 O.co2     1 FAD501      0.0000 
      3 O2A        27.2210   23.0690   15.6490 O.co2     1 FAD501      0.0000 
      4 O5B        26.3230   23.9090   17.8310 O.3       1 FAD501      0.0000 
      5 C5B        25.8000   25.1060   17.2860 C.3       1 FAD501      0.0000 
      6 C4B        24.4190   25.2460   17.8960 C.3       1 FAD501      0.0000 
      7 O4B        23.9330   26.5750   17.6350 O.3       1 FAD501      0.0000 
      8 C3B        23.3910   24.2490   17.3260 C.3       1 FAD501      0.0000 
      9 O3B        22.6180   23.6410   18.3620 O.3       1 FAD501      0.0000 
     10 C2B        22.5480   25.1370   16.4330 C.3       1 FAD501      0.0000 
     11 O2B        21.2110   24.7120   16.2420 O.3       1 FAD501      0.0000 
     12 C1B        22.5950   26.4640   17.2040 C.3       1 FAD501      0.0000 
     13 N9A        22.3020   27.6700   16.4270 N.pl3     1 FAD501      0.0000 
     14 C8A        22.8000   28.0150   15.2100 C.2       1 FAD501      0.0000 
     15 N7A        22.3570   29.2490   14.8330 N.2       1 FAD501      0.0000 
     16 C5A        21.5580   29.6820   15.8320 C.ar      1 FAD501      0.0000 
     17 C6A        20.7620   30.9050   16.0530 C.ar      1 FAD501      0.0000 
     18 N6A        20.7730   31.8390   15.0740 N.pl3     1 FAD501      0.0000 
     19 N1A        20.0450   31.0070   17.1910 N.ar      1 FAD501      0.0000 
     20 C2A        20.0840   30.0420   18.1380 C.ar      1 FAD501      0.0000 
     21 N3A        20.7870   28.8990   18.0130 N.ar      1 FAD501      0.0000 
     22 C4A        21.5380   28.6720   16.8850 C.ar      1 FAD501      0.0000 
     23 N1         34.9490   17.0940   16.0460 N.2       1 FAD501      0.0000 
     24 C2         35.8710   16.4500   16.7970 C.2       1 FAD501      0.0000 
     25 O2         36.5500   17.0680   17.6890 O.2       1 FAD501      0.0000 
     26 N3         36.0830   15.1320   16.6220 N.am      1 FAD501      0.0000 
     27 C4         35.4770   14.3800   15.6980 C.2       1 FAD501      0.0000 
     28 O4         35.7450   13.1530   15.5980 O.2       1 FAD501      0.0000 
     29 C4X        34.4950   15.0170   14.8160 C.2       1 FAD501      0.0000 
     30 N5         33.8170   14.3250   13.8560 N.2       1 FAD501      0.0000 
     31 C5X        32.9280   14.9690   13.0660 C.ar      1 FAD501      0.0000 
     32 C6         32.2470   14.2840   12.0660 C.ar      1 FAD501      0.0000 
     33 C7         31.3180   14.9260   11.2440 C.ar      1 FAD501      0.0000 
     34 C7M        30.5750   14.1770   10.1540 C.3       1 FAD501      0.0000 
     35 C8         31.0590   16.3640   11.4270 C.ar      1 FAD501      0.0000 
     36 C8M        30.0500   17.0860   10.5610 C.3       1 FAD501      0.0000 
     37 C9         31.7370   17.0560   12.4260 C.ar      1 FAD501      0.0000 
     38 C9A        32.6620   16.4270   13.2590 C.ar      1 FAD501      0.0000 
     39 N10        33.3490   17.1370   14.2690 N.pl3     1 FAD501      0.0000 
     40 C10        34.2760   16.4650   15.0580 C.2       1 FAD501      0.0000 
     41 C1'        33.1690   18.5880   14.4790 C.3       1 FAD501      0.0000 
     42 C2'        32.1540   18.9160   15.5720 C.3       1 FAD501      0.0000 
     43 O2'        30.9440   18.2040   15.3760 O.3       1 FAD501      0.0000 
     44 C3'        31.8690   20.4160   15.5480 C.3       1 FAD501      0.0000 
     45 O3'        33.1040   21.1130   15.3890 O.3       1 FAD501      0.0000 
     46 C4'        31.2160   20.8570   16.8500 C.3       1 FAD501      0.0000 
     47 O4'        29.8450   20.5110   16.7830 O.3       1 FAD501      0.0000 
     48 C5'        31.3310   22.3490   17.0800 C.3       1 FAD501      0.0000 
     49 O5'        30.6910   22.6310   18.3070 O.3       1 FAD501      0.0000 
     50 P          29.8880   24.0210   18.4260 P.3       1 FAD501      0.0000 
     51 O1P        29.2530   23.9640   19.7950 O.co2     1 FAD501      0.0000 
     52 O2P        30.8120   25.1500   18.0530 O.co2     1 FAD501      0.0000 
     53 O3P        28.7570   24.0530   17.2880 O.3       1 FAD501      0.0000 
     54 H          25.6922   25.0566   16.2123 H         1 FAD501      0.0000 
     55 H          26.3818   25.9730   17.5632 H         1 FAD501      0.0000 
     56 H          24.4867   25.0824   18.9630 H         1 FAD501      0.0000 
     57 H          23.9182   23.5616   16.7142 H         1 FAD501      0.0000 
     58 H          23.0923   25.3006   15.5222 H         1 FAD501      0.0000 
     59 H          21.9449   26.3820   18.0546 H         1 FAD501      0.0000 
     60 H          23.3961   27.4554   14.6744 H         1 FAD501      0.0000 
     61 H          21.3140   31.6192   14.2622 H         1 FAD501      0.0000 
     62 H          20.2392   32.6663   15.2491 H         1 FAD501      0.0000 
     63 H          19.5257   30.1964   19.0344 H         1 FAD501      0.0000 
     64 H          36.7924   14.6530   17.2752 H         1 FAD501      0.0000 
     65 H          32.4312   13.2724   11.9248 H         1 FAD501      0.0000 
     66 H          31.5495   18.0711   12.5562 H         1 FAD501      0.0000 
     67 H          32.8357   19.0702   13.5427 H         1 FAD501      0.0000 
     68 H          34.1320   19.0562   14.7507 H         1 FAD501      0.0000 
     69 H          32.6044   18.6845   16.5270 H         1 FAD501      0.0000 
     70 H          31.1972   20.6223   14.7377 H         1 FAD501      0.0000 
     71 H          31.7004   20.3403   17.6645 H         1 FAD501      0.0000 
     72 H          30.8574   22.8578   16.2418 H         1 FAD501      0.0000 
     73 H          32.3886   22.6078   17.0979 H         1 FAD501      0.0000 
     74 H          31.2011   13.7830    9.4811 H         1 FAD501      0.0000 
     75 H          30.0317   13.4239   10.5250 H         1 FAD501      0.0000 
     76 H          29.9465   14.7739    9.6554 H         1 FAD501      0.0000 
     77 H          29.9802   18.0543   10.8007 H         1 FAD501      0.0000 
     78 H          30.2924   17.0407    9.5919 H         1 FAD501      0.0000 
     79 H          29.1344   16.6946   10.6527 H         1 FAD501      0.0000 
     80 H          22.1186   24.3951   18.7886 H         1 FAD501      0.0000 
     81 H          20.7722   24.8302   17.1328 H         1 FAD501      0.0000 
     82 H          30.2776   18.6589   15.9667 H         1 FAD501      0.0000 
     83 H          32.8674   21.9489   14.8938 H         1 FAD501      0.0000 
     84 H          29.4518   20.8446   17.6399 H         1 FAD501      0.0000 
@<TRIPOS>BOND
     1    2    1 ar   
     2    3    1 ar   
     3    4    1 1    
     4   53    1 1    
     5    5    4 1    
     6    6    5 1    
     7   54    5 1    
     8   55    5 1    
     9    7    6 1    
    10    8    6 1    
    11   56    6 1    
    12   12    7 1    
    13    9    8 1    
    14   10    8 1    
    15   57    8 1    
    16   80    9 1    
    17   11   10 1    
    18   12   10 1    
    19   58   10 1    
    20   81   11 1    
    21   13   12 1    
    22   59   12 1    
    23   14   13 1    
    24   22   13 1    
    25   15   14 2    
    26   60   14 1    
    27   16   15 1    
    28   17   16 ar   
    29   22   16 ar   
    30   18   17 1    
    31   19   17 ar   
    32   61   18 1    
    33   62   18 1    
    34   20   19 ar   
    35   21   20 ar   
    36   63   20 1    
    37   22   21 ar   
    38   24   23 1    
    39   40   23 2    
    40   25   24 2    
    41   26   24 am   
    42   27   26 am   
    43   64   26 1    
    44   28   27 2    
    45   29   27 1    
    46   30   29 2    
    47   40   29 1    
    48   31   30 1    
    49   32   31 ar   
    50   38   31 ar   
    51   33   32 ar   
    52   65   32 1    
    53   34   33 1    
    54   35   33 ar   
    55   74   34 1    
    56   75   34 1    
    57   76   34 1    
    58   36   35 1    
    59   37   35 ar   
    60   77   36 1    
    61   78   36 1    
    62   79   36 1    
    63   38   37 ar   
    64   66   37 1    
    65   39   38 1    
    66   40   39 1    
    67   41   39 1    
    68   42   41 1    
    69   67   41 1    
    70   68   41 1    
    71   43   42 1    
    72   44   42 1    
    73   69   42 1    
    74   82   43 1    
    75   45   44 1    
    76   46   44 1    
    77   70   44 1    
    78   83   45 1    
    79   47   46 1    
    80   48   46 1    
    81   71   46 1    
    82   84   47 1    
    83   49   48 1    
    84   72   48 1    
    85   73   48 1    
    86   50   49 1    
    87   51   50 ar   
    88   52   50 ar   
    89   53   50 1    
@<TRIPOS>SUBSTRUCTURE
     1 FAD501      1 GROUP   
@<TRIPOS>SET

