#    Name: 2dc1_NAD_1_INTS_M
#    Modification time : Tue Mar 25 09:59:41 2014

@<TRIPOS>MOLECULE
2dc1_NAD_1_INTS_M
   90     0     9     0     0
SMALL
NO_CHARGES


@<TRIPOS>ATOM
      1 N          18.2895   20.9050   48.6770 N.am      2 SEC2        0.0000 
      2 N          16.9360   20.2140   48.6810 N.am      8 SEL2        0.0000 
      3 N          19.6430   21.5960   48.6730 N.am      5 SEP2        0.0000 
      4 CA         15.0970   26.0390   47.4760 C.3       3 GLC5        0.0000 
      5 CA         14.5210   24.3410   48.4120 C.3       9 GLL5        0.0000 
      6 CA         15.6730   27.7370   46.5400 C.3       6 GLP5        0.0000 
      7 O          14.1075   26.2195   51.1220 O.2       1 ALC1        0.0000 
      8 O          14.7790   24.6510   50.7790 O.2       7 ALL1        0.0000 
      9 O          13.4360   27.7880   51.4650 O.2       4 ALP1        0.0000 
     10 O          14.9880   26.0035   50.5120 O.2       1 ALC1        0.0000 
     11 O          15.1970   27.3560   50.2450 O.2       4 ALP1        0.0000 
     12 O          12.8230   26.5660   51.2665 O.2       1 ALC1        0.0000 
     13 O          12.2100   25.3440   51.0680 O.2       7 ALL1        0.0000 
     14 CA         14.1405   26.6870   47.6350 C.3       3 GLC5        0.0000 
     15 CA         12.6080   25.6370   48.7300 C.3       9 GLL5        0.0000 
     16 CA         12.5445   26.0090   46.6890 C.3       3 GLC5        0.0000 
     17 CA         12.4810   26.3810   44.6480 C.3       6 GLP5        0.0000 
     18 N           8.9875   25.1010   45.6140 N.am      2 SEC2        0.0000 
     19 N           9.5020   25.9040   46.8530 N.am      8 SEL2        0.0000 
     20 N           8.4730   24.2980   44.3750 N.am      5 SEP2        0.0000 
     21 O           7.9655   29.9220   46.3155 O.2       1 ALC1        0.0000 
     22 O           7.8860   28.2190   46.1480 O.2       7 ALL1        0.0000 
     23 O           8.0450   31.6250   46.4830 O.2       4 ALP1        0.0000 
     24 N           8.7825   30.5240   46.8895 N.am      2 SEC2        0.0000 
     25 N           9.5200   29.4230   47.2960 N.am      8 SEL2        0.0000 
     26 N           8.0450   31.6250   46.4830 N.am      5 SEP2        0.0000 
     27 CA         11.4590   31.3745   47.5840 C.3       3 GLC5        0.0000 
     28 CA         10.6620   29.4850   48.0420 C.3       9 GLL5        0.0000 
     29 CA         12.2560   33.2640   47.1260 C.3       6 GLP5        0.0000 
     30 CA         12.0695   29.9760   49.2020 C.3       3 GLC5        0.0000 
     31 CA         13.4770   30.4670   50.3620 C.3       6 GLP5        0.0000 
     32 CA          9.7595   29.4830   49.9120 C.3       3 GLC5        0.0000 
     33 CA          8.8570   29.4810   51.7820 C.3       6 GLP5        0.0000 
     34 N          15.9835   18.6360   46.7195 N.am      2 SEC2        0.0000 
     35 N          15.7310   20.3090   46.4860 N.am      8 SEL2        0.0000 
     36 N          16.2360   16.9630   46.9530 N.am      5 SEP2        0.0000 
     37 N          16.9755   17.9900   46.1895 N.am      2 SEC2        0.0000 
     38 N          17.7150   19.0170   45.4260 N.am      8 SEL2        0.0000 
     39 N          17.5975   18.0055   44.5925 N.am      2 SEC2        0.0000 
     40 N          17.4800   16.9940   43.7590 N.am      5 SEP2        0.0000 
     41 N          19.2795   21.8235   45.8470 N.am      2 SEC2        0.0000 
     42 N          17.7860   21.6570   45.7020 N.am      8 SEL2        0.0000 
     43 N          20.7730   21.9900   45.9920 N.am      5 SEP2        0.0000 
     44 CA         17.3830   20.5135   42.8155 C.3       3 GLC5        0.0000 
     45 CA         15.4470   20.0840   43.6590 C.3       9 GLL5        0.0000 
     46 CA         19.3190   20.9430   41.9720 C.3       6 GLP5        0.0000 
     47 O          12.2665   21.7370   41.4510 O.2       1 ALC1        0.0000 
     48 O          12.3160   20.7970   42.5620 O.2       7 ALL1        0.0000 
     49 O          12.2170   22.6770   40.3400 O.2       4 ALP1        0.0000 
     50 N          12.4640   18.7550   39.7190 N.am      2 SEC2        0.0000 
     51 N          12.4380   19.4880   40.8660 N.am      8 SEL2        0.0000 
     52 N          12.4900   18.0220   38.5720 N.am      5 SEP2        0.0000 
     53 O          12.3275   21.0825   40.6030 O.2       1 ALC1        0.0000 
     54 O          12.4380   19.4880   40.8660 O.2       7 ALL1        0.0000 
     55 CA         15.5915   21.6475   39.4045 C.3       3 GLC5        0.0000 
     56 CA         14.7780   20.1260   40.6410 C.3       9 GLL5        0.0000 
     57 CA         16.4050   23.1690   38.1680 C.3       6 GLP5        0.0000 
     58 CA         13.4245   21.1370   39.3105 C.3       3 GLC5        0.0000 
     59 CA         12.0710   22.1480   37.9800 C.3       6 GLP5        0.0000 
     60 N          18.7785   16.8900   35.5350 N.am      2 SEC2        0.0000 
     61 N          17.5410   17.3100   35.8250 N.am      8 SEL2        0.0000 
     62 N          20.0160   16.4700   35.2450 N.am      5 SEP2        0.0000 
     63 O          15.0950   20.1740   36.1640 O.2       1 ALC1        0.0000 
     64 O          15.9150   19.1380   35.6960 O.2       7 ALL1        0.0000 
     65 O          14.2750   21.2100   36.6320 O.2       4 ALP1        0.0000 
     66 CA         18.6720   15.8740   37.6085 C.3       3 GLC5        0.0000 
     67 CA         17.4330   17.3600   38.6820 C.3       9 GLL5        0.0000 
     68 CA         19.9110   14.3880   36.5350 C.3       6 GLP5        0.0000 
     69 CA         13.8682   24.3648   46.2015 C.3       3 GLC5        0.0000 
     70 CA         13.1830   25.0530   44.3740 C.3       6 GLP5        0.0000 
     71 CA         16.2796   23.6489   49.2015 C.3       3 GLC5        0.0000 
     72 CA         14.5860   23.0120   47.6460 C.3       9 GLL5        0.0000 
     73 CA         18.3000   23.4580   49.4670 C.3       6 GLP5        0.0000 
     74 CA         11.3860   26.7890   46.0880 C.3       3 GLC5        0.0000 
     75 CA         10.8770   27.2240   47.8940 C.3       9 GLL5        0.0000 
     76 CA          9.2945   27.6760   45.0138 C.3       3 GLC5        0.0000 
     77 CA          9.7050   27.1700   47.1620 C.3       9 GLL5        0.0000 
     78 CA          9.2310   27.6290   43.0110 C.3       6 GLP5        0.0000 
     79 CA         17.2883   20.2680   37.8555 C.3       3 GLC5        0.0000 
     80 CA         15.7650   19.1150   38.6460 C.3       9 GLL5        0.0000 
     81 CA         18.3840   21.8460   37.4190 C.3       6 GLP5        0.0000 
     82 CA         14.4352   18.2735   37.2345 C.3       3 GLC5        0.0000 
     83 CA         12.6780   17.8570   36.1770 C.3       6 GLP5        0.0000 
     84 CA         18.1380   19.4053   41.1808 C.3       3 GLC5        0.0000 
     85 CA         17.3870   17.4190   40.0460 C.3       9 GLL5        0.0000 
     86 CA         18.3085   17.6157   41.5842 C.3       3 GLC5        0.0000 
     87 CA         16.5270   18.3160   40.7330 C.3       9 GLL5        0.0000 
     88 CA         19.6600   17.3640   42.7790 C.3       6 GLP5        0.0000 
     89 CA         18.8964   17.9209   38.9250 C.3       3 GLC5        0.0000 
     90 CA         20.5860   18.2260   38.6720 C.3       6 GLP5        0.0000 
@<TRIPOS>BOND
@<TRIPOS>SUBSTRUCTURE
     1 ALC1        7 GROUP        1 X    ALC  0     ROOT ALC X 1
     2 SEC2        1 GROUP        1 X    SEC  0     **** SEC X 2
     3 GLC5        4 GROUP        1 X    GLC  0     **** GLC X 6
     4 ALP1        9 GROUP        1 Y    ALP  0     ROOT ALP Y 8
     5 SEP2        3 GROUP        1 Y    SEP  0     **** SEP Y 9
     6 GLP5        6 GROUP        1 Y    GLP  0     **** GLP Y 13
     7 ALL1        8 GROUP        1 Z    ALL  0     ROOT ALL Z 15
     8 SEL2        2 GROUP        1 Z    SEL  0     **** SEL Z 16
     9 GLL5        5 GROUP        1 Z    GLL  0     **** GLL Z 20
@<TRIPOS>SET

