#    Name: 2dc1_NAD_1_ligand
#    Modification time : Tue Mar 25 09:59:41 2014

@<TRIPOS>MOLECULE
2dc1_NAD_1_ligand
   70    74     1     0     0
SMALL
NO_CHARGES


@<TRIPOS>ATOM
      1 PA         15.7370   20.7190   48.0490 P.3       1 NAD242      0.0000 
      2 O1A        16.9360   20.2140   48.6810 O.co2     1 NAD242      0.0000 
      3 O2A        14.4250   20.0660   48.4780 O.co2     1 NAD242      0.0000 
      4 O5B        15.6590   22.2800   48.1750 O.3       1 NAD242      0.0000 
      5 C5B        14.5860   23.0120   47.6460 C.3       1 NAD242      0.0000 
      6 C4B        14.5210   24.3410   48.4120 C.3       1 NAD242      0.0000 
      7 O4B        13.5270   25.0770   47.7640 O.3       1 NAD242      0.0000 
      8 C3B        13.9650   24.0030   49.8430 C.3       1 NAD242      0.0000 
      9 O3B        14.7790   24.6510   50.7790 O.3       1 NAD242      0.0000 
     10 C2B        12.5490   24.6080   49.8600 C.3       1 NAD242      0.0000 
     11 O2B        12.2100   25.3440   51.0680 O.3       1 NAD242      0.0000 
     12 C1B        12.6080   25.6370   48.7300 C.3       1 NAD242      0.0000 
     13 N9A        11.3100   25.9710   48.0440 N.pl3     1 NAD242      0.0000 
     14 C8A        10.4440   25.1550   47.3950 C.2       1 NAD242      0.0000 
     15 N7A         9.5020   25.9040   46.8530 N.2       1 NAD242      0.0000 
     16 C5A         9.7050   27.1700   47.1620 C.ar      1 NAD242      0.0000 
     17 C6A         9.0110   28.2760   46.8710 C.ar      1 NAD242      0.0000 
     18 N6A         7.8860   28.2190   46.1480 N.pl3     1 NAD242      0.0000 
     19 N1A         9.5200   29.4230   47.2960 N.ar      1 NAD242      0.0000 
     20 C2A        10.6620   29.4850   48.0420 C.ar      1 NAD242      0.0000 
     21 N3A        11.4110   28.3750   48.3060 N.ar      1 NAD242      0.0000 
     22 C4A        10.8770   27.2240   47.8940 C.ar      1 NAD242      0.0000 
     23 O3         15.7310   20.3090   46.4860 O.3       1 NAD242      0.0000 
     24 PN         17.1080   20.3570   45.5570 P.3       1 NAD242      0.0000 
     25 O1N        17.7150   19.0170   45.4260 O.co2     1 NAD242      0.0000 
     26 O2N        17.7860   21.6570   45.7020 O.co2     1 NAD242      0.0000 
     27 O5D        16.3060   20.7890   44.2600 O.3       1 NAD242      0.0000 
     28 C5D        15.4470   20.0840   43.6590 C.3       1 NAD242      0.0000 
     29 C4D        14.7240   21.0410   42.7600 C.3       1 NAD242      0.0000 
     30 O4D        15.3850   21.1140   41.4800 O.3       1 NAD242      0.0000 
     31 C3D        13.5160   20.1250   42.6850 C.3       1 NAD242      0.0000 
     32 O3D        12.3160   20.7970   42.5620 O.3       1 NAD242      0.0000 
     33 C2D        13.7130   19.3610   41.4460 C.3       1 NAD242      0.0000 
     34 O2D        12.4380   19.4880   40.8660 O.3       1 NAD242      0.0000 
     35 C1D        14.7780   20.1260   40.6410 C.3       1 NAD242      0.0000 
     36 N1N        15.7130   19.1740   40.0150 N.pl3     1 NAD242      0.0000 
     37 C2N        15.7650   19.1150   38.6460 C.ar      1 NAD242      0.0000 
     38 C3N        16.6200   18.2650   37.9380 C.ar      1 NAD242      0.0000 
     39 C7N        16.6700   18.2850   36.4390 C.2       1 NAD242      0.0000 
     40 O7N        17.5410   17.3100   35.8250 O.2       1 NAD242      0.0000 
     41 N7N        15.9150   19.1380   35.6960 N.am      1 NAD242      0.0000 
     42 C4N        17.4330   17.3600   38.6820 C.ar      1 NAD242      0.0000 
     43 C5N        17.3870   17.4190   40.0460 C.ar      1 NAD242      0.0000 
     44 C6N        16.5270   18.3160   40.7330 C.ar      1 NAD242      0.0000 
     45 H          13.6280   22.5124   47.7794 H         1 NAD242      0.0000 
     46 H          14.7168   23.2502   46.5918 H         1 NAD242      0.0000 
     47 H          15.4333   24.7720   48.4789 H         1 NAD242      0.0000 
     48 H          13.9070   22.9700   49.9302 H         1 NAD242      0.0000 
     49 H          11.8470   23.8779   49.5940 H         1 NAD242      0.0000 
     50 H          13.0528   26.5475   49.1343 H         1 NAD242      0.0000 
     51 H          10.5214   24.1906   47.3491 H         1 NAD242      0.0000 
     52 H           7.5848   27.3056   45.8740 H         1 NAD242      0.0000 
     53 H           7.4475   29.0949   45.9466 H         1 NAD242      0.0000 
     54 H          10.9723   30.4124   48.4230 H         1 NAD242      0.0000 
     55 H          14.6755   19.6164   44.2948 H         1 NAD242      0.0000 
     56 H          15.8461   19.2894   43.0053 H         1 NAD242      0.0000 
     57 H          14.4949   21.8797   43.2432 H         1 NAD242      0.0000 
     58 H          13.5531   19.4476   43.5084 H         1 NAD242      0.0000 
     59 H          14.0046   18.4034   41.6459 H         1 NAD242      0.0000 
     60 H          14.2078   20.6352   39.8284 H         1 NAD242      0.0000 
     61 H          15.1274   19.7429   38.0846 H         1 NAD242      0.0000 
     62 H          15.2911   19.7309   36.2052 H         1 NAD242      0.0000 
     63 H          16.0504   19.0971   34.7060 H         1 NAD242      0.0000 
     64 H          18.0215   16.6992   38.1847 H         1 NAD242      0.0000 
     65 H          17.9930   16.7957   40.6209 H         1 NAD242      0.0000 
     66 H          16.5212   18.3154   41.7563 H         1 NAD242      0.0000 
     67 H          14.8055   25.6055   50.4819 H         1 NAD242      0.0000 
     68 H          12.7842   26.1623   51.0421 H         1 NAD242      0.0000 
     69 H          12.4476   21.4228   41.7932 H         1 NAD242      0.0000 
     70 H          12.3487   20.4598   40.6479 H         1 NAD242      0.0000 
@<TRIPOS>BOND
     1    2    1 ar   
     2    3    1 ar   
     3    4    1 1    
     4   23    1 1    
     5    5    4 1    
     6    6    5 1    
     7   45    5 1    
     8   46    5 1    
     9    7    6 1    
    10    8    6 1    
    11   47    6 1    
    12   12    7 1    
    13    9    8 1    
    14   10    8 1    
    15   48    8 1    
    16   67    9 1    
    17   11   10 1    
    18   12   10 1    
    19   49   10 1    
    20   68   11 1    
    21   13   12 1    
    22   50   12 1    
    23   14   13 1    
    24   22   13 1    
    25   15   14 2    
    26   51   14 1    
    27   16   15 1    
    28   17   16 ar   
    29   22   16 ar   
    30   18   17 1    
    31   19   17 ar   
    32   52   18 1    
    33   53   18 1    
    34   20   19 ar   
    35   21   20 ar   
    36   54   20 1    
    37   22   21 ar   
    38   24   23 1    
    39   25   24 ar   
    40   26   24 ar   
    41   27   24 1    
    42   28   27 1    
    43   29   28 1    
    44   55   28 1    
    45   56   28 1    
    46   30   29 1    
    47   31   29 1    
    48   57   29 1    
    49   35   30 1    
    50   32   31 1    
    51   33   31 1    
    52   58   31 1    
    53   69   32 1    
    54   34   33 1    
    55   35   33 1    
    56   59   33 1    
    57   70   34 1    
    58   36   35 1    
    59   60   35 1    
    60   37   36 ar   
    61   44   36 ar   
    62   38   37 ar   
    63   61   37 1    
    64   39   38 1    
    65   42   38 ar   
    66   40   39 2    
    67   41   39 am   
    68   62   41 1    
    69   63   41 1    
    70   43   42 ar   
    71   64   42 1    
    72   44   43 ar   
    73   65   43 1    
    74   66   44 1    
@<TRIPOS>SUBSTRUCTURE
     1 NAD242      1 GROUP   
@<TRIPOS>SET

