#    Name: 2o1x_TDP_1_INTS_M
#    Modification time : Tue Mar 25 21:50:14 2014

@<TRIPOS>MOLECULE
2o1x_TDP_1_INTS_M
   83     0    15     0     0
SMALL
NO_CHARGES


@<TRIPOS>ATOM
      1 N          22.2800   -0.5680   15.9750 N.am      2 SEC2        0.0000 
      2 N          21.1130   -0.5840   16.6800 N.am     12 SEL2        0.0000 
      3 N          23.4470   -0.5520   15.2700 N.am      7 SEP2        0.0000 
      4 CA         21.0840   -0.0215   20.1275 C.3       5 GLC5        0.0000 
      5 CA         21.3880   -0.5690   17.9840 C.3      15 GLL5        0.0000 
      6 CA         20.7800    0.5260   22.2710 C.3      10 GLP5        0.0000 
      7 CA         20.4895   -2.1550   19.2040 C.3       5 GLC5        0.0000 
      8 CA         19.5910   -3.7410   20.4240 C.3      10 GLP5        0.0000 
      9 CA         22.5265    0.9740   16.8725 C.3       5 GLC5        0.0000 
     10 CA         23.6650    2.5170   15.7610 C.3      10 GLP5        0.0000 
     11 CA         22.5515   -0.0080   20.4575 C.3       5 GLC5        0.0000 
     12 CA         22.8330   -0.7640   18.4470 C.3      15 GLL5        0.0000 
     13 CA         22.2700    0.7480   22.4680 C.3      10 GLP5        0.0000 
     14 CA         22.4355    0.9245   18.0655 C.3       5 GLC5        0.0000 
     15 CA         22.0380    2.6130   17.6840 C.3      10 GLP5        0.0000 
     16 CA         24.8765   -0.5060   18.9140 C.3       5 GLC5        0.0000 
     17 CA         26.9200   -0.2480   19.3810 C.3      10 GLP5        0.0000 
     18 N          20.4100   -1.0845   20.2340 N.am      2 SEC2        0.0000 
     19 N          20.4050   -0.3800   18.8750 N.am     12 SEL2        0.0000 
     20 N          20.4150   -1.7890   21.5930 N.am      7 SEP2        0.0000 
     21 CA         19.9550    0.1570   20.3830 C.3       5 GLC5        0.0000 
     22 CA         19.1300   -0.2120   18.4950 C.3      15 GLL5        0.0000 
     23 CA         19.3605   -1.9765   19.4595 C.3       5 GLC5        0.0000 
     24 O          18.1330    0.6570   20.7120 O.2       1 ALC1        0.0000 
     25 O          18.1960   -0.0270   19.4280 O.2      11 ALL1        0.0000 
     26 O          18.0700    1.3410   21.9960 O.2       6 ALP1        0.0000 
     27 CA         15.5490   -0.1590   15.5315 C.3       5 GLC5        0.0000 
     28 CA         17.4460   -0.0410   16.4870 C.3      15 GLL5        0.0000 
     29 CA         13.6520   -0.2770   14.5760 C.3      10 GLP5        0.0000 
     30 CA         17.2290    0.5480   14.6425 C.3       5 GLC5        0.0000 
     31 CA         17.0120    1.1370   12.7980 C.3      10 GLP5        0.0000 
     32 CA         18.5855    1.5075   16.9190 C.3       5 GLC5        0.0000 
     33 CA         19.7250    3.0560   17.3510 C.3      10 GLP5        0.0000 
     34 CA         12.6920   -1.9670   19.3630 C.3       5 GLC5        0.0000 
     35 CA         14.4210   -1.7570   18.3430 C.3      15 GLL5        0.0000 
     36 CA         10.9630   -2.1770   20.3830 C.3      10 GLP5        0.0000 
     37 CA         17.8385   -3.4830   13.8175 C.3       5 GLC5        0.0000 
     38 CA         16.8460   -2.8140   15.3770 C.3      15 GLL5        0.0000 
     39 CA         18.8310   -4.1520   12.2580 C.3      10 GLP5        0.0000 
     40 CA         13.8345   -2.9255   15.6090 C.3       5 GLC5        0.0000 
     41 CA         14.4330   -4.1400   16.8340 C.3      15 GLL5        0.0000 
     42 CA         13.2360   -1.7110   14.3840 C.3      10 GLP5        0.0000 
     43 N          11.9620   -4.9765   19.7890 N.am      2 SEC2        0.0000 
     44 N          12.3640   -6.5390   19.2630 N.am     12 SEL2        0.0000 
     45 N          11.5600   -3.4140   20.3150 N.am      7 SEP2        0.0000 
     46 Zn         12.4085   -9.2715   17.9305 Zn        4 ZIC7        0.0000 
     47 Zn         13.3550   -8.6850   17.9000 Zn       14 ZIL7        0.0000 
     48 Zn         11.4620   -9.8580   17.9610 Zn        9 ZIP7        0.0000 
     49 N          14.5415   -9.4495   17.6030 N.am      2 SEC2        0.0000 
     50 N          13.3550   -8.6850   17.9000 N.am     12 SEL2        0.0000 
     51 N          15.7280  -10.2140   17.3060 N.am      7 SEP2        0.0000 
     52 N          16.0245   -8.0220   19.3060 N.am      2 SEC2        0.0000 
     53 N          14.5870   -7.4470   19.8610 N.am     12 SEL2        0.0000 
     54 N          17.4620   -8.5970   18.7510 N.am      7 SEP2        0.0000 
     55 NZ          9.5290   -5.2135   16.0890 N.4       3 LYC4        0.0000 
     56 NZ         10.5640   -5.4880   17.6360 N.4      13 LYL4        0.0000 
     57 NZ          8.4940   -4.9390   14.5420 N.4       8 LYP4        0.0000 
     58 Zn         11.0355   -8.9930   18.0220 Zn        4 ZIC7        0.0000 
     59 Zn         10.6090   -8.1280   18.0830 Zn       14 ZIL7        0.0000 
     60 N           9.3095   -8.7155   17.9120 N.am      2 SEC2        0.0000 
     61 N          10.6090   -8.1280   18.0830 N.am     12 SEL2        0.0000 
     62 N           8.0100   -9.3030   17.7410 N.am      7 SEP2        0.0000 
     63 N           9.2780   -5.1880   19.4845 N.am      2 SEC2        0.0000 
     64 N           9.9160   -6.4600   19.8990 N.am     12 SEL2        0.0000 
     65 N           8.6400   -3.9160   19.0700 N.am      7 SEP2        0.0000 
     66 N          10.7380   -4.9370   20.1070 N.am      2 SEC2        0.0000 
     67 CA         21.4297   -2.3123   17.4928 C.3       5 GLC5        0.0000 
     68 CA         20.7490   -3.9580   16.7700 C.3      10 GLP5        0.0000 
     69 CA         20.0869   -2.1404   16.9027 C.3       5 GLC5        0.0000 
     70 CA         19.8750   -0.4210   16.2550 C.3      15 GLL5        0.0000 
     71 CA         15.2167   -1.0235   20.1202 C.3       5 GLC5        0.0000 
     72 CA         15.5660   -0.4530   18.0180 C.3      15 GLL5        0.0000 
     73 CA         15.4400   -0.9420   22.0600 C.3      10 GLP5        0.0000 
     74 CA         14.3227   -0.6910   16.3783 C.3       5 GLC5        0.0000 
     75 CA         16.3800   -1.4740   14.3493 C.3       5 GLC5        0.0000 
     76 CA         16.2890   -0.4740   12.7520 C.3      10 GLP5        0.0000 
     77 CA         14.7201   -2.1736   15.2415 C.3       5 GLC5        0.0000 
     78 CA         17.1641   -4.0456   16.4455 C.3       5 GLC5        0.0000 
     79 CA         15.0290   -2.7830   17.1260 C.3      15 GLL5        0.0000 
     80 CA         18.1240   -5.4550   16.7920 C.3      10 GLP5        0.0000 
     81 CA         13.9253   -5.7192   15.8303 C.3       5 GLC5        0.0000 
     82 CA         13.4120   -6.8710   14.2110 C.3      10 GLP5        0.0000 
     83 CA         16.2812   -5.0112   17.1208 C.3       5 GLC5        0.0000 
@<TRIPOS>BOND
@<TRIPOS>SUBSTRUCTURE
     1 ALC1       24 GROUP        1 X    ALC  0     ROOT ALC X 1
     2 SEC2        1 GROUP        1 X    SEC  0     **** SEC X 2
     3 LYC4       55 GROUP        1 X    LYC  0     **** LYC X 4
     4 ZIC7       46 GROUP        1 X    ZIC  0     **** ZIC X 5
     5 GLC5        4 GROUP        1 X    GLC  0     **** GLC X 6
     6 ALP1       26 GROUP        1 Y    ALP  0     ROOT ALP Y 8
     7 SEP2        3 GROUP        1 Y    SEP  0     **** SEP Y 9
     8 LYP4       57 GROUP        1 Y    LYP  0     **** LYP Y 11
     9 ZIP7       48 GROUP        1 Y    ZIP  0     **** ZIP Y 12
    10 GLP5        6 GROUP        1 Y    GLP  0     **** GLP Y 13
    11 ALL1       25 GROUP        1 Z    ALL  0     ROOT ALL Z 15
    12 SEL2        2 GROUP        1 Z    SEL  0     **** SEL Z 16
    13 LYL4       56 GROUP        1 Z    LYL  0     **** LYL Z 18
    14 ZIL7       47 GROUP        1 Z    ZIL  0     **** ZIL Z 19
    15 GLL5        5 GROUP        1 Z    GLL  0     **** GLL Z 20
@<TRIPOS>SET

