#    Name: 2o1x_TDP_1_ligand
#    Modification time : Tue Mar 25 21:50:14 2014

@<TRIPOS>MOLECULE
2o1x_TDP_1_ligand
   42    43     1     0     0
SMALL
NO_CHARGES


@<TRIPOS>ATOM
      1 N1'        21.1130   -0.5840   16.6800 N.ar      1 TDP1001     0.0000 
      2 C2'        21.3880   -0.5690   17.9840 C.ar      1 TDP1001     0.0000 
      3 C2A        22.8330   -0.7640   18.4470 C.3       1 TDP1001     0.0000 
      4 N3'        20.4050   -0.3800   18.8750 N.ar      1 TDP1001     0.0000 
      5 C4'        19.1300   -0.2120   18.4950 C.ar      1 TDP1001     0.0000 
      6 N4'        18.1960   -0.0270   19.4280 N.pl3     1 TDP1001     0.0000 
      7 C5'        18.8190   -0.2370   17.1370 C.ar      1 TDP1001     0.0000 
      8 C6'        19.8750   -0.4210   16.2550 C.ar      1 TDP1001     0.0000 
      9 C35        17.4460   -0.0410   16.4870 C.3       1 TDP1001     0.0000 
     10 N3         16.3700   -0.8940   17.0180 N.pl3     1 TDP1001     0.0000 
     11 C2         15.5660   -0.4530   18.0180 C.2       1 TDP1001     0.0000 
     12 S1         14.4210   -1.7570   18.3430 S.3       1 TDP1001     0.0000 
     13 C5         15.0290   -2.7830   17.1260 C.2       1 TDP1001     0.0000 
     14 C4         16.0960   -2.1340   16.5160 C.2       1 TDP1001     0.0000 
     15 C4A        16.8460   -2.8140   15.3770 C.3       1 TDP1001     0.0000 
     16 C5A        14.4330   -4.1400   16.8340 C.3       1 TDP1001     0.0000 
     17 C5B        14.4440   -4.9950   18.0650 C.3       1 TDP1001     0.0000 
     18 O5G        14.2440   -6.3120   17.6290 O.3       1 TDP1001     0.0000 
     19 P1         13.7030   -7.2890   18.6890 P.3       1 TDP1001     0.0000 
     20 O11        12.3640   -6.5390   19.2630 O.3       1 TDP1001     0.0000 
     21 O12        13.3550   -8.6850   17.9000 O.co2     1 TDP1001     0.0000 
     22 O13        14.5870   -7.4470   19.8610 O.co2     1 TDP1001     0.0000 
     23 P2         10.8280   -6.6530   18.7690 P.3       1 TDP1001     0.0000 
     24 O21        10.5640   -5.4880   17.6360 O.co2     1 TDP1001     0.0000 
     25 O22        10.6090   -8.1280   18.0830 O.co2     1 TDP1001     0.0000 
     26 O23         9.9160   -6.4600   19.8990 O.co2     1 TDP1001     0.0000 
     27 H          17.2778   -0.3521   19.2020 H         1 TDP1001     0.0000 
     28 H          18.4976    0.4203   20.2700 H         1 TDP1001     0.0000 
     29 H          19.6511   -0.4259   15.2263 H         1 TDP1001     0.0000 
     30 H          17.5617   -0.2086   15.3914 H         1 TDP1001     0.0000 
     31 H          17.1702    1.0334   16.5931 H         1 TDP1001     0.0000 
     32 H          15.4481    0.2603   18.5337 H         1 TDP1001     0.0000 
     33 H          15.0111   -4.6246   16.0436 H         1 TDP1001     0.0000 
     34 H          13.4063   -4.0141   16.4819 H         1 TDP1001     0.0000 
     35 H          13.6507   -4.6532   18.7271 H         1 TDP1001     0.0000 
     36 H          15.4024   -4.8653   18.5641 H         1 TDP1001     0.0000 
     37 H          23.2021   -1.6451   18.1512 H         1 TDP1001     0.0000 
     38 H          23.4382   -0.0558   18.0835 H         1 TDP1001     0.0000 
     39 H          22.9111   -0.7332   19.4435 H         1 TDP1001     0.0000 
     40 H          17.8159   -2.9327   15.5896 H         1 TDP1001     0.0000 
     41 H          16.4762   -3.7217   15.1785 H         1 TDP1001     0.0000 
     42 H          16.7943   -2.2848   14.5301 H         1 TDP1001     0.0000 
@<TRIPOS>BOND
     1    2    1 ar   
     2    8    1 ar   
     3    3    2 1    
     4    4    2 ar   
     5   37    3 1    
     6   38    3 1    
     7   39    3 1    
     8    5    4 ar   
     9    6    5 1    
    10    7    5 ar   
    11   27    6 1    
    12   28    6 1    
    13    8    7 ar   
    14    9    7 1    
    15   29    8 1    
    16   10    9 1    
    17   30    9 1    
    18   31    9 1    
    19   11   10 2    
    20   14   10 1    
    21   12   11 1    
    22   32   11 1    
    23   13   12 1    
    24   14   13 2    
    25   16   13 1    
    26   15   14 1    
    27   40   15 1    
    28   41   15 1    
    29   42   15 1    
    30   17   16 1    
    31   33   16 1    
    32   34   16 1    
    33   18   17 1    
    34   35   17 1    
    35   36   17 1    
    36   19   18 1    
    37   20   19 1    
    38   21   19 ar   
    39   22   19 ar   
    40   23   20 1    
    41   24   23 ar   
    42   25   23 ar   
    43   26   23 ar   
@<TRIPOS>SUBSTRUCTURE
     1 TDP1001     1 GROUP   
@<TRIPOS>SET

