#    Name: 3tq9_MTX_1_INTS_M
#    Modification time : Mon Mar 24 20:48:28 2014

@<TRIPOS>MOLECULE
3tq9_MTX_1_INTS_M
   69     0    12     0     0
SMALL
NO_CHARGES


@<TRIPOS>ATOM
      1 CA         11.8460   -0.4310   15.6270 C.3       4 GLC5        0.0000 
      2 CA         11.3540    1.4680   16.5700 C.3      12 GLL5        0.0000 
      3 CA         12.3380   -2.3300   14.6840 C.3       8 GLP5        0.0000 
      4 CA         11.0145    1.4485   14.4450 C.3       4 GLC5        0.0000 
      5 CA         10.6750    1.4290   12.3200 C.3       8 GLP5        0.0000 
      6 CA          9.9800    2.6140   16.2695 C.3       4 GLC5        0.0000 
      7 CA          8.6060    3.7600   15.9690 C.3       8 GLP5        0.0000 
      8 CA         12.4160    0.5350   18.0895 C.3       4 GLC5        0.0000 
      9 CA         13.4780   -0.3980   19.6090 C.3       8 GLP5        0.0000 
     10 O           9.3330    0.9050   17.6870 O.2       1 ALC1        0.0000 
     11 O          10.3340    0.6450   16.7480 O.2       9 ALL1        0.0000 
     12 O           8.3320    1.1650   18.6260 O.2       5 ALP1        0.0000 
     13 O          10.0735    1.6935   17.8955 O.2       1 ALC1        0.0000 
     14 O           9.8130    2.7420   19.0430 O.2       5 ALP1        0.0000 
     15 CA         13.9620    0.1750   14.5520 C.3       4 GLC5        0.0000 
     16 CA         13.3420    2.0390   15.3570 C.3      12 GLL5        0.0000 
     17 CA         14.5820   -1.6890   13.7470 C.3       8 GLP5        0.0000 
     18 CA         12.0085    1.7340   13.8385 C.3       4 GLC5        0.0000 
     19 O          13.7220    1.0955   13.2665 O.2       1 ALC1        0.0000 
     20 O          14.2160    1.7710   14.3890 O.2       9 ALL1        0.0000 
     21 O          13.2280    0.4200   12.1440 O.2       5 ALP1        0.0000 
     22 CA         13.4790    4.8355   19.7495 C.3       4 GLC5        0.0000 
     23 CA         13.8110    5.3950   17.7680 C.3      12 GLL5        0.0000 
     24 CA         13.1470    4.2760   21.7310 C.3       8 GLP5        0.0000 
     25 CA         10.5865    3.5970   16.5745 C.3       4 GLC5        0.0000 
     26 CA         12.5670    3.4340   17.1800 C.3      12 GLL5        0.0000 
     27 CA         17.4015    6.3540   14.9705 C.3       4 GLC5        0.0000 
     28 CA         15.9250    5.9870   16.4830 C.3      12 GLL5        0.0000 
     29 CA         18.8780    6.7210   13.4580 C.3       8 GLP5        0.0000 
     30 CA         17.8630    6.3855   17.2660 C.3       4 GLC5        0.0000 
     31 CA         19.8010    6.7840   18.0490 C.3       8 GLP5        0.0000 
     32 CA         15.1215    5.7425   14.7690 C.3       4 GLC5        0.0000 
     33 CA         14.3180    5.4980   13.0550 C.3       8 GLP5        0.0000 
     34 CA         14.3485    8.8320   17.7320 C.3       4 GLC5        0.0000 
     35 CA         16.1780    8.2170   17.5650 C.3      12 GLL5        0.0000 
     36 CA         12.5190    9.4470   17.8990 C.3       8 GLP5        0.0000 
     37 CA         17.4080    9.7370   16.7440 C.3       4 GLC5        0.0000 
     38 CA         18.6380   11.2570   15.9230 C.3       8 GLP5        0.0000 
     39 CA         17.9895    7.5005   17.8070 C.3       4 GLC5        0.0000 
     40 CA         14.5690    7.7880   19.6565 C.3       4 GLC5        0.0000 
     41 CA         16.5670    6.8860   20.0910 C.3      12 GLL5        0.0000 
     42 CA         12.5710    8.6900   19.2220 C.3       8 GLP5        0.0000 
     43 CA         19.2580    2.6475   22.5610 C.3       4 GLC5        0.0000 
     44 CA         17.9660    2.3120   23.9250 C.3      12 GLL5        0.0000 
     45 CA         20.5500    2.9830   21.1970 C.3       8 GLP5        0.0000 
     46 NZ         19.2795   -0.5690   22.6880 N.4       3 LYC4        0.0000 
     47 NZ         17.5970    0.4230   22.5490 N.4      11 LYL4        0.0000 
     48 NZ         20.6360   -1.7450   21.8300 N.4       7 LYP4        0.0000 
     49 N          18.5580   -0.4625   21.8870 N.am      2 SEC2        0.0000 
     50 N          17.5970    0.4230   22.5490 N.am     10 SEL2        0.0000 
     51 N          19.5190   -1.3480   21.2250 N.am      6 SEP2        0.0000 
     52 NZ         19.9525   -0.5945   23.6195 N.4       3 LYC4        0.0000 
     53 NZ         19.0400    0.2100   24.1510 N.4      11 LYL4        0.0000 
     54 N          19.2795   -0.5690   22.6880 N.am      2 SEC2        0.0000 
     55 N          19.0400    0.2100   24.1510 N.am     10 SEL2        0.0000 
     56 N          19.9525   -0.5945   23.6195 N.am      2 SEC2        0.0000 
     57 N          20.8650   -1.3990   23.0880 N.am      6 SEP2        0.0000 
     58 CA         14.1530    2.6510   24.4925 C.3       4 GLC5        0.0000 
     59 CA         15.8030    2.4200   25.2710 C.3      12 GLL5        0.0000 
     60 CA         12.5030    2.8820   23.7140 C.3       8 GLP5        0.0000 
     61 CA         13.7246    7.0520   16.8117 C.3       4 GLC5        0.0000 
     62 CA         12.3510    8.4840   16.7520 C.3       8 GLP5        0.0000 
     63 CA         18.8050    3.7643   21.0147 C.3       4 GLC5        0.0000 
     64 CA         17.0640    4.9330   21.4060 C.3      12 GLL5        0.0000 
     65 CA         18.2487    6.6870   19.3777 C.3       4 GLC5        0.0000 
     66 CA         16.8260    6.2940   21.3220 C.3      12 GLL5        0.0000 
     67 CA         15.0738    4.5809   21.2713 C.3       4 GLC5        0.0000 
     68 CA         17.0560    4.1580   20.2590 C.3      12 GLL5        0.0000 
     69 CA         18.3340    5.7893   18.8330 C.3       4 GLC5        0.0000 
@<TRIPOS>BOND
@<TRIPOS>SUBSTRUCTURE
     1 ALC1       10 GROUP        1 X    ALC  0     ROOT ALC X 1
     2 SEC2       49 GROUP        1 X    SEC  0     **** SEC X 2
     3 LYC4       46 GROUP        1 X    LYC  0     **** LYC X 4
     4 GLC5        1 GROUP        1 X    GLC  0     **** GLC X 6
     5 ALP1       12 GROUP        1 Y    ALP  0     ROOT ALP Y 8
     6 SEP2       51 GROUP        1 Y    SEP  0     **** SEP Y 9
     7 LYP4       48 GROUP        1 Y    LYP  0     **** LYP Y 11
     8 GLP5        3 GROUP        1 Y    GLP  0     **** GLP Y 13
     9 ALL1       11 GROUP        1 Z    ALL  0     ROOT ALL Z 15
    10 SEL2       50 GROUP        1 Z    SEL  0     **** SEL Z 16
    11 LYL4       47 GROUP        1 Z    LYL  0     **** LYL Z 18
    12 GLL5        2 GROUP        1 Z    GLL  0     **** GLL Z 20
@<TRIPOS>SET

