#    Name: 3tq9_MTX_1_ligand
#    Modification time : Mon Mar 24 20:48:28 2014

@<TRIPOS>MOLECULE
3tq9_MTX_1_ligand
   53    55     1     0     0
SMALL
NO_CHARGES


@<TRIPOS>ATOM
      1 N1         11.4930    2.5830   17.3780 N.ar      1 MTX2001     0.0000 
      2 C2         11.3540    1.4680   16.5700 C.ar      1 MTX2001     0.0000 
      3 NA2        10.3340    0.6450   16.7480 N.pl3     1 MTX2001     0.0000 
      4 N3         12.2680    1.2030   15.5690 N.ar      1 MTX2001     0.0000 
      5 C4         13.3420    2.0390   15.3570 C.ar      1 MTX2001     0.0000 
      6 NA4        14.2160    1.7710   14.3890 N.pl3     1 MTX2001     0.0000 
      7 C4A        13.4960    3.1620   16.1620 C.ar      1 MTX2001     0.0000 
      8 N5         14.5700    4.0060   15.9580 N.ar      1 MTX2001     0.0000 
      9 C6         14.7320    5.1110   16.7520 C.ar      1 MTX2001     0.0000 
     10 C7         13.8110    5.3950   17.7680 C.ar      1 MTX2001     0.0000 
     11 N8         12.7310    4.5500   17.9840 N.ar      1 MTX2001     0.0000 
     12 C8A        12.5670    3.4340   17.1800 C.ar      1 MTX2001     0.0000 
     13 C9         15.9250    5.9870   16.4830 C.3       1 MTX2001     0.0000 
     14 N10        16.2900    6.7480   17.6660 N.pl3     1 MTX2001     0.0000 
     15 CM         16.1780    8.2170   17.5650 C.3       1 MTX2001     0.0000 
     16 C11        17.0640    4.9330   21.4060 C.ar      1 MTX2001     0.0000 
     17 C12        16.8260    6.2940   21.3220 C.ar      1 MTX2001     0.0000 
     18 C13        16.5670    6.8860   20.0910 C.ar      1 MTX2001     0.0000 
     19 C14        16.5540    6.1160   18.9260 C.ar      1 MTX2001     0.0000 
     20 C15        16.8020    4.7460   19.0240 C.ar      1 MTX2001     0.0000 
     21 C16        17.0560    4.1580   20.2590 C.ar      1 MTX2001     0.0000 
     22 C          17.3380    4.3240   22.7490 C.2       1 MTX2001     0.0000 
     23 O          17.7780    5.1650   23.7940 O.2       1 MTX2001     0.0000 
     24 N          17.1740    3.0170   22.9350 N.am      1 MTX2001     0.0000 
     25 CA         17.9660    2.3120   23.9250 C.3       1 MTX2001     0.0000 
     26 CT         18.2090    0.9030   23.5200 C.2       1 MTX2001     0.0000 
     27 O1         17.5970    0.4230   22.5490 O.co2     1 MTX2001     0.0000 
     28 O2         19.0400    0.2100   24.1510 O.co2     1 MTX2001     0.0000 
     29 CB         17.3200    2.3300   25.3080 C.3       1 MTX2001     0.0000 
     30 CG         15.8030    2.4200   25.2710 C.3       1 MTX2001     0.0000 
     31 CD         15.3110    2.4400   26.6970 C.2       1 MTX2001     0.0000 
     32 OE1        14.8860    1.3790   27.2230 O.co2     1 MTX2001     0.0000 
     33 OE2        15.3320    3.5120   27.3610 O.co2     1 MTX2001     0.0000 
     34 H          10.2687   -0.1199   16.1071 H         1 MTX2001     0.0000 
     35 H           9.7206    0.8623   17.5073 H         1 MTX2001     0.0000 
     36 H          13.8447    1.7234   13.4617 H         1 MTX2001     0.0000 
     37 H          15.1650    1.6415   14.6765 H         1 MTX2001     0.0000 
     38 H          13.9396    6.2311   18.3513 H         1 MTX2001     0.0000 
     39 H          15.6842    6.6611   15.6469 H         1 MTX2001     0.0000 
     40 H          16.7618    5.3503   16.1576 H         1 MTX2001     0.0000 
     41 H          16.8403    6.8739   22.1749 H         1 MTX2001     0.0000 
     42 H          16.3834    7.8979   20.0350 H         1 MTX2001     0.0000 
     43 H          16.7965    4.1653   18.1711 H         1 MTX2001     0.0000 
     44 H          17.2376    3.1466   20.3166 H         1 MTX2001     0.0000 
     45 H          16.4942    2.4542   22.3995 H         1 MTX2001     0.0000 
     46 H          18.9487    2.8026   24.0291 H         1 MTX2001     0.0000 
     47 H          17.7185    3.1859   25.8762 H         1 MTX2001     0.0000 
     48 H          17.6142    1.4171   25.8505 H         1 MTX2001     0.0000 
     49 H          15.4048    1.5593   24.7573 H         1 MTX2001     0.0000 
     50 H          15.5095    3.3281   24.7686 H         1 MTX2001     0.0000 
     51 H          16.4498    8.6695   18.4143 H         1 MTX2001     0.0000 
     52 H          16.7583    8.5846   16.8383 H         1 MTX2001     0.0000 
     53 H          15.2413    8.5053   17.3661 H         1 MTX2001     0.0000 
@<TRIPOS>BOND
     1    2    1 ar   
     2   12    1 ar   
     3    3    2 1    
     4    4    2 ar   
     5   34    3 1    
     6   35    3 1    
     7    5    4 ar   
     8    6    5 1    
     9    7    5 ar   
    10   36    6 1    
    11   37    6 1    
    12    8    7 ar   
    13   12    7 ar   
    14    9    8 ar   
    15   10    9 ar   
    16   13    9 1    
    17   11   10 ar   
    18   38   10 1    
    19   12   11 ar   
    20   14   13 1    
    21   39   13 1    
    22   40   13 1    
    23   15   14 1    
    24   19   14 1    
    25   51   15 1    
    26   52   15 1    
    27   53   15 1    
    28   17   16 ar   
    29   21   16 ar   
    30   22   16 1    
    31   18   17 ar   
    32   41   17 1    
    33   19   18 ar   
    34   42   18 1    
    35   20   19 ar   
    36   21   20 ar   
    37   43   20 1    
    38   44   21 1    
    39   23   22 2    
    40   24   22 am   
    41   25   24 1    
    42   45   24 1    
    43   26   25 1    
    44   29   25 1    
    45   46   25 1    
    46   27   26 ar   
    47   28   26 ar   
    48   30   29 1    
    49   47   29 1    
    50   48   29 1    
    51   31   30 1    
    52   49   30 1    
    53   50   30 1    
    54   32   31 ar   
    55   33   31 ar   
@<TRIPOS>SUBSTRUCTURE
     1 MTX2001     1 GROUP   
@<TRIPOS>SET

