#    Name: 1tmo_2MD_1_INTS_M
#    Modification time : Tue Mar 25 05:31:38 2014

@<TRIPOS>MOLECULE
1tmo_2MD_1_INTS_M
   87     0     9     0     0
SMALL
NO_CHARGES


@<TRIPOS>ATOM
      1 N          56.8355   44.1835   20.2320 N.am      2 SEC2        0.0000 
      2 N          55.5820   43.3920   20.0430 N.am      8 SEL2        0.0000 
      3 N          58.0890   44.9750   20.4210 N.am      5 SEP2        0.0000 
      4 N          56.5635   42.1480   20.0560 N.am      2 SEC2        0.0000 
      5 N          57.5450   40.9040   20.0690 N.am      5 SEP2        0.0000 
      6 N          53.4245   44.0515   17.5035 N.am      2 SEC2        0.0000 
      7 N          53.8420   42.8110   18.5630 N.am      8 SEL2        0.0000 
      8 N          53.0070   45.2920   16.4440 N.am      5 SEP2        0.0000 
      9 CA         51.1025   42.2300   21.4260 C.3       3 GLC5        0.0000 
     10 CA         52.5460   41.1750   20.8270 C.3       9 GLL5        0.0000 
     11 CA         49.6590   43.2850   22.0250 C.3       6 GLP5        0.0000 
     12 CA         50.2985   41.8300   17.6965 C.3       3 GLC5        0.0000 
     13 CA         50.3570   40.0770   18.5010 C.3       9 GLL5        0.0000 
     14 CA         50.2400   43.5830   16.8920 C.3       6 GLP5        0.0000 
     15 CA         49.8850   41.8110   19.6090 C.3       3 GLC5        0.0000 
     16 CA         49.4130   43.5450   20.7170 C.3       6 GLP5        0.0000 
     17 CA         48.6770   36.9250   17.7200 C.3       3 GLC5        0.0000 
     18 CA         49.0210   37.7940   19.3900 C.3       9 GLL5        0.0000 
     19 CA         48.3330   36.0560   16.0500 C.3       6 GLP5        0.0000 
     20 O          48.8115   37.2420   22.4205 O.2       1 ALC1        0.0000 
     21 O          50.3720   36.8820   22.4270 O.2       7 ALL1        0.0000 
     22 O          47.2510   37.6020   22.4140 O.2       4 ALP1        0.0000 
     23 N          48.0955   34.4550   25.2205 N.am      2 SEC2        0.0000 
     24 N          48.9730   35.3300   24.2470 N.am      8 SEL2        0.0000 
     25 N          47.2180   33.5800   26.1940 N.am      5 SEP2        0.0000 
     26 O          50.7285   34.4810   27.0670 O.2       1 ALC1        0.0000 
     27 O          50.9290   35.1020   25.5510 O.2       7 ALL1        0.0000 
     28 O          50.5280   33.8600   28.5830 O.2       4 ALP1        0.0000 
     29 O          51.7125   34.3655   27.7090 O.2       1 ALC1        0.0000 
     30 O          52.8970   34.8710   26.8350 O.2       7 ALL1        0.0000 
     31 O          54.4280   34.6775   27.0580 O.2       1 ALC1        0.0000 
     32 O          55.9590   34.4840   27.2810 O.2       4 ALP1        0.0000 
     33 O          54.8740   36.8420   22.7605 O.2       1 ALC1        0.0000 
     34 O          53.3040   37.0590   22.7490 O.2       7 ALL1        0.0000 
     35 O          56.4440   36.6250   22.7720 O.2       4 ALP1        0.0000 
     36 CA         54.3950   38.5815   21.5935 C.3       3 GLC5        0.0000 
     37 CA         52.6520   37.6810   21.5770 C.3       9 GLL5        0.0000 
     38 CA         56.1380   39.4820   21.6100 C.3       6 GLP5        0.0000 
     39 N          54.0115   43.5850   23.7170 N.am      2 SEC2        0.0000 
     40 N          53.8260   44.5610   22.7350 N.am      8 SEL2        0.0000 
     41 N          54.1970   42.6090   24.6990 N.am      5 SEP2        0.0000 
     42 N          53.9710   45.4010   23.7805 N.am      2 SEC2        0.0000 
     43 N          54.1160   46.2410   24.8260 N.am      5 SEP2        0.0000 
     44 N          51.8230   47.5070   20.8975 N.am      2 SEC2        0.0000 
     45 N          52.3400   46.3960   21.6640 N.am      8 SEL2        0.0000 
     46 N          51.3060   48.6180   20.1310 N.am      5 SEP2        0.0000 
     47 CA         53.2920   48.4540   21.2835 C.3       3 GLC5        0.0000 
     48 CA         54.9280   47.4040   20.2180 C.3       9 GLL5        0.0000 
     49 CA         51.6560   49.5040   22.3490 C.3       6 GLP5        0.0000 
     50 CA         56.8415   49.8140   17.7740 C.3       3 GLC5        0.0000 
     51 CA         56.1080   50.7140   19.6410 C.3       9 GLL5        0.0000 
     52 CA         57.5750   48.9140   15.9070 C.3       6 GLP5        0.0000 
     53 CA         56.8990   50.7535   16.8750 C.3       3 GLC5        0.0000 
     54 CA         56.2230   52.5930   17.8430 C.3       9 GLL5        0.0000 
     55 O          57.8100   55.5325   15.1580 O.2       1 ALC1        0.0000 
     56 O          57.0410   54.3500   16.0030 O.2       7 ALL1        0.0000 
     57 O          58.5790   56.7150   14.3130 O.2       4 ALP1        0.0000 
     58 N          54.7890   56.3235   14.5135 N.am      2 SEC2        0.0000 
     59 N          54.9230   54.9400   15.3430 N.am      8 SEL2        0.0000 
     60 N          54.6550   57.7070   13.6840 N.am      5 SEP2        0.0000 
     61 CA         53.1255   53.6120   16.5765 C.3       3 GLC5        0.0000 
     62 CA         55.2210   53.2940   17.1500 C.3       9 GLL5        0.0000 
     63 CA         51.0300   53.9300   16.0030 C.3       6 GLP5        0.0000 
     64 N          52.9375   52.1935   16.3600 N.am      2 SEC2        0.0000 
     65 N          53.9720   52.6550   17.3550 N.am      8 SEL2        0.0000 
     66 N          51.9030   51.7320   15.3650 N.am      5 SEP2        0.0000 
     67 O          57.1500   52.1920   21.9965 O.2       1 ALC1        0.0000 
     68 O          55.8140   51.9110   21.7200 O.2       7 ALL1        0.0000 
     69 O          58.4860   52.4730   22.2730 O.2       4 ALP1        0.0000 
     70 O          58.0515   50.0190   21.9520 O.2       1 ALC1        0.0000 
     71 O          56.7620   49.3790   22.5180 O.2       7 ALL1        0.0000 
     72 O          59.3410   50.6590   21.3860 O.2       4 ALP1        0.0000 
     73 CA         54.3203   39.9540   21.1185 C.3       3 GLC5        0.0000 
     74 CA         52.2095   37.1513   18.9838 C.3       3 GLC5        0.0000 
     75 CA         51.3060   39.0910   19.5600 C.3       9 GLL5        0.0000 
     76 CA         53.4310   35.7630   18.2050 C.3       6 GLP5        0.0000 
     77 CA         52.6635   36.6375   19.8167 C.3       3 GLC5        0.0000 
     78 CA         51.1400   37.3430   21.2800 C.3       9 GLL5        0.0000 
     79 CA         51.3305   37.7840   24.8223 C.3       3 GLC5        0.0000 
     80 CA         52.4910   36.4840   23.6700 C.3       9 GLL5        0.0000 
     81 CA         50.8960   39.1360   26.0620 C.3       6 GLP5        0.0000 
     82 CA         56.6200   46.8985   19.2518 C.3       3 GLC5        0.0000 
     83 CA         57.7800   45.8510   18.1850 C.3       6 GLP5        0.0000 
     84 CA         56.5410   46.6865   21.5378 C.3       3 GLC5        0.0000 
     85 CA         57.6220   45.4270   22.7570 C.3       6 GLP5        0.0000 
     86 CA         53.5890   49.7930   21.8113 C.3       3 GLC5        0.0000 
     87 CA         55.6740   49.3900   21.6000 C.3       9 GLL5        0.0000 
@<TRIPOS>BOND
@<TRIPOS>SUBSTRUCTURE
     1 ALC1       20 GROUP        1 X    ALC  0     ROOT ALC X 1
     2 SEC2        1 GROUP        1 X    SEC  0     **** SEC X 2
     3 GLC5        9 GROUP        1 X    GLC  0     **** GLC X 6
     4 ALP1       22 GROUP        1 Y    ALP  0     ROOT ALP Y 8
     5 SEP2        3 GROUP        1 Y    SEP  0     **** SEP Y 9
     6 GLP5       11 GROUP        1 Y    GLP  0     **** GLP Y 13
     7 ALL1       21 GROUP        1 Z    ALL  0     ROOT ALL Z 15
     8 SEL2        2 GROUP        1 Z    SEL  0     **** SEL Z 16
     9 GLL5       10 GROUP        1 Z    GLL  0     **** GLL Z 20
@<TRIPOS>SET

