#    Name: 1tmo_2MD_1_ligand
#    Modification time : Tue Mar 25 05:31:38 2014

@<TRIPOS>MOLECULE
1tmo_2MD_1_ligand
   71    76     1     0     0
SMALL
NO_CHARGES


@<TRIPOS>ATOM
      1 PB         54.1230   43.1520   19.9860 P.3       1 2MD799      0.0000 
      2 O3B        53.3190   44.5730   20.2530 O.3       1 2MD799      0.0000 
      3 O1B        55.5820   43.3920   20.0430 O.co2     1 2MD799      0.0000 
      4 O2B        53.8420   42.8110   18.5630 O.co2     1 2MD799      0.0000 
      5 O3A        53.8250   41.8730   21.0020 O.3       1 2MD799      0.0000 
      6 C10        52.5460   41.1750   20.8270 C.3       1 2MD799      0.0000 
      7 C11        52.4590   39.6770   20.4270 C.3       1 2MD799      0.0000 
      8 O11        52.8660   39.0600   21.6160 O.3       1 2MD799      0.0000 
      9 C12        51.3060   39.0910   19.5600 C.3       1 2MD799      0.0000 
     10 S12        50.3570   40.0770   18.5010 S.3       1 2MD799      0.0000 
     11 C13        50.6700   37.9880   19.9650 C.3       1 2MD799      0.0000 
     12 S13        49.0210   37.7940   19.3900 S.3       1 2MD799      0.0000 
     13 C14        51.1400   37.3430   21.2800 C.3       1 2MD799      0.0000 
     14 N15        50.3720   36.8820   22.4270 N.pl3     1 2MD799      0.0000 
     15 C16        51.0390   36.3800   23.4950 C.2       1 2MD799      0.0000 
     16 C15        50.3140   35.6030   24.4580 C.2       1 2MD799      0.0000 
     17 O14        48.9730   35.3300   24.2470 O.2       1 2MD799      0.0000 
     18 N17        50.9290   35.1020   25.5510 N.am      1 2MD799      0.0000 
     19 C17        52.2750   35.2910   25.7150 C.2       1 2MD799      0.0000 
     20 N16        52.8970   34.8710   26.8350 N.pl3     1 2MD799      0.0000 
     21 N18        53.0320   35.8970   24.7570 N.2       1 2MD799      0.0000 
     22 C20        52.4910   36.4840   23.6700 C.2       1 2MD799      0.0000 
     23 N8         53.3040   37.0590   22.7490 N.pl3     1 2MD799      0.0000 
     24 C7         52.6520   37.6810   21.5770 C.3       1 2MD799      0.0000 
     25 PA         53.5430   45.4900   21.6000 P.3       1 2MD799      0.0000 
     26 O1A        53.8260   44.5610   22.7350 O.co2     1 2MD799      0.0000 
     27 O2A        52.3400   46.3960   21.6640 O.co2     1 2MD799      0.0000 
     28 O5'        54.8140   46.5020   21.3460 O.3       1 2MD799      0.0000 
     29 C5'        54.9280   47.4040   20.2180 C.3       1 2MD799      0.0000 
     30 C4'        55.9920   48.4880   20.4190 C.3       1 2MD799      0.0000 
     31 O4'        55.9440   49.3390   19.2680 O.3       1 2MD799      0.0000 
     32 C1'        56.1080   50.7140   19.6410 C.3       1 2MD799      0.0000 
     33 N9         55.5480   51.6690   18.6670 N.pl3     1 2MD799      0.0000 
     34 C4         56.2230   52.5930   17.8430 C.2       1 2MD799      0.0000 
     35 N3         57.5990   52.7160   17.6840 N.2       1 2MD799      0.0000 
     36 C2         57.9600   53.7230   16.8460 C.2       1 2MD799      0.0000 
     37 N2         59.1870   54.2860   16.9010 N.pl3     1 2MD799      0.0000 
     38 N1         57.0410   54.3500   16.0030 N.am      1 2MD799      0.0000 
     39 C6         55.6260   54.2430   16.1060 C.2       1 2MD799      0.0000 
     40 O6         54.9230   54.9400   15.3430 O.2       1 2MD799      0.0000 
     41 C5         55.2210   53.2940   17.1500 C.2       1 2MD799      0.0000 
     42 N7         53.9720   52.6550   17.3550 N.2       1 2MD799      0.0000 
     43 C8         54.2160   51.7540   18.2810 C.2       1 2MD799      0.0000 
     44 C2'        55.3700   50.7740   20.9470 C.3       1 2MD799      0.0000 
     45 O2'        55.8140   51.9110   21.7200 O.3       1 2MD799      0.0000 
     46 C3'        55.6740   49.3900   21.6000 C.3       1 2MD799      0.0000 
     47 O3'        56.7620   49.3790   22.5180 O.3       1 2MD799      0.0000 
     48 H          51.9025   41.7453   20.0683 H         1 2MD799      0.0000 
     49 H          51.9182   41.2874   21.7800 H         1 2MD799      0.0000 
     50 H          53.4336   39.5898   19.7311 H         1 2MD799      0.0000 
     51 H          52.0286   38.6013   18.5965 H         1 2MD799      0.0000 
     52 H          51.1543   37.1117   19.1434 H         1 2MD799      0.0000 
     53 H          51.4412   36.1586   20.7564 H         1 2MD799      0.0000 
     54 H          49.3611   36.9542   22.3836 H         1 2MD799      0.0000 
     55 H          50.3934   34.5771   26.2652 H         1 2MD799      0.0000 
     56 H          53.8840   35.0269   26.8750 H         1 2MD799      0.0000 
     57 H          52.3160   34.4409   27.5260 H         1 2MD799      0.0000 
     58 H          54.3007   37.0912   22.8066 H         1 2MD799      0.0000 
     59 H          53.2110   37.2892   20.6538 H         1 2MD799      0.0000 
     60 H          53.9646   47.9126   20.0191 H         1 2MD799      0.0000 
     61 H          55.1835   46.8508   19.2932 H         1 2MD799      0.0000 
     62 H          56.9384   48.0509   20.5400 H         1 2MD799      0.0000 
     63 H          57.1414   50.9221   19.8460 H         1 2MD799      0.0000 
     64 H          59.3717   55.0049   16.2309 H         1 2MD799      0.0000 
     65 H          59.8015   53.9338   17.6070 H         1 2MD799      0.0000 
     66 H          57.4171   54.9570   15.2197 H         1 2MD799      0.0000 
     67 H          53.5232   51.1577   18.6990 H         1 2MD799      0.0000 
     68 H          54.3198   50.7987   20.7311 H         1 2MD799      0.0000 
     69 H          54.7518   49.0326   22.0281 H         1 2MD799      0.0000 
     70 H          56.8104   51.8313   21.7484 H         1 2MD799      0.0000 
     71 H          57.5261   49.7870   22.0184 H         1 2MD799      0.0000 
@<TRIPOS>BOND
     1    2    1 1    
     2    3    1 ar   
     3    4    1 ar   
     4    5    1 1    
     5   25    2 1    
     6    6    5 1    
     7    7    6 1    
     8   48    6 1    
     9   49    6 1    
    10    8    7 1    
    11    9    7 1    
    12   50    7 1    
    13   24    8 1    
    14   10    9 1    
    15   11    9 1    
    16   51    9 1    
    17   12   11 1    
    18   13   11 1    
    19   52   11 1    
    20   14   13 1    
    21   24   13 1    
    22   53   13 1    
    23   15   14 1    
    24   54   14 1    
    25   16   15 1    
    26   22   15 2    
    27   17   16 2    
    28   18   16 am   
    29   19   18 1    
    30   55   18 1    
    31   20   19 1    
    32   21   19 2    
    33   56   20 1    
    34   57   20 1    
    35   22   21 1    
    36   23   22 1    
    37   24   23 1    
    38   58   23 1    
    39   59   24 1    
    40   26   25 ar   
    41   27   25 ar   
    42   28   25 1    
    43   29   28 1    
    44   30   29 1    
    45   60   29 1    
    46   61   29 1    
    47   31   30 1    
    48   46   30 1    
    49   62   30 1    
    50   32   31 1    
    51   33   32 1    
    52   44   32 1    
    53   63   32 1    
    54   34   33 1    
    55   43   33 1    
    56   35   34 1    
    57   41   34 2    
    58   36   35 2    
    59   37   36 1    
    60   38   36 1    
    61   64   37 1    
    62   65   37 1    
    63   39   38 am   
    64   66   38 1    
    65   40   39 2    
    66   41   39 1    
    67   42   41 1    
    68   43   42 2    
    69   67   43 1    
    70   45   44 1    
    71   46   44 1    
    72   68   44 1    
    73   70   45 1    
    74   47   46 1    
    75   69   46 1    
    76   71   47 1    
@<TRIPOS>SUBSTRUCTURE
     1 2MD799      1 GROUP   
@<TRIPOS>SET

