#    Name: 3dei_RXB_1_INTS_M
#    Modification time : Mon Mar 24 23:14:34 2014

@<TRIPOS>MOLECULE
3dei_RXB_1_INTS_M
   26     0     6     0     0
SMALL
NO_CHARGES


@<TRIPOS>ATOM
      1 CA        -52.8895   14.7620  -20.3640 C.3       2 GLC5        0.0000 
      2 CA        -51.2680   14.0090  -21.6710 C.3       6 GLL5        0.0000 
      3 CA        -54.5110   15.5150  -19.0570 C.3       4 GLP5        0.0000 
      4 CA        -51.1615   12.9525  -23.2925 C.3       2 GLC5        0.0000 
      5 CA        -51.0550   11.8960  -24.9140 C.3       4 GLP5        0.0000 
      6 CA        -46.8085   16.7765  -23.9550 C.3       2 GLC5        0.0000 
      7 CA        -45.1880   15.2740  -23.7960 C.3       6 GLL5        0.0000 
      8 CA        -48.4290   18.2790  -24.1140 C.3       4 GLP5        0.0000 
      9 N         -46.1110   18.1775  -26.7300 N.am      1 SEC2        0.0000 
     10 N         -44.7680   17.8270  -26.4210 N.am      5 SEL2        0.0000 
     11 N         -47.4540   18.5280  -27.0390 N.am      3 SEP2        0.0000 
     12 CA        -45.5595   19.1860  -24.7490 C.3       2 GLC5        0.0000 
     13 CA        -43.8460   18.2470  -24.2690 C.3       6 GLL5        0.0000 
     14 CA        -47.2730   20.1250  -25.2290 C.3       4 GLP5        0.0000 
     15 CA        -44.7985   13.5120  -21.1680 C.3       2 GLC5        0.0000 
     16 CA        -44.5220   15.6610  -21.3900 C.3       6 GLL5        0.0000 
     17 CA        -45.0750   11.3630  -20.9460 C.3       4 GLP5        0.0000 
     18 CA        -51.5120   16.2758  -24.2950 C.3       2 GLC5        0.0000 
     19 CA        -49.8550   15.2700  -23.1840 C.3       6 GLL5        0.0000 
     20 CA        -52.5450   17.5550  -25.5810 C.3       4 GLP5        0.0000 
     21 CA        -48.8567   16.7428  -23.4485 C.3       2 GLC5        0.0000 
     22 CA        -49.7373   13.9149  -24.0343 C.3       2 GLC5        0.0000 
     23 CA        -49.8780   12.7600  -25.3730 C.3       4 GLP5        0.0000 
     24 CA        -43.6516   17.2482  -20.0579 C.3       2 GLC5        0.0000 
     25 CA        -43.5640   15.8190  -20.3880 C.3       6 GLL5        0.0000 
     26 CA        -43.6040   18.7490  -19.1490 C.3       4 GLP5        0.0000 
@<TRIPOS>BOND
@<TRIPOS>SUBSTRUCTURE
     1 SEC2        9 GROUP        1 X    SEC  0     ROOT SEC X 2
     2 GLC5        1 GROUP        1 X    GLC  0     **** GLC X 6
     3 SEP2       11 GROUP        1 Y    SEP  0     ROOT SEP Y 9
     4 GLP5        3 GROUP        1 Y    GLP  0     **** GLP Y 13
     5 SEL2       10 GROUP        1 Z    SEL  0     ROOT SEL Z 16
     6 GLL5        2 GROUP        1 Z    GLL  0     **** GLL Z 20
@<TRIPOS>SET

