#    Name: 3dei_RXB_1_ligand
#    Modification time : Mon Mar 24 23:14:34 2014

@<TRIPOS>MOLECULE
3dei_RXB_1_ligand
   41    43     1     0     0
SMALL
NO_CHARGES


@<TRIPOS>ATOM
      1 OAE       -51.4730   12.6460  -19.3440 O.2       1 RXB300      0.0000 
      2 CAW       -50.3280   13.1540  -19.6610 C.2       1 RXB300      0.0000 
      3 NAP       -49.2350   13.0180  -18.8390 N.am      1 RXB300      0.0000 
      4 CAV       -47.9970   13.5380  -19.1210 C.2       1 RXB300      0.0000 
      5 OAD       -47.0160   13.3870  -18.3430 O.2       1 RXB300      0.0000 
      6 CAY       -50.1450   13.8720  -20.8510 C.ar      1 RXB300      0.0000 
      7 CAZ       -48.8680   14.4250  -21.1760 C.ar      1 RXB300      0.0000 
      8 CAX       -47.7780   14.2460  -20.2810 C.2       1 RXB300      0.0000 
      9 OAF       -46.5900   14.6840  -20.4330 O.2       1 RXB300      0.0000 
     10 CAN       -51.2680   14.0090  -21.6710 C.ar      1 RXB300      0.0000 
     11 CAJ       -51.1030   14.7230  -22.8340 C.ar      1 RXB300      0.0000 
     12 CAM       -49.8550   15.2700  -23.1840 C.ar      1 RXB300      0.0000 
     13 CAU       -48.7140   15.1430  -22.3820 C.ar      1 RXB300      0.0000 
     14 NAO       -47.5130   15.7020  -22.8000 N.am      1 RXB300      0.0000 
     15 CAS       -46.4380   14.9050  -23.0100 C.2       1 RXB300      0.0000 
     16 OAC       -46.3770   13.7820  -22.4970 O.2       1 RXB300      0.0000 
     17 CBA       -45.1880   15.2740  -23.7960 C.3       1 RXB300      0.0000 
     18 OAQ       -45.4510   16.1750  -24.9040 O.3       1 RXB300      0.0000 
     19 CAR       -44.6810   17.4230  -25.2420 C.2       1 RXB300      0.0000 
     20 OAB       -44.7680   17.8270  -26.4210 O.2       1 RXB300      0.0000 
     21 CAA       -43.8460   18.2470  -24.2690 C.3       1 RXB300      0.0000 
     22 CAT       -44.1300   15.5230  -22.7350 C.ar      1 RXB300      0.0000 
     23 CAL       -42.7440   15.5290  -23.0350 C.ar      1 RXB300      0.0000 
     24 CAI       -41.7660   15.7090  -22.0300 C.ar      1 RXB300      0.0000 
     25 CAG       -42.1890   15.8490  -20.6990 C.ar      1 RXB300      0.0000 
     26 CAH       -43.5640   15.8190  -20.3880 C.ar      1 RXB300      0.0000 
     27 CAK       -44.5220   15.6610  -21.3900 C.ar      1 RXB300      0.0000 
     28 H         -49.3566   12.4790  -17.9332 H         1 RXB300      0.0000 
     29 H         -52.1519   13.5998  -21.4125 H         1 RXB300      0.0000 
     30 H         -51.9052   14.8690  -23.4750 H         1 RXB300      0.0000 
     31 H         -49.7786   15.7950  -24.0849 H         1 RXB300      0.0000 
     32 H         -47.4558   16.7229  -22.9457 H         1 RXB300      0.0000 
     33 H         -44.8874   14.2368  -24.2448 H         1 RXB300      0.0000 
     34 H         -42.4430   15.3983  -24.0138 H         1 RXB300      0.0000 
     35 H         -40.7831   15.7357  -22.2700 H         1 RXB300      0.0000 
     36 H         -41.5012   15.9731  -19.9516 H         1 RXB300      0.0000 
     37 H         -43.8589   15.9156  -19.4052 H         1 RXB300      0.0000 
     38 H         -45.5210   15.6446  -21.1504 H         1 RXB300      0.0000 
     39 H         -43.1074   17.7077  -23.8644 H         1 RXB300      0.0000 
     40 H         -43.4225   19.0342  -24.7173 H         1 RXB300      0.0000 
     41 H         -44.3977   18.6014  -23.5140 H         1 RXB300      0.0000 
@<TRIPOS>BOND
     1    2    1 2    
     2    3    2 am   
     3    6    2 1    
     4    4    3 am   
     5   28    3 1    
     6    5    4 2    
     7    8    4 1    
     8    7    6 ar   
     9   10    6 ar   
    10    8    7 1    
    11   13    7 ar   
    12    9    8 2    
    13   11   10 ar   
    14   29   10 1    
    15   12   11 ar   
    16   30   11 1    
    17   13   12 ar   
    18   31   12 1    
    19   14   13 1    
    20   15   14 am   
    21   32   14 1    
    22   16   15 2    
    23   17   15 1    
    24   18   17 1    
    25   22   17 1    
    26   33   17 1    
    27   19   18 1    
    28   20   19 2    
    29   21   19 1    
    30   39   21 1    
    31   40   21 1    
    32   41   21 1    
    33   23   22 ar   
    34   27   22 ar   
    35   24   23 ar   
    36   34   23 1    
    37   25   24 ar   
    38   35   24 1    
    39   26   25 ar   
    40   36   25 1    
    41   27   26 ar   
    42   37   26 1    
    43   38   27 1    
@<TRIPOS>SUBSTRUCTURE
     1 RXB300      1 GROUP   
@<TRIPOS>SET

