#    Name: 1gjv_AGS_1_INTS_M
#    Modification time : Tue Mar 25 03:15:34 2014

@<TRIPOS>MOLECULE
1gjv_AGS_1_INTS_M
   71     0    12     0     0
SMALL
NO_CHARGES


@<TRIPOS>ATOM
      1 CA         92.3605  125.8910   33.8840 C.3       4 GLC5        0.0000 
      2 CA         93.7670  125.8340   35.0660 C.3      12 GLL5        0.0000 
      3 CA         90.9540  125.9480   32.7020 C.3       8 GLP5        0.0000 
      4 CA         93.7705  127.1705   33.8395 C.3       4 GLC5        0.0000 
      5 CA         93.7740  128.5070   32.6130 C.3       8 GLP5        0.0000 
      6 CA         95.2705  126.0145   34.0345 C.3       4 GLC5        0.0000 
      7 CA         96.7740  126.1950   33.0030 C.3       8 GLP5        0.0000 
      8 CA         95.6745  126.1925   35.8930 C.3       4 GLC5        0.0000 
      9 CA         97.5820  126.5510   36.7200 C.3       8 GLP5        0.0000 
     10 Zn         94.3770  122.2205   35.6265 Zn        3 ZIC7        0.0000 
     11 Zn         94.3490  123.4020   35.7420 Zn       11 ZIL7        0.0000 
     12 Zn         94.4050  121.0390   35.5110 Zn        7 ZIP7        0.0000 
     13 N          95.6155  123.8560   36.5430 N.am      2 SEC2        0.0000 
     14 N          94.3490  123.4020   35.7420 N.am     10 SEL2        0.0000 
     15 N          96.8820  124.3100   37.3440 N.am      6 SEP2        0.0000 
     16 N          94.9140  123.8515   30.2735 N.am      2 SEC2        0.0000 
     17 N          94.9590  123.0440   31.3080 N.am     10 SEL2        0.0000 
     18 N          94.8690  124.6590   29.2390 N.am      6 SEP2        0.0000 
     19 Zn         94.2915  121.2620   34.3455 Zn        3 ZIC7        0.0000 
     20 Zn         94.1780  121.4850   33.1800 Zn       11 ZIL7        0.0000 
     21 N          94.6955  125.3580   33.1410 N.am      2 SEC2        0.0000 
     22 N          93.9690  123.9910   33.3720 N.am     10 SEL2        0.0000 
     23 N          95.4220  126.7250   32.9100 N.am      6 SEP2        0.0000 
     24 Zn         95.5520  121.0980   35.2780 Zn        3 ZIC7        0.0000 
     25 Zn         96.6990  121.1570   35.0450 Zn       11 ZIL7        0.0000 
     26 N          96.6930  119.6905   35.5470 N.am      2 SEC2        0.0000 
     27 N          96.6990  121.1570   35.0450 N.am     10 SEL2        0.0000 
     28 N          96.6870  118.2240   36.0490 N.am      6 SEP2        0.0000 
     29 N          97.8460  121.6510   36.1970 N.am      2 SEC2        0.0000 
     30 N          98.9930  122.1450   37.3490 N.am      6 SEP2        0.0000 
     31 N          98.7390  122.5190   35.9145 N.am      2 SEC2        0.0000 
     32 N          98.4850  122.8930   34.4800 N.am     10 SEL2        0.0000 
     33 CA        100.5545  120.8860   31.4235 C.3       4 GLC5        0.0000 
     34 CA         98.5960  121.6450   31.8220 C.3      12 GLL5        0.0000 
     35 CA        102.5130  120.1270   31.0250 C.3       8 GLP5        0.0000 
     36 CA         99.6555  120.4905   33.0930 C.3       4 GLC5        0.0000 
     37 CA        100.7150  119.3360   34.3640 C.3       8 GLP5        0.0000 
     38 CA        100.2165  120.2475   30.1230 C.3       4 GLC5        0.0000 
     39 CA         98.4380  120.8290   30.5650 C.3      12 GLL5        0.0000 
     40 CA        101.9950  119.6660   29.6810 C.3       8 GLP5        0.0000 
     41 CA         99.7345  122.1710   29.5475 C.3       4 GLC5        0.0000 
     42 CA        101.0310  123.5130   28.5300 C.3       8 GLP5        0.0000 
     43 CA         97.8365  122.7190   29.5800 C.3       4 GLC5        0.0000 
     44 CA         97.2350  124.6090   28.5950 C.3       8 GLP5        0.0000 
     45 N          96.3325  122.2400   28.3080 N.am      2 SEC2        0.0000 
     46 N          96.3580  121.4790   29.5720 N.am     10 SEL2        0.0000 
     47 N          96.3070  123.0010   27.0440 N.am      6 SEP2        0.0000 
     48 CA         97.5460  120.1665   27.4650 C.3       4 GLC5        0.0000 
     49 CA         97.1850  119.1880   29.3980 C.3      12 GLL5        0.0000 
     50 CA         97.9070  121.1450   25.5320 C.3       8 GLP5        0.0000 
     51 N          96.6815  119.8565   27.1825 N.am      2 SEC2        0.0000 
     52 N          97.5160  119.5170   28.0680 N.am     10 SEL2        0.0000 
     53 N          95.8470  120.1960   26.2970 N.am      6 SEP2        0.0000 
     54 CA        100.2000  119.0980   29.8640 C.3       4 GLC5        0.0000 
     55 CA         98.4050  118.5300   30.0470 C.3      12 GLL5        0.0000 
     56 CA         95.7775  113.5400   30.9710 C.3       4 GLC5        0.0000 
     57 CA         97.3560  114.1420   31.8800 C.3      12 GLL5        0.0000 
     58 CA         94.1990  112.9380   30.0620 C.3       8 GLP5        0.0000 
     59 CA         98.7865  112.5345   32.0510 C.3       4 GLC5        0.0000 
     60 CA        100.2170  110.9270   32.2220 C.3       8 GLP5        0.0000 
     61 O          96.9440  111.9735   33.1905 O.2       1 ALC1        0.0000 
     62 O          97.1430  113.3960   32.9670 O.2       9 ALL1        0.0000 
     63 O          96.7450  110.5510   33.4140 O.2       5 ALP1        0.0000 
     64 CA         95.8785  113.6105   29.8230 C.3       4 GLC5        0.0000 
     65 CA         97.5580  114.2830   29.5840 C.3      12 GLL5        0.0000 
     66 CA         99.5160  114.5440   29.7570 C.3       4 GLC5        0.0000 
     67 CA        101.4740  114.8050   29.9300 C.3       8 GLP5        0.0000 
     68 CA         96.4020  115.7035   33.4140 C.3       4 GLC5        0.0000 
     69 CA         97.6220  115.5120   31.9200 C.3      12 GLL5        0.0000 
     70 CA         95.3150  116.5800   34.9280 C.3       8 GLP5        0.0000 
     71 CA         99.6038  115.3165   30.6215 C.3       4 GLC5        0.0000 
@<TRIPOS>BOND
@<TRIPOS>SUBSTRUCTURE
     1 ALC1       61 GROUP        1 X    ALC  0     ROOT ALC X 1
     2 SEC2       13 GROUP        1 X    SEC  0     **** SEC X 2
     3 ZIC7       10 GROUP        1 X    ZIC  0     **** ZIC X 5
     4 GLC5        1 GROUP        1 X    GLC  0     **** GLC X 6
     5 ALP1       63 GROUP        1 Y    ALP  0     ROOT ALP Y 8
     6 SEP2       15 GROUP        1 Y    SEP  0     **** SEP Y 9
     7 ZIP7       12 GROUP        1 Y    ZIP  0     **** ZIP Y 12
     8 GLP5        3 GROUP        1 Y    GLP  0     **** GLP Y 13
     9 ALL1       62 GROUP        1 Z    ALL  0     ROOT ALL Z 15
    10 SEL2       14 GROUP        1 Z    SEL  0     **** SEL Z 16
    11 ZIL7       11 GROUP        1 Z    ZIL  0     **** ZIL Z 19
    12 GLL5        2 GROUP        1 Z    GLL  0     **** GLL Z 20
@<TRIPOS>SET

