#    Name: 1gjv_AGS_1_ligand
#    Modification time : Tue Mar 25 03:15:34 2014

@<TRIPOS>MOLECULE
1gjv_AGS_1_ligand
   43    45     1     0     0
SMALL
NO_CHARGES


@<TRIPOS>ATOM
      1 PG         93.5620  124.3400   34.8810 P.3       1 AGS1383     0.0000 
      2 S1G        93.7670  125.8340   35.0660 S.3       1 AGS1383     0.0000 
      3 O2G        94.3490  123.4020   35.7420 O.co2     1 AGS1383     0.0000 
      4 O3G        92.1760  123.7700   35.0530 O.co2     1 AGS1383     0.0000 
      5 PB         94.7840  122.7700   32.7500 P.3       1 AGS1383     0.0000 
      6 O1B        94.9590  123.0440   31.3080 O.co2     1 AGS1383     0.0000 
      7 O2B        94.1780  121.4850   33.1800 O.co2     1 AGS1383     0.0000 
      8 O3B        93.9690  123.9910   33.3720 O.3       1 AGS1383     0.0000 
      9 PA         97.3080  122.1040   34.0780 P.3       1 AGS1383     0.0000 
     10 O1A        96.6990  121.1570   35.0450 O.co2     1 AGS1383     0.0000 
     11 O2A        98.4850  122.8930   34.4800 O.co2     1 AGS1383     0.0000 
     12 O3A        96.1740  123.0640   33.4900 O.3       1 AGS1383     0.0000 
     13 O5'        97.5980  121.2660   32.7570 O.3       1 AGS1383     0.0000 
     14 C5'        98.5960  121.6450   31.8220 C.3       1 AGS1383     0.0000 
     15 C4'        98.4380  120.8290   30.5650 C.3       1 AGS1383     0.0000 
     16 O4'        99.1410  119.5570   30.7050 O.3       1 AGS1383     0.0000 
     17 C3'        97.0050  120.4280   30.2650 C.3       1 AGS1383     0.0000 
     18 O3'        96.3580  121.4790   29.5720 O.3       1 AGS1383     0.0000 
     19 C2'        97.1850  119.1880   29.3980 C.3       1 AGS1383     0.0000 
     20 O2'        97.5160  119.5170   28.0680 O.3       1 AGS1383     0.0000 
     21 C1'        98.4050  118.5300   30.0470 C.3       1 AGS1383     0.0000 
     22 N9         98.0930  117.4640   31.0100 N.pl3     1 AGS1383     0.0000 
     23 C8         97.9970  117.5530   32.3850 C.2       1 AGS1383     0.0000 
     24 N7         97.7180  116.4120   32.9700 N.2       1 AGS1383     0.0000 
     25 C5         97.6220  115.5120   31.9200 C.ar      1 AGS1383     0.0000 
     26 C6         97.3560  114.1420   31.8800 C.ar      1 AGS1383     0.0000 
     27 N6         97.1430  113.3960   32.9670 N.pl3     1 AGS1383     0.0000 
     28 N1         97.3220  113.5450   30.6680 N.ar      1 AGS1383     0.0000 
     29 C2         97.5580  114.2830   29.5840 C.ar      1 AGS1383     0.0000 
     30 N3         97.8320  115.5770   29.4910 N.ar      1 AGS1383     0.0000 
     31 C4         97.8450  116.1440   30.7060 C.ar      1 AGS1383     0.0000 
     32 H          99.6065  121.4749   32.2154 H         1 AGS1383     0.0000 
     33 H          98.5181  122.7063   31.5528 H         1 AGS1383     0.0000 
     34 H          98.8287  121.3590   29.7198 H         1 AGS1383     0.0000 
     35 H          96.5444  120.1468   31.1696 H         1 AGS1383     0.0000 
     36 H          96.3673  118.5556   29.5188 H         1 AGS1383     0.0000 
     37 H          99.0187  118.1201   29.2352 H         1 AGS1383     0.0000 
     38 H          98.1339  118.4250   32.8584 H         1 AGS1383     0.0000 
     39 H          97.1979  113.8718   33.8449 H         1 AGS1383     0.0000 
     40 H          96.9477  112.4287   32.8054 H         1 AGS1383     0.0000 
     41 H          97.5190  113.7315   28.6182 H         1 AGS1383     0.0000 
     42 H          96.2745  122.2173   30.2413 H         1 AGS1383     0.0000 
     43 H          97.4442  120.5134   28.0224 H         1 AGS1383     0.0000 
@<TRIPOS>BOND
     1    2    1 1    
     2    3    1 ar   
     3    4    1 ar   
     4    8    1 1    
     5    6    5 ar   
     6    7    5 ar   
     7    8    5 1    
     8   12    5 1    
     9   10    9 ar   
    10   11    9 ar   
    11   12    9 1    
    12   13    9 1    
    13   14   13 1    
    14   15   14 1    
    15   32   14 1    
    16   33   14 1    
    17   16   15 1    
    18   17   15 1    
    19   34   15 1    
    20   21   16 1    
    21   18   17 1    
    22   19   17 1    
    23   35   17 1    
    24   42   18 1    
    25   20   19 1    
    26   21   19 1    
    27   36   19 1    
    28   43   20 1    
    29   22   21 1    
    30   37   21 1    
    31   23   22 1    
    32   31   22 1    
    33   24   23 2    
    34   38   23 1    
    35   25   24 1    
    36   26   25 ar   
    37   31   25 ar   
    38   27   26 1    
    39   28   26 ar   
    40   39   27 1    
    41   40   27 1    
    42   29   28 ar   
    43   30   29 ar   
    44   41   29 1    
    45   31   30 ar   
@<TRIPOS>SUBSTRUCTURE
     1 AGS1383     1 GROUP   
@<TRIPOS>SET

