#    Name: 3dh8_B4N_1_INTS_M
#    Modification time : Mon Mar 24 23:23:00 2014

@<TRIPOS>MOLECULE
3dh8_B4N_1_INTS_M
   51     0     9     0     0
SMALL
NO_CHARGES


@<TRIPOS>ATOM
      1 N         -17.1155    3.1745  -19.6945 N.am      1 SEC2        0.0000 
      2 N         -17.3310    3.6360  -18.1910 N.am      7 SEL2        0.0000 
      3 N         -16.9000    2.7130  -21.1980 N.am      4 SEP2        0.0000 
      4 N         -15.0875    5.0250  -18.6750 N.am      1 SEC2        0.0000 
      5 N         -15.2180    4.4010  -17.4310 N.am      7 SEL2        0.0000 
      6 N         -14.9570    5.6490  -19.9190 N.am      4 SEP2        0.0000 
      7 Zn        -19.2930   -0.7210  -12.1570 Zn        2 ZIC7        0.0000 
      8 Zn        -18.7650    0.1390  -12.2440 Zn        8 ZIL7        0.0000 
      9 Zn        -19.8210   -1.5810  -12.0700 Zn        5 ZIP7        0.0000 
     10 Zn        -17.3725   -1.2635   -9.9520 Zn        2 ZIC7        0.0000 
     11 Zn        -16.9720   -0.1720  -10.3730 Zn        8 ZIL7        0.0000 
     12 Zn        -17.7730   -2.3550   -9.5310 Zn        5 ZIP7        0.0000 
     13 CA        -18.2615    0.2560   -5.8095 C.3       3 GLC5        0.0000 
     14 CA        -18.2300    2.4040   -6.4350 C.3       9 GLL5        0.0000 
     15 CA        -18.2930   -1.8920   -5.1840 C.3       6 GLP5        0.0000 
     16 N         -16.1210    2.2235   -4.0690 N.am      1 SEC2        0.0000 
     17 N         -17.7590    1.6890   -4.1690 N.am      7 SEL2        0.0000 
     18 N         -14.4830    2.7580   -3.9690 N.am      4 SEP2        0.0000 
     19 CA        -17.9655    4.2140  -10.3110 C.3       3 GLC5        0.0000 
     20 CA        -17.3600    2.8270   -8.7040 C.3       9 GLL5        0.0000 
     21 CA        -18.5710    5.6010  -11.9180 C.3       6 GLP5        0.0000 
     22 CA        -16.2047    1.2080  -16.4177 C.3       3 GLC5        0.0000 
     23 CA        -17.5180    1.5070  -14.4010 C.3       9 GLL5        0.0000 
     24 CA        -14.9270    0.6220  -17.7800 C.3       6 GLP5        0.0000 
     25 CA        -18.5772    0.1585  -15.1932 C.3       3 GLC5        0.0000 
     26 CA        -19.6720   -1.4770  -15.3310 C.3       6 GLP5        0.0000 
     27 CA        -18.7645    3.0430  -13.4190 C.3       3 GLC5        0.0000 
     28 CA        -20.3380    4.2620  -12.9650 C.3       6 GLP5        0.0000 
     29 CA        -15.6393    2.0777  -16.5665 C.3       3 GLC5        0.0000 
     30 CA        -16.6870    3.2360  -15.8860 C.3       9 GLL5        0.0000 
     31 CA        -18.1502    4.4794  -15.6395 C.3       3 GLC5        0.0000 
     32 CA        -16.0160    3.8310  -14.8200 C.3       9 GLL5        0.0000 
     33 CA        -19.7590    5.7140  -15.9700 C.3       6 GLP5        0.0000 
     34 CA        -17.3150    4.5873  -13.0455 C.3       3 GLC5        0.0000 
     35 CA        -15.9790    5.4537  -14.0585 C.3       3 GLC5        0.0000 
     36 CA        -16.1020    3.3160  -13.5260 C.3       9 GLL5        0.0000 
     37 CA        -15.8990    7.3340  -13.9440 C.3       6 GLP5        0.0000 
     38 CA        -14.7224    2.4639  -14.0628 C.3       3 GLC5        0.0000 
     39 CA        -13.2180    1.5030  -13.6860 C.3       6 GLP5        0.0000 
     40 CA        -15.8776    0.6677  -14.0956 C.3       3 GLC5        0.0000 
     41 CA        -16.8640    2.1410  -13.3450 C.3       9 GLL5        0.0000 
     42 CA        -14.5820   -0.6320  -13.9910 C.3       6 GLP5        0.0000 
     43 CA        -19.0535   -0.2640   -7.0192 C.3       3 GLC5        0.0000 
     44 CA        -19.2760    1.4350   -8.2960 C.3       9 GLL5        0.0000 
     45 CA        -18.8520   -2.0420   -6.4220 C.3       6 GLP5        0.0000 
     46 CA        -19.1178    4.1814   -6.9188 C.3       3 GLC5        0.0000 
     47 CA        -19.2340    1.5930   -6.9370 C.3       9 GLL5        0.0000 
     48 CA        -20.2150    5.8410   -6.8430 C.3       6 GLP5        0.0000 
     49 CA        -15.8223    4.4185   -8.4228 C.3       3 GLC5        0.0000 
     50 CA        -17.3090    3.0450   -7.3030 C.3       9 GLL5        0.0000 
     51 CA        -14.3100    5.9010   -8.8420 C.3       6 GLP5        0.0000 
@<TRIPOS>BOND
@<TRIPOS>SUBSTRUCTURE
     1 SEC2        1 GROUP        1 X    SEC  0     ROOT SEC X 2
     2 ZIC7        7 GROUP        1 X    ZIC  0     **** ZIC X 5
     3 GLC5       13 GROUP        1 X    GLC  0     **** GLC X 6
     4 SEP2        3 GROUP        1 Y    SEP  0     ROOT SEP Y 9
     5 ZIP7        9 GROUP        1 Y    ZIP  0     **** ZIP Y 12
     6 GLP5       15 GROUP        1 Y    GLP  0     **** GLP Y 13
     7 SEL2        2 GROUP        1 Z    SEL  0     ROOT SEL Z 16
     8 ZIL7        8 GROUP        1 Z    ZIL  0     **** ZIL Z 19
     9 GLL5       14 GROUP        1 Z    GLL  0     **** GLL Z 20
@<TRIPOS>SET

