#    Name: 3dh8_B4N_1_ligand
#    Modification time : Mon Mar 24 23:23:00 2014

@<TRIPOS>MOLECULE
3dh8_B4N_1_ligand
   31    32     1     0     0
SMALL
NO_CHARGES


@<TRIPOS>ATOM
      1 CAG       -17.5180    1.5070  -14.4010 C.ar      1 B4N1000     0.0000 
      2 CAK       -17.4470    2.0810  -15.7100 C.ar      1 B4N1000     0.0000 
      3 CAS       -16.6870    3.2360  -15.8860 C.ar      1 B4N1000     0.0000 
      4 NAU       -16.4690    3.7850  -17.1270 N.pl3     1 B4N1000     0.0000 
      5 OAD       -17.3310    3.6360  -18.1910 O.2       1 B4N1000     0.0000 
      6 OAA       -15.2180    4.4010  -17.4310 O.2       1 B4N1000     0.0000 
      7 CAL       -16.0160    3.8310  -14.8200 C.ar      1 B4N1000     0.0000 
      8 CAH       -16.1020    3.3160  -13.5260 C.ar      1 B4N1000     0.0000 
      9 CAQ       -16.8640    2.1410  -13.3450 C.ar      1 B4N1000     0.0000 
     10 OAO       -16.7690    1.7050  -12.0510 O.3       1 B4N1000     0.0000 
     11 PAW       -17.7280    0.6880  -11.3170 P.3       1 B4N1000     0.0000 
     12 OAF       -18.7650    0.1390  -12.2440 O.co2     1 B4N1000     0.0000 
     13 OAC       -16.9720   -0.1720  -10.3730 O.co2     1 B4N1000     0.0000 
     14 OAP       -18.5620    1.7460  -10.4810 O.3       1 B4N1000     0.0000 
     15 CAR       -18.3630    1.9810   -9.1520 C.ar      1 B4N1000     0.0000 
     16 CAI       -19.2760    1.4350   -8.2960 C.ar      1 B4N1000     0.0000 
     17 CAM       -19.2340    1.5930   -6.9370 C.ar      1 B4N1000     0.0000 
     18 CAT       -18.2300    2.4040   -6.4350 C.ar      1 B4N1000     0.0000 
     19 NAV       -18.1920    2.6560   -5.1040 N.pl3     1 B4N1000     0.0000 
     20 OAE       -17.7590    1.6890   -4.1690 O.2       1 B4N1000     0.0000 
     21 OAB       -18.5940    3.9980   -4.8140 O.2       1 B4N1000     0.0000 
     22 CAN       -17.3090    3.0450   -7.3030 C.ar      1 B4N1000     0.0000 
     23 CAJ       -17.3600    2.8270   -8.7040 C.ar      1 B4N1000     0.0000 
     24 H         -18.0417    0.6492  -14.2600 H         1 B4N1000     0.0000 
     25 H         -17.9414    1.6471  -16.4758 H         1 B4N1000     0.0000 
     26 H         -15.4390    4.6762  -14.9910 H         1 B4N1000     0.0000 
     27 H         -15.6429    3.7578  -12.7486 H         1 B4N1000     0.0000 
     28 H         -20.0647    0.8540   -8.7069 H         1 B4N1000     0.0000 
     29 H         -19.8992    1.1434   -6.3237 H         1 B4N1000     0.0000 
     30 H         -16.5990    3.6724   -6.9139 H         1 B4N1000     0.0000 
     31 H         -16.7063    3.2635   -9.3167 H         1 B4N1000     0.0000 
@<TRIPOS>BOND
     1    2    1 ar   
     2    9    1 ar   
     3   24    1 1    
     4    3    2 ar   
     5   25    2 1    
     6    4    3 1    
     7    7    3 ar   
     8    5    4 2    
     9    6    4 2    
    10    8    7 ar   
    11   26    7 1    
    12    9    8 ar   
    13   27    8 1    
    14   10    9 1    
    15   11   10 1    
    16   12   11 ar   
    17   13   11 ar   
    18   14   11 1    
    19   15   14 1    
    20   16   15 ar   
    21   23   15 ar   
    22   17   16 ar   
    23   28   16 1    
    24   18   17 ar   
    25   29   17 1    
    26   19   18 1    
    27   22   18 ar   
    28   20   19 2    
    29   21   19 2    
    30   23   22 ar   
    31   30   22 1    
    32   31   23 1    
@<TRIPOS>SUBSTRUCTURE
     1 B4N1000     1 GROUP   
@<TRIPOS>SET

