#    Name: 1cdk_ANP_2_INTS_M
#    Modification time : Mon Mar 24 20:31:39 2014

@<TRIPOS>MOLECULE
1cdk_ANP_2_INTS_M
   97     0    18     0     0
SMALL
NO_CHARGES


@<TRIPOS>ATOM
      1 Zn         19.7415   -0.7645   31.3515 Zn        5 ZIC7        0.0000 
      2 Zn         19.6240   -0.1850   30.6040 Zn       17 ZIL7        0.0000 
      3 Zn         19.8590   -1.3440   32.0990 Zn       11 ZIP7        0.0000 
      4 NZ         22.3095    2.2000   30.1615 N.4       4 LYC4        0.0000 
      5 NZ         21.2370    1.8030   30.9420 N.4      16 LYL4        0.0000 
      6 NZ         23.3820    2.5970   29.3810 N.4      10 LYP4        0.0000 
      7 Zn         21.1965    2.0130   31.9165 Zn        5 ZIC7        0.0000 
      8 Zn         21.2370    1.8030   30.9420 Zn       17 ZIL7        0.0000 
      9 Zn         21.1560    2.2230   32.8910 Zn       11 ZIP7        0.0000 
     10 N          22.3095    2.2000   30.1615 N.am      2 SEC2        0.0000 
     11 N          21.2370    1.8030   30.9420 N.am     14 SEL2        0.0000 
     12 N          23.3820    2.5970   29.3810 N.am      8 SEP2        0.0000 
     13 N          17.9720    2.2355   28.9240 N.am      2 SEC2        0.0000 
     14 N          19.3350    1.9370   29.3760 N.am     14 SEL2        0.0000 
     15 N          16.6090    2.5340   28.4720 N.am      8 SEP2        0.0000 
     16 N          20.1940    1.8420   28.0920 N.am      2 SEC2        0.0000 
     17 N          21.0530    1.7470   26.8080 N.am      8 SEP2        0.0000 
     18 N          15.6960    0.8640   30.5335 N.am      2 SEC2        0.0000 
     19 N          16.5200    1.2530   31.8210 N.am     14 SEL2        0.0000 
     20 N          14.8720    0.4750   29.2460 N.am      8 SEP2        0.0000 
     21 N          15.0090    0.9705   31.7965 N.am      2 SEC2        0.0000 
     22 N          13.4980    0.6880   31.7720 N.am      8 SEP2        0.0000 
     23 NZ         17.5380   -0.8800   34.1385 N.4       4 LYC4        0.0000 
     24 NZ         18.1830   -0.3350   32.9110 N.4      16 LYL4        0.0000 
     25 NZ         16.8930   -1.4250   35.3660 N.4      10 LYP4        0.0000 
     26 Zn         19.0210   -0.8395   32.5050 Zn        5 ZIC7        0.0000 
     27 Zn         18.1830   -0.3350   32.9110 Zn       17 ZIL7        0.0000 
     28 N          17.5380   -0.8800   34.1385 N.am      2 SEC2        0.0000 
     29 N          18.1830   -0.3350   32.9110 N.am     14 SEL2        0.0000 
     30 N          16.8930   -1.4250   35.3660 N.am      8 SEP2        0.0000 
     31 OD1        20.0510    0.7905   32.5370 O.co2     3 ASC3        0.0000 
     32 OD1        18.9940    1.8720   31.8720 O.co2    15 ASL3        0.0000 
     33 OD1        21.1080   -0.2910   33.2020 O.co2     9 ASP3        0.0000 
     34 NZ         17.7500   -0.2220   35.7400 N.4       4 LYC4        0.0000 
     35 NZ         18.6070    0.9810   36.1140 N.4      16 LYL4        0.0000 
     36 N          17.7500   -0.2220   35.7400 N.am      2 SEC2        0.0000 
     37 N          18.6070    0.9810   36.1140 N.am     14 SEL2        0.0000 
     38 Zn         20.5675    2.3480   33.7025 Zn        5 ZIC7        0.0000 
     39 Zn         19.9790    2.4730   34.5140 Zn       17 ZIL7        0.0000 
     40 CA         16.3170    5.6245   33.8130 C.3       6 GLC5        0.0000 
     41 CA         17.7580    4.5360   35.0420 C.3      18 GLL5        0.0000 
     42 CA         14.8760    6.7130   32.5840 C.3      12 GLP5        0.0000 
     43 CA         17.2150    7.2835   35.5915 C.3       6 GLC5        0.0000 
     44 CA         18.2800    5.7520   35.7770 C.3      18 GLL5        0.0000 
     45 CA         16.1500    8.8150   35.4060 C.3      12 GLP5        0.0000 
     46 N          19.9855    6.9350   33.8735 N.am      2 SEC2        0.0000 
     47 N          20.5470    6.1090   34.8970 N.am     14 SEL2        0.0000 
     48 N          19.4240    7.7610   32.8500 N.am      8 SEP2        0.0000 
     49 O          22.0160    6.0660   35.0465 O.2       1 ALC1        0.0000 
     50 O          20.5470    6.1090   34.8970 O.2      13 ALL1        0.0000 
     51 O          23.4850    6.0230   35.1960 O.2       7 ALP1        0.0000 
     52 CA         21.5395    7.9405   36.8550 C.3       6 GLC5        0.0000 
     53 CA         19.9590    6.5610   37.2300 C.3      18 GLL5        0.0000 
     54 CA         23.1200    9.3200   36.4800 C.3      12 GLP5        0.0000 
     55 CA         21.3360    6.9510   38.6000 C.3       6 GLC5        0.0000 
     56 CA         22.7130    7.3410   39.9700 C.3      12 GLP5        0.0000 
     57 N          19.5360    9.2925   36.1350 N.am      2 SEC2        0.0000 
     58 N          20.0660    7.9310   36.8050 N.am     14 SEL2        0.0000 
     59 N          19.0060   10.6540   35.4650 N.am      8 SEP2        0.0000 
     60 O          20.6865    8.4690   35.8255 O.2       1 ALC1        0.0000 
     61 O          20.0660    7.9310   36.8050 O.2      13 ALL1        0.0000 
     62 O          21.3070    9.0070   34.8460 O.2       7 ALP1        0.0000 
     63 CA         17.4020    7.6010   36.7060 C.3       6 GLC5        0.0000 
     64 CA         18.6540    6.3870   38.0060 C.3      18 GLL5        0.0000 
     65 CA         16.7720    5.6875   38.2735 C.3       6 GLC5        0.0000 
     66 CA         14.8900    4.9880   38.5410 C.3      12 GLP5        0.0000 
     67 N          19.9455    2.4315   40.0745 N.am      2 SEC2        0.0000 
     68 N          19.0600    3.5500   40.2420 N.am     14 SEL2        0.0000 
     69 N          20.8310    1.3130   39.9070 N.am      8 SEP2        0.0000 
     70 CA         17.8730    2.8830   41.2605 C.3       6 GLC5        0.0000 
     71 CA         19.1080    4.6360   41.1100 C.3      18 GLL5        0.0000 
     72 CA         16.6380    1.1300   41.4110 C.3      12 GLP5        0.0000 
     73 CA         20.6525    3.1995   40.4535 C.3       6 GLC5        0.0000 
     74 CA         22.1970    1.7630   39.7970 C.3      12 GLP5        0.0000 
     75 CA         20.3115    3.1115   43.5660 C.3       6 GLC5        0.0000 
     76 CA         19.1980    4.7240   42.5050 C.3      18 GLL5        0.0000 
     77 CA         21.4250    1.4990   44.6270 C.3      12 GLP5        0.0000 
     78 O          19.0345    3.7040   44.7705 O.2       1 ALC1        0.0000 
     79 O          19.2580    3.6400   43.2950 O.2      13 ALL1        0.0000 
     80 O          18.8110    3.7680   46.2460 O.2       7 ALP1        0.0000 
     81 N          19.7985    6.5290   44.5240 N.am      2 SEC2        0.0000 
     82 N          19.2250    5.9710   43.0540 N.am     14 SEL2        0.0000 
     83 N          20.3720    7.0870   45.9940 N.am      8 SEP2        0.0000 
     84 CA         17.3160    7.8775   42.2415 C.3       6 GLC5        0.0000 
     85 CA         19.1480    7.0380   42.2590 C.3      18 GLL5        0.0000 
     86 CA         15.4840    8.7170   42.2240 C.3      12 GLP5        0.0000 
     87 CA         17.4630    6.1535   43.0735 C.3       6 GLC5        0.0000 
     88 CA         15.7780    5.2690   43.8880 C.3      12 GLP5        0.0000 
     89 CA         20.8260    6.1790   41.9505 C.3       6 GLC5        0.0000 
     90 CA         22.5040    5.3200   41.6420 C.3      12 GLP5        0.0000 
     91 CA         16.7090    4.4025   36.6688 C.3       6 GLC5        0.0000 
     92 CA         15.3990    3.6610   37.9280 C.3      12 GLP5        0.0000 
     93 CA         17.1193    5.0637   40.3620 C.3       6 GLC5        0.0000 
     94 CA         19.0010    5.8130   40.4240 C.3      18 GLL5        0.0000 
     95 CA         15.1840    4.9030   39.9570 C.3      12 GLP5        0.0000 
     96 CA         17.4655    4.9745   42.8477 C.3       6 GLC5        0.0000 
     97 CA         20.7905    5.2832   41.3789 C.3       6 GLC5        0.0000 
@<TRIPOS>BOND
@<TRIPOS>SUBSTRUCTURE
     1 ALC1       49 GROUP        1 X    ALC  0     ROOT ALC X 1
     2 SEC2       10 GROUP        1 X    SEC  0     **** SEC X 2
     3 ASC3       31 GROUP        1 X    ASC  0     **** ASC X 3
     4 LYC4        4 GROUP        1 X    LYC  0     **** LYC X 4
     5 ZIC7        1 GROUP        1 X    ZIC  0     **** ZIC X 5
     6 GLC5       40 GROUP        1 X    GLC  0     **** GLC X 6
     7 ALP1       51 GROUP        1 Y    ALP  0     ROOT ALP Y 8
     8 SEP2       12 GROUP        1 Y    SEP  0     **** SEP Y 9
     9 ASP3       33 GROUP        1 Y    ASP  0     **** ASP Y 10
    10 LYP4        6 GROUP        1 Y    LYP  0     **** LYP Y 11
    11 ZIP7        3 GROUP        1 Y    ZIP  0     **** ZIP Y 12
    12 GLP5       42 GROUP        1 Y    GLP  0     **** GLP Y 13
    13 ALL1       50 GROUP        1 Z    ALL  0     ROOT ALL Z 15
    14 SEL2       11 GROUP        1 Z    SEL  0     **** SEL Z 16
    15 ASL3       32 GROUP        1 Z    ASL  0     **** ASL Z 17
    16 LYL4        5 GROUP        1 Z    LYL  0     **** LYL Z 18
    17 ZIL7        2 GROUP        1 Z    ZIL  0     **** ZIL Z 19
    18 GLL5       41 GROUP        1 Z    GLL  0     **** GLL Z 20
@<TRIPOS>SET

