#    Name: 1cdk_ANP_2_ligand
#    Modification time : Mon Mar 24 20:31:39 2014

@<TRIPOS>MOLECULE
1cdk_ANP_2_ligand
   43    45     1     0     0
SMALL
NO_CHARGES


@<TRIPOS>ATOM
      1 PG         19.8560    1.3220   30.6000 P.3       1 ANP400      0.0000 
      2 O1G        19.6240   -0.1850   30.6040 O.co2     1 ANP400      0.0000 
      3 O2G        21.2370    1.8030   30.9420 O.co2     1 ANP400      0.0000 
      4 O3G        19.3350    1.9370   29.3760 O.co2     1 ANP400      0.0000 
      5 PB         17.7480    1.0330   32.5870 P.3       1 ANP400      0.0000 
      6 O1B        16.5200    1.2530   31.8210 O.co2     1 ANP400      0.0000 
      7 O2B        18.1830   -0.3350   32.9110 O.co2     1 ANP400      0.0000 
      8 N3B        18.9940    1.8720   31.8720 N.4       1 ANP400      0.0000 
      9 PA         18.6620    2.0630   35.1080 P.3       1 ANP400      0.0000 
     10 O1A        18.6070    0.9810   36.1140 O.co2     1 ANP400      0.0000 
     11 O2A        19.9790    2.4730   34.5140 O.co2     1 ANP400      0.0000 
     12 O3A        17.5420    1.8020   33.9630 O.3       1 ANP400      0.0000 
     13 O5'        18.0070    3.3490   35.8100 O.3       1 ANP400      0.0000 
     14 C5'        17.7580    4.5360   35.0420 C.3       1 ANP400      0.0000 
     15 C4'        18.2800    5.7520   35.7770 C.3       1 ANP400      0.0000 
     16 O4'        17.6640    5.8780   37.0830 O.3       1 ANP400      0.0000 
     17 C3'        19.7740    5.6750   36.0260 C.3       1 ANP400      0.0000 
     18 O3'        20.5470    6.1090   34.8970 O.3       1 ANP400      0.0000 
     19 C2'        19.9590    6.5610   37.2300 C.3       1 ANP400      0.0000 
     20 O2'        20.0660    7.9310   36.8050 O.3       1 ANP400      0.0000 
     21 C1'        18.6540    6.3870   38.0060 C.3       1 ANP400      0.0000 
     22 N9         18.8440    5.4640   39.1010 N.pl3     1 ANP400      0.0000 
     23 C8         18.8910    4.0900   39.0680 C.2       1 ANP400      0.0000 
     24 N7         19.0600    3.5500   40.2420 N.2       1 ANP400      0.0000 
     25 C5         19.1080    4.6360   41.1100 C.ar      1 ANP400      0.0000 
     26 C6         19.1980    4.7240   42.5050 C.ar      1 ANP400      0.0000 
     27 N6         19.2580    3.6400   43.2950 N.pl3     1 ANP400      0.0000 
     28 N1         19.2250    5.9710   43.0540 N.ar      1 ANP400      0.0000 
     29 C2         19.1480    7.0380   42.2590 C.ar      1 ANP400      0.0000 
     30 N3         18.9980    7.0810   40.9440 N.ar      1 ANP400      0.0000 
     31 C4         19.0010    5.8130   40.4240 C.ar      1 ANP400      0.0000 
     32 H          16.6837    4.6784   34.8639 H         1 ANP400      0.0000 
     33 H          18.2528    4.4891   34.0626 H         1 ANP400      0.0000 
     34 H          18.0839    6.6382   35.1926 H         1 ANP400      0.0000 
     35 H          19.9993    4.6656   36.3246 H         1 ANP400      0.0000 
     36 H          20.7524    6.2265   37.8071 H         1 ANP400      0.0000 
     37 H          18.3601    7.3583   38.3671 H         1 ANP400      0.0000 
     38 H          18.8003    3.5878   38.2056 H         1 ANP400      0.0000 
     39 H          19.2479    2.7551   42.8294 H         1 ANP400      0.0000 
     40 H          19.3074    3.8144   44.2784 H         1 ANP400      0.0000 
     41 H          19.2194    8.0189   42.7697 H         1 ANP400      0.0000 
     42 H          21.4718    6.2434   35.2530 H         1 ANP400      0.0000 
     43 H          20.6617    7.9070   36.0022 H         1 ANP400      0.0000 
@<TRIPOS>BOND
     1    2    1 ar   
     2    3    1 ar   
     3    4    1 ar   
     4    8    1 1    
     5    6    5 ar   
     6    7    5 ar   
     7    8    5 1    
     8   12    5 1    
     9   10    9 ar   
    10   11    9 ar   
    11   12    9 1    
    12   13    9 1    
    13   14   13 1    
    14   15   14 1    
    15   32   14 1    
    16   33   14 1    
    17   16   15 1    
    18   17   15 1    
    19   34   15 1    
    20   21   16 1    
    21   18   17 1    
    22   19   17 1    
    23   35   17 1    
    24   42   18 1    
    25   20   19 1    
    26   21   19 1    
    27   36   19 1    
    28   43   20 1    
    29   22   21 1    
    30   37   21 1    
    31   23   22 1    
    32   31   22 1    
    33   24   23 2    
    34   38   23 1    
    35   25   24 1    
    36   26   25 ar   
    37   31   25 ar   
    38   27   26 1    
    39   28   26 ar   
    40   39   27 1    
    41   40   27 1    
    42   29   28 ar   
    43   30   29 ar   
    44   41   29 1    
    45   31   30 ar   
@<TRIPOS>SUBSTRUCTURE
     1 ANP400      1 GROUP   
@<TRIPOS>SET

