#    Name: 2v4l_ABJ_1_INTS_M
#    Modification time : Tue Mar 25 00:58:25 2014

@<TRIPOS>MOLECULE
2v4l_ABJ_1_INTS_M
   47     0     9     0     0
SMALL
NO_CHARGES


@<TRIPOS>ATOM
      1 CA         49.0050   14.5650   33.2570 C.3       3 GLC5        0.0000 
      2 CA         47.7740   16.0180   33.0910 C.3       9 GLL5        0.0000 
      3 CA         50.2360   13.1120   33.4230 C.3       6 GLP5        0.0000 
      4 CA         48.9155   10.3940   30.3770 C.3       3 GLC5        0.0000 
      5 CA         48.5080   12.3460   29.8640 C.3       9 GLL5        0.0000 
      6 CA         49.3230    8.4420   30.8900 C.3       6 GLP5        0.0000 
      7 CA         48.9525   11.2770   28.1330 C.3       3 GLC5        0.0000 
      8 CA         49.3970   10.2080   26.4020 C.3       6 GLP5        0.0000 
      9 CA         47.3920   13.8020   28.9000 C.3       3 GLC5        0.0000 
     10 CA         46.2760   15.2580   27.9360 C.3       6 GLP5        0.0000 
     11 N          48.6405   10.3485   29.2425 N.am      2 SEC2        0.0000 
     12 N          47.6090   11.3570   29.8080 N.am      8 SEL2        0.0000 
     13 N          49.6720    9.3400   28.6770 N.am      5 SEP2        0.0000 
     14 CA         47.8460    9.9710   30.5935 C.3       3 GLC5        0.0000 
     15 CA         46.3690   11.5000   30.2970 C.3       9 GLL5        0.0000 
     16 O          46.1325    9.0835   30.1145 O.2       1 ALC1        0.0000 
     17 O          45.5380   10.4800   30.2180 O.2       7 ALL1        0.0000 
     18 O          46.7270    7.6870   30.0110 O.2       4 ALP1        0.0000 
     19 CA         39.7790   12.3045   30.3525 C.3       3 GLC5        0.0000 
     20 CA         41.7030   11.4930   30.8450 C.3       9 GLL5        0.0000 
     21 CA         37.8550   13.1160   29.8600 C.3       6 GLP5        0.0000 
     22 CA         39.6235   12.9485   31.4370 C.3       3 GLC5        0.0000 
     23 CA         41.0650   11.5980   32.0730 C.3       9 GLL5        0.0000 
     24 CA         38.1820   14.2990   30.8010 C.3       6 GLP5        0.0000 
     25 N          39.7625   11.6680   35.0055 N.am      2 SEC2        0.0000 
     26 N          41.0790   12.3530   34.3160 N.am      8 SEL2        0.0000 
     27 N          38.4460   10.9830   35.6950 N.am      5 SEP2        0.0000 
     28 CA         47.1167   16.3730   30.0418 C.3       3 GLC5        0.0000 
     29 CA         45.9420   17.1890   31.8980 C.3       9 GLL5        0.0000 
     30 CA         47.7590   16.0980   28.2490 C.3       6 GLP5        0.0000 
     31 CA         46.3334   11.7740   32.3623 C.3       3 GLC5        0.0000 
     32 CA         46.9740   13.7400   30.9120 C.3       9 GLL5        0.0000 
     33 CA         46.2360   11.1820   34.1310 C.3       6 GLP5        0.0000 
     34 CA         46.3534   13.8120   29.2647 C.3       3 GLC5        0.0000 
     35 CA         46.0110   12.7240   30.8680 C.3       9 GLL5        0.0000 
     36 CA         44.7712   11.9713   33.2172 C.3       3 GLC5        0.0000 
     37 CA         43.6320   12.7050   31.6850 C.3       9 GLL5        0.0000 
     38 CA         42.8672   14.1248   30.9652 C.3       3 GLC5        0.0000 
     39 CA         42.9810   12.8160   32.9220 C.3       9 GLL5        0.0000 
     40 CA         42.4280   15.4890   29.6270 C.3       6 GLP5        0.0000 
     41 CA         42.8910    9.8412   31.1358 C.3       3 GLC5        0.0000 
     42 CA         42.9730   12.0500   30.6500 C.3       9 GLL5        0.0000 
     43 CA         43.4440    7.9110   31.5240 C.3       6 GLP5        0.0000 
     44 CA         41.9690   12.7718   29.2972 C.3       3 GLC5        0.0000 
     45 CA         41.6000   13.7720   27.8470 C.3       6 GLP5        0.0000 
     46 CA         41.4087   10.2803   33.3145 C.3       3 GLC5        0.0000 
     47 CA         41.4320    8.6300   34.0350 C.3       6 GLP5        0.0000 
@<TRIPOS>BOND
@<TRIPOS>SUBSTRUCTURE
     1 ALC1       16 GROUP        1 X    ALC  0     ROOT ALC X 1
     2 SEC2       11 GROUP        1 X    SEC  0     **** SEC X 2
     3 GLC5        1 GROUP        1 X    GLC  0     **** GLC X 6
     4 ALP1       18 GROUP        1 Y    ALP  0     ROOT ALP Y 8
     5 SEP2       13 GROUP        1 Y    SEP  0     **** SEP Y 9
     6 GLP5        3 GROUP        1 Y    GLP  0     **** GLP Y 13
     7 ALL1       17 GROUP        1 Z    ALL  0     ROOT ALL Z 15
     8 SEL2       12 GROUP        1 Z    SEL  0     **** SEL Z 16
     9 GLL5        2 GROUP        1 Z    GLL  0     **** GLL Z 20
@<TRIPOS>SET

