#    Name: 2v4l_ABJ_1_ligand
#    Modification time : Tue Mar 25 00:58:26 2014

@<TRIPOS>MOLECULE
2v4l_ABJ_1_ligand
   35    37     1     0     0
SMALL
NO_CHARGES


@<TRIPOS>ATOM
      1 C19        45.9420   17.1890   31.8980 C.3       1 ABJ2093     0.0000 
      2 C14        47.0070   16.1070   31.7710 C.3       1 ABJ2093     0.0000 
      3 C20        47.7740   16.0180   33.0910 C.3       1 ABJ2093     0.0000 
      4 N11        46.3810   14.7990   31.4890 N.pl3     1 ABJ2093     0.0000 
      5 N15        45.2170   14.5430   31.8100 N.2       1 ABJ2093     0.0000 
      6 C7         46.9740   13.7400   30.9120 C.ar      1 ABJ2093     0.0000 
      7 N3         48.2030   13.5120   30.4000 N.ar      1 ABJ2093     0.0000 
      8 C6         48.5080   12.3460   29.8640 C.ar      1 ABJ2093     0.0000 
      9 N5         47.6090   11.3570   29.8080 N.ar      1 ABJ2093     0.0000 
     10 C2         46.3690   11.5000   30.2970 C.ar      1 ABJ2093     0.0000 
     11 N1         45.5380   10.4800   30.2180 N.pl3     1 ABJ2093     0.0000 
     12 C4         46.0110   12.7240   30.8680 C.ar      1 ABJ2093     0.0000 
     13 C13        44.8850   13.2890   31.4820 C.2       1 ABJ2093     0.0000 
     14 C18        43.6320   12.7050   31.6850 C.ar      1 ABJ2093     0.0000 
     15 C28        42.9810   12.8160   32.9220 C.ar      1 ABJ2093     0.0000 
     16 C27        42.9730   12.0500   30.6500 C.ar      1 ABJ2093     0.0000 
     17 C30        41.7030   11.4930   30.8450 C.ar      1 ABJ2093     0.0000 
     18 C26        41.0650   11.5980   32.0730 C.ar      1 ABJ2093     0.0000 
     19 C29        41.7060   12.2630   33.1150 C.ar      1 ABJ2093     0.0000 
     20 O33        41.0790   12.3530   34.3160 O.3       1 ABJ2093     0.0000 
     21 H          47.6902   16.3758   30.9966 H         1 ABJ2093     0.0000 
     22 H          49.4742   12.1826   29.4709 H         1 ABJ2093     0.0000 
     23 H          44.5649   10.7072   30.1805 H         1 ABJ2093     0.0000 
     24 H          45.9563    9.5718   30.2027 H         1 ABJ2093     0.0000 
     25 H          43.4440   13.3093   33.6985 H         1 ABJ2093     0.0000 
     26 H          43.4228   11.9711   29.7236 H         1 ABJ2093     0.0000 
     27 H          41.2416   11.0007   30.0644 H         1 ABJ2093     0.0000 
     28 H          40.1367   11.1932   32.2128 H         1 ABJ2093     0.0000 
     29 H          46.3429   18.0832   32.0970 H         1 ABJ2093     0.0000 
     30 H          45.4100   17.2870   31.0570 H         1 ABJ2093     0.0000 
     31 H          45.2942   16.9881   32.6329 H         1 ABJ2093     0.0000 
     32 H          48.4899   15.3206   33.0582 H         1 ABJ2093     0.0000 
     33 H          48.2184   16.8837   33.3214 H         1 ABJ2093     0.0000 
     34 H          47.1725   15.7849   33.8551 H         1 ABJ2093     0.0000 
     35 H          40.3111   12.9745   34.1610 H         1 ABJ2093     0.0000 
@<TRIPOS>BOND
     1    2    1 1    
     2   29    1 1    
     3   30    1 1    
     4   31    1 1    
     5    3    2 1    
     6    4    2 1    
     7   21    2 1    
     8   32    3 1    
     9   33    3 1    
    10   34    3 1    
    11    5    4 1    
    12    6    4 1    
    13   13    5 2    
    14    7    6 ar   
    15   12    6 ar   
    16    8    7 ar   
    17    9    8 ar   
    18   22    8 1    
    19   10    9 ar   
    20   11   10 1    
    21   12   10 ar   
    22   23   11 1    
    23   24   11 1    
    24   13   12 1    
    25   14   13 1    
    26   15   14 ar   
    27   16   14 ar   
    28   19   15 ar   
    29   25   15 1    
    30   17   16 ar   
    31   26   16 1    
    32   18   17 ar   
    33   27   17 1    
    34   19   18 ar   
    35   28   18 1    
    36   20   19 1    
    37   35   20 1    
@<TRIPOS>SUBSTRUCTURE
     1 ABJ2093     1 GROUP   
@<TRIPOS>SET

