#    Name: 4eyf_PNK_1_INTS_M
#    Modification time : Mon Mar 24 18:46:26 2014

@<TRIPOS>MOLECULE
4eyf_PNK_1_INTS_M
   74     0    15     0     0
SMALL
NO_CHARGES


@<TRIPOS>ATOM
      1 CA         -4.0610    7.5925   24.2150 C.3       5 GLC5        0.0000 
      2 CA         -2.8940    8.3700   25.7960 C.3      15 GLL5        0.0000 
      3 CA         -5.2280    6.8150   22.6340 C.3      10 GLP5        0.0000 
      4 CA         -2.3510   11.5135   25.8870 C.3       5 GLC5        0.0000 
      5 CA         -1.7230    9.3680   25.9510 C.3      15 GLL5        0.0000 
      6 CA         -2.9790   13.6590   25.8230 C.3      10 GLP5        0.0000 
      7 CA          1.7375    9.8645   25.1105 C.3       5 GLC5        0.0000 
      8 CA          0.5020    8.4390   26.3060 C.3      15 GLL5        0.0000 
      9 CA          2.9730   11.2900   23.9150 C.3      10 GLP5        0.0000 
     10 CA         -3.2815   11.2325   30.8040 C.3       5 GLC5        0.0000 
     11 CA         -4.3180   12.4630   29.2740 C.3      15 GLL5        0.0000 
     12 CA         -2.2450   10.0020   32.3340 C.3      10 GLP5        0.0000 
     13 CA          2.9800    7.9205   28.7570 C.3       5 GLC5        0.0000 
     14 CA          1.2060    9.1780   28.6560 C.3      15 GLL5        0.0000 
     15 CA          4.7540    6.6630   28.8580 C.3      10 GLP5        0.0000 
     16 CA          2.1540    8.8160   30.1505 C.3       5 GLC5        0.0000 
     17 CA          3.1020    8.4540   31.6450 C.3      10 GLP5        0.0000 
     18 NZ          3.7190    7.0940   25.4935 N.4       3 LYC4        0.0000 
     19 NZ          2.6890    7.4230   26.3670 N.4      13 LYL4        0.0000 
     20 NZ          4.7490    6.7650   24.6200 N.4       8 LYP4        0.0000 
     21 N           3.7190    7.0940   25.4935 N.am      2 SEC2        0.0000 
     22 N           2.6890    7.4230   26.3670 N.am     12 SEL2        0.0000 
     23 N           4.7490    6.7650   24.6200 N.am      7 SEP2        0.0000 
     24 N           2.5700    6.6640   27.6520 N.am      2 SEC2        0.0000 
     25 N           2.4510    5.9050   28.9370 N.am      7 SEP2        0.0000 
     26 NZ          3.4050    7.6335   24.5840 N.4       3 LYC4        0.0000 
     27 NZ          2.0610    8.5020   24.5480 N.4      13 LYL4        0.0000 
     28 Zn          1.2675    9.0600   24.0380 Zn        4 ZIC7        0.0000 
     29 Zn          2.0610    8.5020   24.5480 Zn       14 ZIL7        0.0000 
     30 Zn          0.4740    9.6180   23.5280 Zn        9 ZIP7        0.0000 
     31 N           3.4050    7.6335   24.5840 N.am      2 SEC2        0.0000 
     32 N           2.0610    8.5020   24.5480 N.am     12 SEL2        0.0000 
     33 N          -2.7170    5.9855   28.5040 N.am      2 SEC2        0.0000 
     34 N          -3.1370    6.3570   27.0240 N.am     12 SEL2        0.0000 
     35 N          -2.2970    5.6140   29.9840 N.am      7 SEP2        0.0000 
     36 Zn         -1.8430    6.0430   24.3245 Zn        4 ZIC7        0.0000 
     37 Zn         -1.6200    6.3240   25.4980 Zn       14 ZIL7        0.0000 
     38 Zn         -2.0660    5.7620   23.1510 Zn        9 ZIP7        0.0000 
     39 N          -5.2515   10.6245   23.7325 N.am      2 SEC2        0.0000 
     40 N          -5.1220    9.9020   25.0830 N.am     12 SEL2        0.0000 
     41 N          -5.3810   11.3470   22.3820 N.am      7 SEP2        0.0000 
     42 CA         -5.2205   11.5715   26.4250 C.3       5 GLC5        0.0000 
     43 CA         -6.1060    9.7830   27.2540 C.3      15 GLL5        0.0000 
     44 CA         -4.3350   13.3600   25.5960 C.3      10 GLP5        0.0000 
     45 CA         -7.1555   10.4905   25.5920 C.3       5 GLC5        0.0000 
     46 CA         -8.2050   11.1980   23.9300 C.3      10 GLP5        0.0000 
     47 O          -3.9575    8.4995   28.1135 O.2       1 ALC1        0.0000 
     48 O          -3.9640    8.8160   26.6950 O.2      11 ALL1        0.0000 
     49 O          -3.9510    8.1830   29.5320 O.2       6 ALP1        0.0000 
     50 CA         -0.6480    7.6725   28.3895 C.3       5 GLC5        0.0000 
     51 CA         -1.2850    9.6990   27.6580 C.3      15 GLL5        0.0000 
     52 CA         -0.0110    5.6460   29.1210 C.3      10 GLP5        0.0000 
     53 CA         -0.9160   10.5865   29.4380 C.3       5 GLC5        0.0000 
     54 CA         -0.5470   11.4740   31.2180 C.3      10 GLP5        0.0000 
     55 CA          0.6965   12.9835   27.2690 C.3       5 GLC5        0.0000 
     56 CA          0.9740   10.8860   26.8700 C.3      15 GLL5        0.0000 
     57 CA          0.4190   15.0810   27.6680 C.3      10 GLP5        0.0000 
     58 CA          1.9735   11.0880   25.3925 C.3       5 GLC5        0.0000 
     59 CA          0.8280   11.4990   29.0290 C.3       5 GLC5        0.0000 
     60 CA          0.6820   12.1120   31.1880 C.3      10 GLP5        0.0000 
     61 CA         -6.4367   13.9883   28.3427 C.3       5 GLC5        0.0000 
     62 CA         -6.6400   13.0790   29.0140 C.3      15 GLL5        0.0000 
     63 CA         -6.1160   15.4810   28.0360 C.3      10 GLP5        0.0000 
     64 CA          0.1417   10.4153   29.6160 C.3       5 GLC5        0.0000 
     65 CA         -5.4770   14.1973   28.7105 C.3       5 GLC5        0.0000 
     66 CA         -5.3580   13.3640   29.4960 C.3      15 GLL5        0.0000 
     67 CA         -4.7692   12.9056   31.0297 C.3       5 GLC5        0.0000 
     68 CA         -4.3800   12.9690   32.7950 C.3      10 GLP5        0.0000 
     69 CA         -5.6580   13.3182   28.1728 C.3       5 GLC5        0.0000 
     70 CA         -4.5680   11.2920   28.5500 C.3      15 GLL5        0.0000 
     71 CA          0.4156    7.3643   28.4342 C.3       5 GLC5        0.0000 
     72 CA          0.4550    9.5350   27.3720 C.3      15 GLL5        0.0000 
     73 CA         -5.7605    9.0686   29.3089 C.3       5 GLC5        0.0000 
     74 CA         -5.8680    7.6680   30.8360 C.3      10 GLP5        0.0000 
@<TRIPOS>BOND
@<TRIPOS>SUBSTRUCTURE
     1 ALC1       47 GROUP        1 X    ALC  0     ROOT ALC X 1
     2 SEC2       21 GROUP        1 X    SEC  0     **** SEC X 2
     3 LYC4       18 GROUP        1 X    LYC  0     **** LYC X 4
     4 ZIC7       28 GROUP        1 X    ZIC  0     **** ZIC X 5
     5 GLC5        1 GROUP        1 X    GLC  0     **** GLC X 6
     6 ALP1       49 GROUP        1 Y    ALP  0     ROOT ALP Y 8
     7 SEP2       23 GROUP        1 Y    SEP  0     **** SEP Y 9
     8 LYP4       20 GROUP        1 Y    LYP  0     **** LYP Y 11
     9 ZIP7       30 GROUP        1 Y    ZIP  0     **** ZIP Y 12
    10 GLP5        3 GROUP        1 Y    GLP  0     **** GLP Y 13
    11 ALL1       48 GROUP        1 Z    ALL  0     ROOT ALL Z 15
    12 SEL2       22 GROUP        1 Z    SEL  0     **** SEL Z 16
    13 LYL4       19 GROUP        1 Z    LYL  0     **** LYL Z 18
    14 ZIL7       29 GROUP        1 Z    ZIL  0     **** ZIL Z 19
    15 GLL5        2 GROUP        1 Z    GLL  0     **** GLL Z 20
@<TRIPOS>SET

