#    Name: 4eyf_PNK_1_ligand
#    Modification time : Mon Mar 24 18:46:26 2014

@<TRIPOS>MOLECULE
4eyf_PNK_1_ligand
   41    42     1     0     0
SMALL
NO_CHARGES


@<TRIPOS>ATOM
      1 C1         -2.8940    8.3700   25.7960 C.3       1 PNK301      0.0000 
      2 C2         -2.5170    6.9320   26.1210 C.2       1 PNK301      0.0000 
      3 C3         -6.8750   11.9120   28.2850 C.ar      1 PNK301      0.0000 
      4 C4         -1.7230    9.3680   25.9510 C.3       1 PNK301      0.0000 
      5 C5          0.5020    8.4390   26.3060 C.3       1 PNK301      0.0000 
      6 C6          0.4550    9.5350   27.3720 C.3       1 PNK301      0.0000 
      7 C7         -6.6400   13.0790   29.0140 C.ar      1 PNK301      0.0000 
      8 C8         -5.3580   13.3640   29.4960 C.ar      1 PNK301      0.0000 
      9 C9          1.8390    8.0990   25.7080 C.2       1 PNK301      0.0000 
     10 C10        -4.3180   12.4630   29.2740 C.ar      1 PNK301      0.0000 
     11 C11        -4.5680   11.2920   28.5500 C.ar      1 PNK301      0.0000 
     12 C12         1.2060    9.1780   28.6560 C.3       1 PNK301      0.0000 
     13 N1         -0.5100    8.8350   25.3330 N.4       1 PNK301      0.0000 
     14 O1          2.6890    7.4230   26.3670 O.co2     1 PNK301      0.0000 
     15 O2          2.0610    8.5020   24.5480 O.co2     1 PNK301      0.0000 
     16 O3         -3.1370    6.3570   27.0240 O.co2     1 PNK301      0.0000 
     17 O4         -1.6200    6.3240   25.4980 O.co2     1 PNK301      0.0000 
     18 O5         -5.1220    9.9020   25.0830 O.2       1 PNK301      0.0000 
     19 C16        -5.8320   11.0190   28.0690 C.ar      1 PNK301      0.0000 
     20 C15        -6.1060    9.7830   27.2540 C.3       1 PNK301      0.0000 
     21 C14        -5.0070    9.5190   26.2440 C.2       1 PNK301      0.0000 
     22 N2         -3.9640    8.8160   26.6950 N.am      1 PNK301      0.0000 
     23 S1         -1.2850    9.6990   27.6580 S.3       1 PNK301      0.0000 
     24 C13         0.9740   10.8860   26.8700 C.3       1 PNK301      0.0000 
     25 H          -3.2428    8.4255   24.7733 H         1 PNK301      0.0000 
     26 H          -7.8090   11.7178   27.9135 H         1 PNK301      0.0000 
     27 H          -1.9691   10.3293   25.5787 H         1 PNK301      0.0000 
     28 H           0.0989    7.5180   26.8176 H         1 PNK301      0.0000 
     29 H          -7.4117   13.7329   29.1983 H         1 PNK301      0.0000 
     30 H          -5.1863   14.2336   30.0107 H         1 PNK301      0.0000 
     31 H          -3.3815   12.6534   29.6353 H         1 PNK301      0.0000 
     32 H          -3.7928   10.6308   28.3785 H         1 PNK301      0.0000 
     33 H          -7.0597    9.8977   26.7246 H         1 PNK301      0.0000 
     34 H          -6.1955    8.9171   27.9212 H         1 PNK301      0.0000 
     35 H          -3.8569    8.5517   27.6919 H         1 PNK301      0.0000 
     36 H           2.1758    9.0056   28.4833 H         1 PNK301      0.0000 
     37 H           1.1549    9.9126   29.3326 H         1 PNK301      0.0000 
     38 H           0.8344    8.3559   29.0873 H         1 PNK301      0.0000 
     39 H           1.9265   10.8300   26.5706 H         1 PNK301      0.0000 
     40 H           0.4419   11.2229   26.0932 H         1 PNK301      0.0000 
     41 H           0.9311   11.5878   27.5811 H         1 PNK301      0.0000 
@<TRIPOS>BOND
     1    2    1 1    
     2    4    1 1    
     3   22    1 1    
     4   25    1 1    
     5   16    2 ar   
     6   17    2 ar   
     7    7    3 ar   
     8   19    3 ar   
     9   26    3 1    
    10   13    4 1    
    11   23    4 1    
    12   27    4 1    
    13    6    5 1    
    14    9    5 1    
    15   13    5 1    
    16   28    5 1    
    17   12    6 1    
    18   23    6 1    
    19   24    6 1    
    20    8    7 ar   
    21   29    7 1    
    22   10    8 ar   
    23   30    8 1    
    24   14    9 ar   
    25   15    9 ar   
    26   11   10 ar   
    27   31   10 1    
    28   19   11 ar   
    29   32   11 1    
    30   36   12 1    
    31   37   12 1    
    32   38   12 1    
    33   21   18 2    
    34   20   19 1    
    35   21   20 1    
    36   33   20 1    
    37   34   20 1    
    38   22   21 am   
    39   35   22 1    
    40   39   24 1    
    41   40   24 1    
    42   41   24 1    
@<TRIPOS>SUBSTRUCTURE
     1 PNK301      1 GROUP   
@<TRIPOS>SET

