#    Name: 2xrl_DXT_1_INTS_M
#    Modification time : Tue Mar 25 06:32:17 2014

@<TRIPOS>MOLECULE
2xrl_DXT_1_INTS_M
   63     0    12     0     0
SMALL
NO_CHARGES


@<TRIPOS>ATOM
      1 CA         19.5420   31.8355   33.0935 C.3       4 GLC5        0.0000 
      2 CA         19.3680   32.7270   35.1430 C.3      12 GLL5        0.0000 
      3 CA         19.7160   30.9440   31.0440 C.3       8 GLP5        0.0000 
      4 CA         19.1750   30.6070   34.7625 C.3       4 GLC5        0.0000 
      5 CA         18.9820   28.4870   34.3820 C.3       8 GLP5        0.0000 
      6 N          16.6330   30.2520   35.6265 N.am      2 SEC2        0.0000 
      7 N          17.5310   31.2760   35.5320 N.am     10 SEL2        0.0000 
      8 N          15.7350   29.2280   35.7210 N.am      6 SEP2        0.0000 
      9 N          17.3445   31.9520   36.8715 N.am      2 SEC2        0.0000 
     10 N          17.1580   32.6280   38.2110 N.am      6 SEP2        0.0000 
     11 N          19.5585   30.0520   36.3050 N.am      2 SEC2        0.0000 
     12 N          19.7000   31.2940   36.9650 N.am     10 SEL2        0.0000 
     13 N          19.4170   28.8100   35.6450 N.am      6 SEP2        0.0000 
     14 N          19.5590   30.5570   38.1055 N.am      2 SEC2        0.0000 
     15 N          19.4180   29.8200   39.2460 N.am      6 SEP2        0.0000 
     16 N          18.4290   31.9610   37.5880 N.am      2 SEC2        0.0000 
     17 O          21.6570   31.7135   38.7170 O.2       1 ALC1        0.0000 
     18 O          21.8390   32.5980   37.8650 O.2       9 ALL1        0.0000 
     19 O          21.4750   30.8290   39.5690 O.2       5 ALP1        0.0000 
     20 CA         21.9215   34.4890   40.5320 C.3       4 GLC5        0.0000 
     21 CA         22.3300   33.4620   39.0040 C.3      12 GLL5        0.0000 
     22 CA         21.5130   35.5160   42.0600 C.3       8 GLP5        0.0000 
     23 CA         24.0215   31.1585   36.1630 C.3       4 GLC5        0.0000 
     24 CA         23.0520   32.1140   37.1080 C.3      12 GLL5        0.0000 
     25 CA         24.9910   30.2030   35.2180 C.3       8 GLP5        0.0000 
     26 CA         24.6030   33.6475   36.9535 C.3       4 GLC5        0.0000 
     27 CA         26.1540   35.1810   36.7990 C.3       8 GLP5        0.0000 
     28 O          19.0670   35.3705   38.1790 O.2       1 ALC1        0.0000 
     29 O          20.2170   35.9900   38.1410 O.2       9 ALL1        0.0000 
     30 O          17.9170   34.7510   38.2170 O.2       5 ALP1        0.0000 
     31 CA         19.0955   39.6510   39.1240 C.3       4 GLC5        0.0000 
     32 CA         19.3180   38.6220   37.4590 C.3      12 GLL5        0.0000 
     33 CA         18.8730   40.6800   40.7890 C.3       8 GLP5        0.0000 
     34 CA         20.8460   37.9805   38.6075 C.3       4 GLC5        0.0000 
     35 CA         22.3740   37.3390   39.7560 C.3       8 GLP5        0.0000 
     36 CA         22.3380   42.6010   32.3420 C.3       4 GLC5        0.0000 
     37 CA         22.2710   41.7410   34.4020 C.3      12 GLL5        0.0000 
     38 CA         22.4050   43.4610   30.2820 C.3       8 GLP5        0.0000 
     39 CA         22.5105   41.2745   31.8230 C.3       4 GLC5        0.0000 
     40 CA         22.3380   40.4740   33.8040 C.3      12 GLL5        0.0000 
     41 CA         22.6830   42.0750   29.8420 C.3       8 GLP5        0.0000 
     42 Zn         22.6855   37.1615   32.1705 Zn        3 ZIC7        0.0000 
     43 Zn         22.2050   37.9140   32.6650 Zn       11 ZIL7        0.0000 
     44 Zn         23.1660   36.4090   31.6760 Zn        7 ZIP7        0.0000 
     45 CA         20.0130   38.2320   33.4415 C.3       4 GLC5        0.0000 
     46 CA         21.3650   36.9360   34.5940 C.3      12 GLL5        0.0000 
     47 CA         18.6610   39.5280   32.2890 C.3       8 GLP5        0.0000 
     48 Zn         22.6040   35.9595   32.3190 Zn        3 ZIC7        0.0000 
     49 Zn         22.0420   35.5100   32.9620 Zn       11 ZIL7        0.0000 
     50 CA         18.6017   36.4570   35.6430 C.3       4 GLC5        0.0000 
     51 CA         20.4480   35.8840   36.7470 C.3      12 GLL5        0.0000 
     52 CA         16.5810   36.3880   34.9120 C.3       8 GLP5        0.0000 
     53 CA         17.9065   38.0030   36.2920 C.3       4 GLC5        0.0000 
     54 CA         19.9080   38.4040   36.0470 C.3      12 GLL5        0.0000 
     55 CA         16.2000   37.4930   35.8310 C.3       8 GLP5        0.0000 
     56 CA         21.7677   41.8795   37.6442 C.3       4 GLC5        0.0000 
     57 CA         20.6730   40.8590   36.0210 C.3      12 GLL5        0.0000 
     58 CA         22.4920   42.3650   39.5350 C.3       8 GLP5        0.0000 
     59 CA         20.9913   40.6188   32.7225 C.3       4 GLC5        0.0000 
     60 CA         19.6780   40.1300   31.3420 C.3       8 GLP5        0.0000 
     61 CA         19.8489   39.5920   33.7167 C.3       4 GLC5        0.0000 
     62 CA         21.5810   39.3900   34.3930 C.3      12 GLL5        0.0000 
     63 CA         21.6609   36.4600   38.0652 C.3       4 GLC5        0.0000 
@<TRIPOS>BOND
@<TRIPOS>SUBSTRUCTURE
     1 ALC1       17 GROUP        1 X    ALC  0     ROOT ALC X 1
     2 SEC2        6 GROUP        1 X    SEC  0     **** SEC X 2
     3 ZIC7       42 GROUP        1 X    ZIC  0     **** ZIC X 5
     4 GLC5        1 GROUP        1 X    GLC  0     **** GLC X 6
     5 ALP1       19 GROUP        1 Y    ALP  0     ROOT ALP Y 8
     6 SEP2        8 GROUP        1 Y    SEP  0     **** SEP Y 9
     7 ZIP7       44 GROUP        1 Y    ZIP  0     **** ZIP Y 12
     8 GLP5        3 GROUP        1 Y    GLP  0     **** GLP Y 13
     9 ALL1       18 GROUP        1 Z    ALL  0     ROOT ALL Z 15
    10 SEL2        7 GROUP        1 Z    SEL  0     **** SEL Z 16
    11 ZIL7       43 GROUP        1 Z    ZIL  0     **** ZIL Z 19
    12 GLL5        2 GROUP        1 Z    GLL  0     **** GLL Z 20
@<TRIPOS>SET

