#    Name: 2xrl_DXT_1_ligand
#    Modification time : Tue Mar 25 06:32:17 2014

@<TRIPOS>MOLECULE
2xrl_DXT_1_ligand
   55    58     1     0     0
SMALL
NO_CHARGES


@<TRIPOS>ATOM
      1 C1         19.7970   33.8880   34.4660 C.2       1 DXT1211     0.0000 
      2 O1         19.1760   34.3570   33.4350 O.2       1 DXT1211     0.0000 
      3 C2         19.3680   32.7270   35.1430 C.2       1 DXT1211     0.0000 
      4 O21        17.5310   31.2760   35.5320 O.2       1 DXT1211     0.0000 
      5 C21        18.1220   32.1360   34.8010 C.2       1 DXT1211     0.0000 
      6 N21        17.4890   32.4280   33.6570 N.am      1 DXT1211     0.0000 
      7 C3         19.9130   32.4240   36.3490 C.2       1 DXT1211     0.0000 
      8 O3         19.7000   31.2940   36.9650 O.co2     1 DXT1211     0.0000 
      9 N4         21.8390   32.5980   37.8650 N.4       1 DXT1211     0.0000 
     10 C41        22.3300   33.4620   39.0040 C.3       1 DXT1211     0.0000 
     11 C42        23.0520   32.1140   37.1080 C.3       1 DXT1211     0.0000 
     12 C5         20.4480   35.8840   36.7470 C.3       1 DXT1211     0.0000 
     13 O5         20.2170   35.9900   38.1410 O.3       1 DXT1211     0.0000 
     14 C5A        20.7970   37.1680   36.0010 C.3       1 DXT1211     0.0000 
     15 C6         19.9080   38.4040   36.0470 C.3       1 DXT1211     0.0000 
     16 C61        19.3180   38.6220   37.4590 C.3       1 DXT1211     0.0000 
     17 C6A        20.7160   39.5660   35.4940 C.ar      1 DXT1211     0.0000 
     18 C7         20.6730   40.8590   36.0210 C.ar      1 DXT1211     0.0000 
     19 C8         21.4140   41.9290   35.4860 C.ar      1 DXT1211     0.0000 
     20 C9         22.2710   41.7410   34.4020 C.ar      1 DXT1211     0.0000 
     21 C10        22.3380   40.4740   33.8040 C.ar      1 DXT1211     0.0000 
     22 O10        23.1440   40.3300   32.7120 O.3       1 DXT1211     0.0000 
     23 C6B        21.5810   39.3900   34.3930 C.ar      1 DXT1211     0.0000 
     24 O11        22.2050   37.9140   32.6650 O.2       1 DXT1211     0.0000 
     25 C5B        21.3650   36.9360   34.5940 C.2       1 DXT1211     0.0000 
     26 C12        21.5490   35.7060   34.1290 C.2       1 DXT1211     0.0000 
     27 O12        22.0420   35.5100   32.9620 O.co2     1 DXT1211     0.0000 
     28 C4B        21.1900   34.4320   34.8780 C.3       1 DXT1211     0.0000 
     29 O13        22.1460   33.4140   34.5040 O.3       1 DXT1211     0.0000 
     30 C4         20.7650   33.3720   37.1200 C.3       1 DXT1211     0.0000 
     31 C4A        21.2730   34.6360   36.3750 C.3       1 DXT1211     0.0000 
     32 C11        21.6520   38.0150   33.8100 C.2       1 DXT1211     0.0000 
     33 H          17.9470   33.0823   33.0553 H         1 DXT1211     0.0000 
     34 H          16.6151   31.9655   33.5072 H         1 DXT1211     0.0000 
     35 H          21.3591   31.7218   38.3481 H         1 DXT1211     0.0000 
     36 H          19.3756   35.5994   36.2884 H         1 DXT1211     0.0000 
     37 H          21.7962   37.5483   36.5739 H         1 DXT1211     0.0000 
     38 H          19.0723   38.2162   35.3533 H         1 DXT1211     0.0000 
     39 H          20.0640   41.0445   36.8504 H         1 DXT1211     0.0000 
     40 H          21.3178   42.8670   35.9070 H         1 DXT1211     0.0000 
     41 H          22.8393   42.5073   34.0483 H         1 DXT1211     0.0000 
     42 H          20.0816   33.7784   37.9621 H         1 DXT1211     0.0000 
     43 H          22.2986   34.8093   36.6498 H         1 DXT1211     0.0000 
     44 H          22.9245   32.9531   39.6266 H         1 DXT1211     0.0000 
     45 H          22.8540   34.2477   38.6750 H         1 DXT1211     0.0000 
     46 H          21.5735   33.8220   39.5499 H         1 DXT1211     0.0000 
     47 H          23.5858   32.8739   36.7370 H         1 DXT1211     0.0000 
     48 H          23.6658   31.5818   37.6912 H         1 DXT1211     0.0000 
     49 H          22.7997   31.5291   36.3371 H         1 DXT1211     0.0000 
     50 H          20.0343   38.7461   38.1457 H         1 DXT1211     0.0000 
     51 H          18.7330   39.4322   37.4960 H         1 DXT1211     0.0000 
     52 H          18.7615   37.8449   37.7530 H         1 DXT1211     0.0000 
     53 H          19.2224   36.0320   38.2359 H         1 DXT1211     0.0000 
     54 H          23.0233   39.3797   32.4249 H         1 DXT1211     0.0000 
     55 H          23.0153   33.8987   34.4068 H         1 DXT1211     0.0000 
@<TRIPOS>BOND
     1    2    1 2    
     2    3    1 1    
     3   28    1 1    
     4    5    3 1    
     5    7    3 2    
     6    5    4 2    
     7    6    5 am   
     8   33    6 1    
     9   34    6 1    
    10    8    7 ar   
    11   30    7 1    
    12   10    9 1    
    13   11    9 1    
    14   30    9 1    
    15   35    9 1    
    16   44   10 1    
    17   45   10 1    
    18   46   10 1    
    19   47   11 1    
    20   48   11 1    
    21   49   11 1    
    22   13   12 1    
    23   14   12 1    
    24   31   12 1    
    25   36   12 1    
    26   53   13 1    
    27   15   14 1    
    28   25   14 1    
    29   37   14 1    
    30   16   15 1    
    31   17   15 1    
    32   38   15 1    
    33   50   16 1    
    34   51   16 1    
    35   52   16 1    
    36   18   17 ar   
    37   23   17 ar   
    38   19   18 ar   
    39   39   18 1    
    40   20   19 ar   
    41   40   19 1    
    42   21   20 ar   
    43   41   20 1    
    44   22   21 1    
    45   23   21 ar   
    46   54   22 1    
    47   32   23 1    
    48   32   24 2    
    49   26   25 2    
    50   32   25 1    
    51   27   26 ar   
    52   28   26 1    
    53   29   28 1    
    54   31   28 1    
    55   55   29 1    
    56   31   30 1    
    57   42   30 1    
    58   43   31 1    
@<TRIPOS>SUBSTRUCTURE
     1 DXT1211     1 GROUP   
@<TRIPOS>SET

