#    Name: 3m2w_L8I_1_INTS_M
#    Modification time : Mon Mar 24 22:41:59 2014

@<TRIPOS>MOLECULE
3m2w_L8I_1_INTS_M
   72     0     9     0     0
SMALL
NO_CHARGES


@<TRIPOS>ATOM
      1 CA         37.3630    2.9185   15.7970 C.3       3 GLC5        0.0000 
      2 CA         35.6060    3.4560   14.9520 C.3       9 GLL5        0.0000 
      3 CA         39.1200    2.3810   16.6420 C.3       6 GLP5        0.0000 
      4 CA         37.2145    7.0430   11.8095 C.3       3 GLC5        0.0000 
      5 CA         36.2080    5.0540   11.7280 C.3       9 GLL5        0.0000 
      6 CA         38.2210    9.0320   11.8910 C.3       6 GLP5        0.0000 
      7 CA         35.4905    1.9680   11.8220 C.3       3 GLC5        0.0000 
      8 CA         34.3920    3.3180   12.9550 C.3       9 GLL5        0.0000 
      9 CA         36.5890    0.6180   10.6890 C.3       6 GLP5        0.0000 
     10 CA         37.8670    7.1545   12.8300 C.3       3 GLC5        0.0000 
     11 CA         37.5130    5.2770   13.7690 C.3       9 GLL5        0.0000 
     12 CA         39.0590    3.9575   13.2000 C.3       3 GLC5        0.0000 
     13 CA         40.6050    2.6380   12.6310 C.3       6 GLP5        0.0000 
     14 N          39.0210    4.7135   11.9080 N.am      2 SEC2        0.0000 
     15 N          38.5820    5.6040   13.0200 N.am      8 SEL2        0.0000 
     16 N          39.4600    3.8230   10.7960 N.am      5 SEP2        0.0000 
     17 CA         39.6690    5.9025   11.3765 C.3       3 GLC5        0.0000 
     18 CA         39.6670    6.1750   13.5520 C.3       9 GLL5        0.0000 
     19 CA         39.6710    5.6300    9.2010 C.3       6 GLP5        0.0000 
     20 CA         40.1360    4.4065   13.0915 C.3       3 GLC5        0.0000 
     21 CA         41.8375    6.4925   17.8970 C.3       3 GLC5        0.0000 
     22 CA         40.6590    7.9360   16.8000 C.3       9 GLL5        0.0000 
     23 CA         43.0160    5.0490   18.9940 C.3       6 GLP5        0.0000 
     24 CA         42.6185    6.7630   14.5585 C.3       3 GLC5        0.0000 
     25 CA         40.9670    7.0940   15.5330 C.3       9 GLL5        0.0000 
     26 CA         44.2700    6.4320   13.5840 C.3       6 GLP5        0.0000 
     27 CA         41.9425    5.6075   16.6525 C.3       3 GLC5        0.0000 
     28 CA         42.9180    4.1210   17.7720 C.3       6 GLP5        0.0000 
     29 O          40.1285    7.8990   22.7570 O.2       1 ALC1        0.0000 
     30 O          39.4130    8.0790   21.3760 O.2       7 ALL1        0.0000 
     31 O          40.8440    7.7190   24.1380 O.2       4 ALP1        0.0000 
     32 O          39.4640    9.0895   22.5725 O.2       1 ALC1        0.0000 
     33 O          39.5150   10.1000   23.7690 O.2       4 ALP1        0.0000 
     34 O          36.4985    3.3230   21.1045 O.2       1 ALC1        0.0000 
     35 O          36.5710    4.6780   21.4640 O.2       7 ALL1        0.0000 
     36 O          36.4260    1.9680   20.7450 O.2       4 ALP1        0.0000 
     37 CA         34.7100    6.3735   19.8360 C.3       3 GLC5        0.0000 
     38 CA         36.2040    5.9810   20.8300 C.3       9 GLL5        0.0000 
     39 CA         33.2160    6.7660   18.8420 C.3       6 GLP5        0.0000 
     40 CA         37.0490    2.7105   23.6780 C.3       3 GLC5        0.0000 
     41 CA         36.3460    4.5230   22.9320 C.3       9 GLL5        0.0000 
     42 CA         37.7520    0.8980   24.4240 C.3       6 GLP5        0.0000 
     43 N          41.1515   10.1070   20.7080 N.am      2 SEC2        0.0000 
     44 N          41.0140    8.7550   19.9850 N.am      8 SEL2        0.0000 
     45 N          41.2890   11.4590   21.4310 N.am      5 SEP2        0.0000 
     46 CA         34.6960    5.7830   13.1730 C.3       3 GLC5        0.0000 
     47 CA         36.3700    4.6900   13.0540 C.3       9 GLL5        0.0000 
     48 CA         33.1030    6.6940   13.9550 C.3       6 GLP5        0.0000 
     49 CA         38.0345    3.6915   11.8750 C.3       3 GLC5        0.0000 
     50 CA         39.7800    2.5110   11.3590 C.3       6 GLP5        0.0000 
     51 CA         36.3740    5.0832    9.9318 C.3       3 GLC5        0.0000 
     52 CA         37.0800    5.3640    8.4940 C.3       6 GLP5        0.0000 
     53 CA         33.8912    5.4028   12.6367 C.3       3 GLC5        0.0000 
     54 CA         35.1280    4.5510   11.0110 C.3       9 GLL5        0.0000 
     55 CA         35.2062    2.5853   10.4053 C.3       3 GLC5        0.0000 
     56 CA         34.2310    3.6720   11.6260 C.3       9 GLL5        0.0000 
     57 CA         35.7330    1.0590    9.4920 C.3       6 GLP5        0.0000 
     58 CA         34.0337    5.0866   13.7945 C.3       3 GLC5        0.0000 
     59 CA         38.3083    3.8957   15.5482 C.3       3 GLC5        0.0000 
     60 CA         38.9558    7.6730   13.0630 C.3       3 GLC5        0.0000 
     61 CA         39.7140    6.4530   14.9180 C.3       9 GLL5        0.0000 
     62 CA         37.0125    7.7435   15.4545 C.3       3 GLC5        0.0000 
     63 CA         38.6120    6.1180   15.7060 C.3       9 GLL5        0.0000 
     64 CA         35.9790    9.6560   15.4860 C.3       6 GLP5        0.0000 
     65 CA         39.0207    4.3696   16.4378 C.3       3 GLC5        0.0000 
     66 CA         38.6800    6.4310   17.1550 C.3       9 GLL5        0.0000 
     67 CA         41.2548    6.1685   18.6762 C.3       3 GLC5        0.0000 
     68 CA         39.3690    7.3240   19.0810 C.3       9 GLL5        0.0000 
     69 CA         41.7885    8.9105   15.7043 C.3       3 GLC5        0.0000 
     70 CA         42.7640   10.3060   15.2420 C.3       6 GLP5        0.0000 
     71 CA         37.6760    8.4913   18.0900 C.3       3 GLC5        0.0000 
     72 CA         36.3620   10.0980   17.8950 C.3       6 GLP5        0.0000 
@<TRIPOS>BOND
@<TRIPOS>SUBSTRUCTURE
     1 ALC1       29 GROUP        1 X    ALC  0     ROOT ALC X 1
     2 SEC2       14 GROUP        1 X    SEC  0     **** SEC X 2
     3 GLC5        1 GROUP        1 X    GLC  0     **** GLC X 6
     4 ALP1       31 GROUP        1 Y    ALP  0     ROOT ALP Y 8
     5 SEP2       16 GROUP        1 Y    SEP  0     **** SEP Y 9
     6 GLP5        3 GROUP        1 Y    GLP  0     **** GLP Y 13
     7 ALL1       30 GROUP        1 Z    ALL  0     ROOT ALL Z 15
     8 SEL2       15 GROUP        1 Z    SEL  0     **** SEL Z 16
     9 GLL5        2 GROUP        1 Z    GLL  0     **** GLL Z 20
@<TRIPOS>SET

