#    Name: 3m2w_L8I_1_ligand
#    Modification time : Mon Mar 24 22:41:59 2014

@<TRIPOS>MOLECULE
3m2w_L8I_1_ligand
   51    56     1     0     0
SMALL
NO_CHARGES


@<TRIPOS>ATOM
      1 F1         35.6060    3.4560   14.9520 F         1 L8I1        0.0000 
      2 C2         35.4680    3.8250   13.6740 C.ar      1 L8I1        0.0000 
      3 C3         36.3700    4.6900   13.0540 C.ar      1 L8I1        0.0000 
      4 C4         36.2080    5.0540   11.7280 C.ar      1 L8I1        0.0000 
      5 C6         35.1280    4.5510   11.0110 C.ar      1 L8I1        0.0000 
      6 C8         34.2310    3.6720   11.6260 C.ar      1 L8I1        0.0000 
      7 C10        34.3920    3.3180   12.9550 C.ar      1 L8I1        0.0000 
      8 C12        37.5130    5.2770   13.7690 C.ar      1 L8I1        0.0000 
      9 N13        38.5820    5.6040   13.0200 N.ar      1 L8I1        0.0000 
     10 C14        39.6670    6.1750   13.5520 C.ar      1 L8I1        0.0000 
     11 C16        39.7140    6.4530   14.9180 C.ar      1 L8I1        0.0000 
     12 C17        38.6120    6.1180   15.7060 C.ar      1 L8I1        0.0000 
     13 C18        37.4800    5.5440   15.1400 C.ar      1 L8I1        0.0000 
     14 C20        38.6800    6.4310   17.1550 C.2       1 L8I1        0.0000 
     15 N21        37.9170    6.0220   18.1170 N.pl3     1 L8I1        0.0000 
     16 C23        38.2930    6.5310   19.2680 C.2       1 L8I1        0.0000 
     17 C24        39.3690    7.3240   19.0810 C.2       1 L8I1        0.0000 
     18 C25        39.6180    7.2520   17.6360 C.2       1 L8I1        0.0000 
     19 C26        40.6590    7.9360   16.8000 C.3       1 L8I1        0.0000 
     20 C29        40.9670    7.0940   15.5330 C.3       1 L8I1        0.0000 
     21 C32        40.0070    8.0830   20.1680 C.2       1 L8I1        0.0000 
     22 N33        39.4130    8.0790   21.3760 N.am      1 L8I1        0.0000 
     23 C35        38.1820    7.3490   21.6740 C.3       1 L8I1        0.0000 
     24 C38        37.7020    6.3020   20.6390 C.3       1 L8I1        0.0000 
     25 C39        37.9850    4.8390   21.0540 C.3       1 L8I1        0.0000 
     26 N42        36.5710    4.6780   21.4640 N.4       1 L8I1        0.0000 
     27 C43        36.2040    5.9810   20.8300 C.3       1 L8I1        0.0000 
     28 C46        36.3460    4.5230   22.9320 C.3       1 L8I1        0.0000 
     29 O50        41.0140    8.7550   19.9850 O.2       1 L8I1        0.0000 
     30 H          36.8755    5.6872   11.2773 H         1 L8I1        0.0000 
     31 H          34.9863    4.8224   10.0313 H         1 L8I1        0.0000 
     32 H          33.4447    3.2873   11.0799 H         1 L8I1        0.0000 
     33 H          33.7226    2.6857   13.4081 H         1 L8I1        0.0000 
     34 H          40.4898    6.4221   12.9695 H         1 L8I1        0.0000 
     35 H          36.6652    5.3274   15.6940 H         1 L8I1        0.0000 
     36 H          37.1408    5.4004   18.0094 H         1 L8I1        0.0000 
     37 H          41.5804    8.0530   17.3641 H         1 L8I1        0.0000 
     38 H          40.3069    8.9138   16.4825 H         1 L8I1        0.0000 
     39 H          41.4419    7.7427   14.7899 H         1 L8I1        0.0000 
     40 H          41.6796    6.3074   15.8015 H         1 L8I1        0.0000 
     41 H          39.8212    8.6173   22.1824 H         1 L8I1        0.0000 
     42 H          37.3317    8.0672   21.8308 H         1 L8I1        0.0000 
     43 H          38.2742    6.8161   22.6593 H         1 L8I1        0.0000 
     44 H          38.6098    4.8397   21.8563 H         1 L8I1        0.0000 
     45 H          38.1975    4.2961   20.2209 H         1 L8I1        0.0000 
     46 H          36.1560    3.9036   20.8677 H         1 L8I1        0.0000 
     47 H          35.7760    5.8387   19.9216 H         1 L8I1        0.0000 
     48 H          35.8109    6.6218   21.5108 H         1 L8I1        0.0000 
     49 H          36.8159    3.7192   23.2969 H         1 L8I1        0.0000 
     50 H          36.6787    5.3147   23.4444 H         1 L8I1        0.0000 
     51 H          35.3756    4.4194   23.1501 H         1 L8I1        0.0000 
@<TRIPOS>BOND
     1    2    1 1    
     2    3    2 ar   
     3    7    2 ar   
     4    4    3 ar   
     5    8    3 1    
     6    5    4 ar   
     7   30    4 1    
     8    6    5 ar   
     9   31    5 1    
    10    7    6 ar   
    11   32    6 1    
    12   33    7 1    
    13    9    8 ar   
    14   13    8 ar   
    15   10    9 ar   
    16   11   10 ar   
    17   34   10 1    
    18   12   11 ar   
    19   20   11 1    
    20   13   12 ar   
    21   14   12 1    
    22   35   13 1    
    23   15   14 1    
    24   18   14 2    
    25   16   15 1    
    26   36   15 1    
    27   17   16 2    
    28   24   16 1    
    29   18   17 1    
    30   21   17 1    
    31   19   18 1    
    32   20   19 1    
    33   37   19 1    
    34   38   19 1    
    35   39   20 1    
    36   40   20 1    
    37   22   21 am   
    38   29   21 2    
    39   23   22 1    
    40   41   22 1    
    41   24   23 1    
    42   42   23 1    
    43   43   23 1    
    44   25   24 1    
    45   27   24 1    
    46   26   25 1    
    47   44   25 1    
    48   45   25 1    
    49   27   26 1    
    50   28   26 1    
    51   46   26 1    
    52   47   27 1    
    53   48   27 1    
    54   49   28 1    
    55   50   28 1    
    56   51   28 1    
@<TRIPOS>SUBSTRUCTURE
     1 L8I1        1 GROUP   
@<TRIPOS>SET

