#    Name: 1CLQ_1_CAVITY_N1_ALL.mol2
#    Modification time : Mon Mar 10 16:51:11 2014

@<TRIPOS>MOLECULE
1CLQ_1_CAVITY_N1_ALL.mol2
   76     0     7     0     0
SMALL
NO_CHARGES


@<TRIPOS>ATOM
      1 OD1        58.5743  -10.1210   35.7507 O.3       3 ASP3        0.0000 
      2 CA         57.9956  -10.7615   36.9774 C.3       6 GLY6        0.0000 
      3 N          57.9016   -9.8062   33.7636 N.2       2 ALA2        0.0000 
      4 CA         57.3230  -10.4467   34.9903 C.3       6 GLY6        0.0000 
      5 CA         56.7443  -11.0873   36.2171 C.3       6 GLY6        0.0000 
      6 NZ         56.1657  -11.7278   37.4438 N.2       4 LYS4        0.0000 
      7 NZ         55.5870  -12.3684   38.6705 N.2       4 LYS4        0.0000 
      8 N          56.6503  -10.1319   33.0033 N.2       2 ALA2        0.0000 
      9 CA         56.0716  -10.7724   34.2300 C.3       6 GLY6        0.0000 
     10 CA         55.4930  -11.4130   35.4567 C.3       6 GLY6        0.0000 
     11 NZ         54.9144  -12.0535   36.6834 N.2       4 LYS4        0.0000 
     12 NZ         54.3357  -12.6941   37.9102 N.2       4 LYS4        0.0000 
     13 CZ         55.3990  -10.4576   32.2429 C.ar      5 PHE5        0.0000 
     14 CZ         54.8203  -11.0982   33.4697 C.ar      5 PHE5        0.0000 
     15 DU         54.2417  -11.7387   34.6964 H         7 CUB7        0.0000 
     16 DU         53.6630  -12.3793   35.9231 H         7 CUB7        0.0000 
     17 OG         53.0844  -13.0198   37.1498 O.2       1 SER1        0.0000 
     18 OG         52.5057  -13.6604   38.3766 O.2       1 SER1        0.0000 
     19 CZ         54.1477  -10.7833   31.4826 C.ar      5 PHE5        0.0000 
     20 CZ         53.5690  -11.4239   32.7093 C.ar      5 PHE5        0.0000 
     21 CZ         52.9904  -12.0644   33.9361 C.ar      5 PHE5        0.0000 
     22 CA         52.4117  -12.7050   35.1628 C.3       6 GLY6        0.0000 
     23 CA         51.8331  -13.3455   36.3895 C.3       6 GLY6        0.0000 
     24 CZ         51.1604  -13.0307   34.4025 C.ar      5 PHE5        0.0000 
     25 CA         55.5054  -13.3702   36.2747 C.3       6 GLY6        0.0000 
     26 CA         55.9900  -11.7743   31.8342 C.3       6 GLY6        0.0000 
     27 CA         55.4114  -12.4148   33.0610 C.3       6 GLY6        0.0000 
     28 CA         54.8328  -13.0554   34.2877 C.3       6 GLY6        0.0000 
     29 CA         54.2541  -13.6959   35.5144 C.3       6 GLY6        0.0000 
     30 NZ         53.6755  -14.3365   36.7411 N.2       4 LYS4        0.0000 
     31 N          54.7387  -12.1000   31.0739 N.2       2 ALA2        0.0000 
     32 CZ         54.1601  -12.7405   32.3006 C.ar      5 PHE5        0.0000 
     33 CZ         53.5814  -13.3811   33.5274 C.ar      5 PHE5        0.0000 
     34 DU         53.0028  -14.0217   34.7541 H         7 CUB7        0.0000 
     35 N          52.4241  -14.6622   35.9808 N.2       2 ALA2        0.0000 
     36 OG         51.8455  -15.3028   37.2075 O.2       1 SER1        0.0000 
     37 N          53.4874  -12.4257   30.3136 N.2       2 ALA2        0.0000 
     38 CZ         52.9088  -13.0663   31.5403 C.ar      5 PHE5        0.0000 
     39 CZ         52.3301  -13.7068   32.7670 C.ar      5 PHE5        0.0000 
     40 N          51.7515  -14.3474   33.9938 N.2       2 ALA2        0.0000 
     41 N          50.5001  -14.6731   33.2334 N.2       2 ALA2        0.0000 
     42 CA         56.0025  -13.7315   32.6523 C.3       6 GLY6        0.0000 
     43 CA         55.4238  -14.3720   33.8790 C.3       6 GLY6        0.0000 
     44 CA         54.2665  -15.6531   36.3324 C.3       6 GLY6        0.0000 
     45 N          55.3298  -13.4166   30.6652 N.2       2 ALA2        0.0000 
     46 CZ         54.7512  -14.0572   31.8919 C.ar      5 PHE5        0.0000 
     47 CZ         53.5939  -15.3383   34.3454 C.ar      5 PHE5        0.0000 
     48 CA         53.0152  -15.9789   35.5721 C.3       6 GLY6        0.0000 
     49 CA         52.4366  -16.6194   36.7988 C.3       6 GLY6        0.0000 
     50 N          54.0785  -13.7424   29.9049 N.2       2 ALA2        0.0000 
     51 CZ         53.4998  -14.3829   31.1316 C.ar      5 PHE5        0.0000 
     52 CZ         52.9212  -15.0235   32.3583 C.ar      5 PHE5        0.0000 
     53 O          52.3425  -15.6640   33.5850 O.2       2 ALA2        0.0000 
     54 N          51.7639  -16.3046   34.8118 N.2       2 ALA2        0.0000 
     55 N          51.1852  -16.9451   36.0385 N.2       2 ALA2        0.0000 
     56 CA         52.2485  -14.7087   30.3713 C.3       6 GLY6        0.0000 
     57 O          51.6699  -15.3492   31.5980 O.2       2 ALA2        0.0000 
     58 O          51.0912  -15.9898   32.8247 O.2       2 ALA2        0.0000 
     59 N          56.7195   -7.1728   34.5810 N.2       2 ALA2        0.0000 
     60 OG         54.3109   -8.7797   36.2741 O.2       1 SER1        0.0000 
     61 OD1        53.7322   -9.4202   37.5009 O.3       3 ASP3        0.0000 
     62 N          57.3105   -8.4895   34.1723 N.2       2 ALA2        0.0000 
     63 DU         56.7319   -9.1301   35.3990 H         7 CUB7        0.0000 
     64 DU         56.1532   -9.7706   36.6258 H         7 CUB7        0.0000 
     65 DU         55.5746  -10.4112   37.8525 H         7 CUB7        0.0000 
     66 CZ         56.0592   -8.8152   33.4120 C.ar      5 PHE5        0.0000 
     67 OG         55.4806   -9.4558   34.6387 O.2       1 SER1        0.0000 
     68 OG         54.9019  -10.0963   35.8654 O.2       1 SER1        0.0000 
     69 O          54.3233  -10.7369   37.0922 O.2       2 ALA2        0.0000 
     70 O          53.7446  -11.3774   38.3189 O.2       2 ALA2        0.0000 
     71 O          53.1660  -12.0180   39.5456 O.2       2 ALA2        0.0000 
     72 CZ         54.2293   -9.7815   33.8784 C.ar      5 PHE5        0.0000 
     73 OG         53.6506  -10.4221   35.1051 O.2       1 SER1        0.0000 
     74 O          53.0720  -11.0626   36.3318 O.2       2 ALA2        0.0000 
     75 OG         52.4933  -11.7032   37.5586 O.2       1 SER1        0.0000 
     76 CA         51.8206  -11.3883   35.5715 C.3       6 GLY6        0.0000 
@<TRIPOS>BOND
@<TRIPOS>SUBSTRUCTURE
     1 SER1       17 GROUP   
     2 ALA2        3 GROUP   
     3 ASP3        1 GROUP   
     4 LYS4        6 GROUP   
     5 PHE5       13 GROUP   
     6 GLY6        2 GROUP   
     7 CUB7       15 GROUP   
@<TRIPOS>SET

