#    Name: 1clq_GDP_1_INTS_M
#    Modification time : Mon Mar 24 20:48:55 2014

@<TRIPOS>MOLECULE
1clq_GDP_1_INTS_M
   44     0    12     0     0
SMALL
NO_CHARGES


@<TRIPOS>ATOM
      1 NZ         56.2410   -4.3285   35.2930 N.4       3 LYC4        0.0000 
      2 NZ         56.5990   -5.3170   35.6900 N.4      11 LYL4        0.0000 
      3 NZ         55.8830   -3.3400   34.8960 N.4       7 LYP4        0.0000 
      4 NZ         55.6435   -4.3450   36.4410 N.4       3 LYC4        0.0000 
      5 NZ         55.4040   -5.3500   37.9860 N.4      11 LYL4        0.0000 
      6 N          54.4890   -7.1805   35.5580 N.am      2 SEC2        0.0000 
      7 N          55.5770   -7.4550   36.4650 N.am     10 SEL2        0.0000 
      8 N          53.4010   -6.9060   34.6510 N.am      6 SEP2        0.0000 
      9 N          54.1180   -8.3250   35.2955 N.am      2 SEC2        0.0000 
     10 N          54.8350   -9.7440   35.9400 N.am     10 SEL2        0.0000 
     11 CA         56.4815  -12.5145   35.7800 C.3       4 GLC5        0.0000 
     12 CA         54.7980  -11.1830   35.9600 C.3      12 GLL5        0.0000 
     13 CA         58.1650  -13.8460   35.6000 C.3       8 GLP5        0.0000 
     14 N          51.2045  -12.5770   38.0780 N.am      2 SEC2        0.0000 
     15 N          52.5830  -13.2230   38.1260 N.am     10 SEL2        0.0000 
     16 N          49.8260  -11.9310   38.0300 N.am      6 SEP2        0.0000 
     17 CA         55.9775  -14.0460   35.8795 C.3       4 GLC5        0.0000 
     18 CA         53.7900  -14.2460   36.1590 C.3      12 GLL5        0.0000 
     19 O          53.3685  -16.2390   38.0650 O.2       1 ALC1        0.0000 
     20 O          53.6280  -15.6150   36.5490 O.2       9 ALL1        0.0000 
     21 O          53.1090  -16.8630   39.5810 O.2       5 ALP1        0.0000 
     22 CA         51.0365  -13.0910   36.0125 C.3       4 GLC5        0.0000 
     23 CA         52.6300  -13.7750   35.2710 C.3      12 GLL5        0.0000 
     24 CA         49.4430  -12.4070   36.7540 C.3       8 GLP5        0.0000 
     25 CA         51.6030  -12.8820   33.7125 C.3       4 GLC5        0.0000 
     26 CA         50.5760  -11.9890   32.1540 C.3       8 GLP5        0.0000 
     27 N          51.4205  -16.8325   31.7530 N.am      2 SEC2        0.0000 
     28 N          51.8630  -15.7360   32.4120 N.am     10 SEL2        0.0000 
     29 N          50.9780  -17.9290   31.0940 N.am      6 SEP2        0.0000 
     30 CA         51.1820  -15.5685   30.8265 C.3       4 GLC5        0.0000 
     31 CA         52.6280  -14.8760   31.7430 C.3      12 GLL5        0.0000 
     32 CA         49.7360  -16.2610   29.9100 C.3       8 GLP5        0.0000 
     33 CA         52.6645  -17.0140   32.0260 C.3       4 GLC5        0.0000 
     34 CA         52.7010  -19.1520   32.3090 C.3       8 GLP5        0.0000 
     35 N          52.9365  -15.1110   28.0310 N.am      2 SEC2        0.0000 
     36 N          52.8240  -15.3020   29.4110 N.am     10 SEL2        0.0000 
     37 N          53.0490  -14.9200   26.6510 N.am      6 SEP2        0.0000 
     38 O          54.6935  -12.7530   29.3210 O.2       1 ALC1        0.0000 
     39 O          53.9890  -13.4820   30.2570 O.2       9 ALL1        0.0000 
     40 O          55.3980  -12.0240   28.3850 O.2       5 ALP1        0.0000 
     41 O          55.2790  -11.8455   29.7040 O.2       1 ALC1        0.0000 
     42 O          55.1600  -11.6670   31.0230 O.2       9 ALL1        0.0000 
     43 CA         51.5580  -12.4255   36.7873 C.3       4 GLC5        0.0000 
     44 CA         53.5690  -11.7850   36.4080 C.3      12 GLL5        0.0000 
@<TRIPOS>BOND
@<TRIPOS>SUBSTRUCTURE
     1 ALC1       19 GROUP        1 X    ALC  0     ROOT ALC X 1
     2 SEC2        6 GROUP        1 X    SEC  0     **** SEC X 2
     3 LYC4        1 GROUP        1 X    LYC  0     **** LYC X 4
     4 GLC5       11 GROUP        1 X    GLC  0     **** GLC X 6
     5 ALP1       21 GROUP        1 Y    ALP  0     ROOT ALP Y 8
     6 SEP2        8 GROUP        1 Y    SEP  0     **** SEP Y 9
     7 LYP4        3 GROUP        1 Y    LYP  0     **** LYP Y 11
     8 GLP5       13 GROUP        1 Y    GLP  0     **** GLP Y 13
     9 ALL1       20 GROUP        1 Z    ALL  0     ROOT ALL Z 15
    10 SEL2        7 GROUP        1 Z    SEL  0     **** SEL Z 16
    11 LYL4        2 GROUP        1 Z    LYL  0     **** LYL Z 18
    12 GLL5       12 GROUP        1 Z    GLL  0     **** GLL Z 20
@<TRIPOS>SET

