#    Name: 1clq_GDP_1_ligand
#    Modification time : Mon Mar 24 20:48:56 2014

@<TRIPOS>MOLECULE
1clq_GDP_1_ligand
   40    42     1     0     0
SMALL
NO_CHARGES


@<TRIPOS>ATOM
      1 PB         56.3770   -6.1580   36.9280 P.3       1 GDP999      0.0000 
      2 O1B        56.5990   -5.3170   35.6900 O.co2     1 GDP999      0.0000 
      3 O2B        57.5650   -6.6760   37.4930 O.co2     1 GDP999      0.0000 
      4 O3B        55.4040   -5.3500   37.9860 O.co2     1 GDP999      0.0000 
      5 O3A        55.5770   -7.4550   36.4650 O.3       1 GDP999      0.0000 
      6 PA         56.0370   -9.0630   36.5760 P.3       1 GDP999      0.0000 
      7 O1A        57.2450   -9.3170   35.6750 O.co2     1 GDP999      0.0000 
      8 O2A        56.2600   -9.3200   38.0530 O.co2     1 GDP999      0.0000 
      9 O5'        54.8350   -9.7440   35.9400 O.3       1 GDP999      0.0000 
     10 C5'        54.7980  -11.1830   35.9600 C.3       1 GDP999      0.0000 
     11 C4'        53.5690  -11.7850   36.4080 C.3       1 GDP999      0.0000 
     12 O4'        52.8590  -12.2960   35.1760 O.3       1 GDP999      0.0000 
     13 C3'        53.7770  -13.1030   37.2330 C.3       1 GDP999      0.0000 
     14 O3'        52.5830  -13.2230   38.1260 O.3       1 GDP999      0.0000 
     15 C2'        53.7900  -14.2460   36.1590 C.3       1 GDP999      0.0000 
     16 O2'        53.6280  -15.6150   36.5490 O.3       1 GDP999      0.0000 
     17 C1'        52.6300  -13.7750   35.2710 C.3       1 GDP999      0.0000 
     18 N9         52.5150  -14.3740   33.9150 N.pl3     1 GDP999      0.0000 
     19 C8         51.6540  -15.5880   33.7800 C.2       1 GDP999      0.0000 
     20 N7         51.8630  -15.7360   32.4120 N.2       1 GDP999      0.0000 
     21 C5         52.6280  -14.8760   31.7430 C.2       1 GDP999      0.0000 
     22 C6         53.1800  -14.5370   30.4660 C.2       1 GDP999      0.0000 
     23 O6         52.8240  -15.3020   29.4110 O.2       1 GDP999      0.0000 
     24 N1         53.9890  -13.4820   30.2570 N.am      1 GDP999      0.0000 
     25 C2         54.3740  -12.6390   31.4290 C.2       1 GDP999      0.0000 
     26 N2         55.1600  -11.6670   31.0230 N.pl3     1 GDP999      0.0000 
     27 N3         53.9210  -12.8950   32.5950 N.2       1 GDP999      0.0000 
     28 C4         53.1260  -13.9620   32.7800 C.2       1 GDP999      0.0000 
     29 H          55.6531  -11.5681   36.5943 H         1 GDP999      0.0000 
     30 H          55.0495  -11.5757   34.9283 H         1 GDP999      0.0000 
     31 H          52.9317  -11.1543   36.9307 H         1 GDP999      0.0000 
     32 H          54.6667  -13.0580   37.7305 H         1 GDP999      0.0000 
     33 H          54.6865  -14.0683   35.5513 H         1 GDP999      0.0000 
     34 H          51.7103  -13.9117   35.8386 H         1 GDP999      0.0000 
     35 H          51.2177  -15.9923   34.3788 H         1 GDP999      0.0000 
     36 H          54.3619  -13.2106   29.3594 H         1 GDP999      0.0000 
     37 H          55.7135  -11.8581   30.2123 H         1 GDP999      0.0000 
     38 H          55.1328  -10.8250   31.5618 H         1 GDP999      0.0000 
     39 H          52.0420  -13.9681   37.7359 H         1 GDP999      0.0000 
     40 H          53.4473  -15.5843   37.5321 H         1 GDP999      0.0000 
@<TRIPOS>BOND
     1    2    1 ar   
     2    3    1 ar   
     3    4    1 ar   
     4    5    1 1    
     5    6    5 1    
     6    7    6 ar   
     7    8    6 ar   
     8    9    6 1    
     9   10    9 1    
    10   11   10 1    
    11   29   10 1    
    12   30   10 1    
    13   12   11 1    
    14   13   11 1    
    15   31   11 1    
    16   17   12 1    
    17   14   13 1    
    18   15   13 1    
    19   32   13 1    
    20   39   14 1    
    21   16   15 1    
    22   17   15 1    
    23   33   15 1    
    24   40   16 1    
    25   18   17 1    
    26   34   17 1    
    27   19   18 1    
    28   28   18 1    
    29   20   19 2    
    30   35   19 1    
    31   21   20 1    
    32   22   21 1    
    33   28   21 2    
    34   23   22 2    
    35   24   22 am   
    36   25   24 1    
    37   36   24 1    
    38   26   25 1    
    39   27   25 2    
    40   37   26 1    
    41   38   26 1    
    42   28   27 1    
@<TRIPOS>SUBSTRUCTURE
     1 GDP999      1 GROUP   
@<TRIPOS>SET

