#    Name: 2jfa_RAL_2_INTS_M
#    Modification time : Tue Mar 25 20:39:34 2014

@<TRIPOS>MOLECULE
2jfa_RAL_2_INTS_M
   85     0    12     0     0
SMALL
NO_CHARGES


@<TRIPOS>ATOM
      1 CA        -46.6865   11.0335    3.4535 C.3       4 GLC5        0.0000 
      2 CA        -47.3200   11.5590    5.1700 C.3      12 GLL5        0.0000 
      3 CA        -46.0530   10.5080    1.7370 C.3       8 GLP5        0.0000 
      4 CA        -49.2605    9.4500    5.7140 C.3       4 GLC5        0.0000 
      5 CA        -48.6770   11.3860    4.9340 C.3      12 GLL5        0.0000 
      6 CA        -49.8440    7.5140    6.4940 C.3       8 GLP5        0.0000 
      7 CA        -47.9705   10.4960    3.1875 C.3       4 GLC5        0.0000 
      8 CA        -47.2640    9.6060    1.4410 C.3       8 GLP5        0.0000 
      9 CA        -48.3455   12.5285    3.0560 C.3       4 GLC5        0.0000 
     10 CA        -48.0140   13.6710    1.1780 C.3       8 GLP5        0.0000 
     11 N         -52.0400   11.8235    5.7935 N.am      2 SEC2        0.0000 
     12 N         -50.9040   12.1650    4.9290 N.am     10 SEL2        0.0000 
     13 N         -53.1760   11.4820    6.6580 N.am      6 SEP2        0.0000 
     14 O         -51.1390   11.2415    4.1670 O.2       1 ALC1        0.0000 
     15 O         -50.9040   12.1650    4.9290 O.2       9 ALL1        0.0000 
     16 O         -51.3740   10.3180    3.4050 O.2       5 ALP1        0.0000 
     17 CA        -47.7435   17.1025    5.8925 C.3       4 GLC5        0.0000 
     18 CA        -47.1590   15.2780    6.4850 C.3      12 GLL5        0.0000 
     19 CA        -48.3280   18.9270    5.3000 C.3       8 GLP5        0.0000 
     20 CA        -48.5065   15.2645    7.8965 C.3       4 GLC5        0.0000 
     21 CA        -49.8540   15.2510    9.3080 C.3       8 GLP5        0.0000 
     22 CA        -41.5725   14.9945    5.0225 C.3       4 GLC5        0.0000 
     23 CA        -43.3300   15.6020    6.0860 C.3      12 GLL5        0.0000 
     24 CA        -39.8150   14.3870    3.9590 C.3       8 GLP5        0.0000 
     25 CA        -41.0665   16.0605    4.8380 C.3       4 GLC5        0.0000 
     26 CA        -42.2260   16.3840    6.4140 C.3      12 GLL5        0.0000 
     27 CA        -39.9070   15.7370    3.2620 C.3       8 GLP5        0.0000 
     28 N         -39.8135   17.4555    8.0010 N.am      2 SEC2        0.0000 
     29 N         -41.0690   17.8220    7.8440 N.am     10 SEL2        0.0000 
     30 N         -38.5580   17.0890    8.1580 N.am      6 SEP2        0.0000 
     31 CA        -41.2700    9.0950    0.7830 C.3       4 GLC5        0.0000 
     32 CA        -41.2760   11.0990    0.2130 C.3      12 GLL5        0.0000 
     33 CA        -41.2640    7.0910    1.3530 C.3       8 GLP5        0.0000 
     34 OD1       -42.8495    9.7905   -1.9995 O.co2     3 ASC3        0.0000 
     35 OD1       -41.9120   10.8090   -2.1740 O.co2    11 ASL3        0.0000 
     36 OD1       -43.7870    8.7720   -1.8250 O.co2     7 ASP3        0.0000 
     37 O         -42.8495    9.7905   -1.9995 O.2       1 ALC1        0.0000 
     38 O         -41.9120   10.8090   -2.1740 O.2       9 ALL1        0.0000 
     39 O         -43.7870    8.7720   -1.8250 O.2       5 ALP1        0.0000 
     40 CA        -49.1760   14.4972    7.5530 C.3       4 GLC5        0.0000 
     41 CA        -49.1720   13.6400    5.6840 C.3      12 GLL5        0.0000 
     42 CA        -49.1638   14.3220    3.8939 C.3       4 GLC5        0.0000 
     43 CA        -47.8240   13.8470    5.9120 C.3      12 GLL5        0.0000 
     44 CA        -49.7250   15.2100    2.1140 C.3       8 GLP5        0.0000 
     45 CA        -43.1088   15.0337    8.0780 C.3       4 GLC5        0.0000 
     46 CA        -44.4250   15.5110    6.9080 C.3      12 GLL5        0.0000 
     47 CA        -42.3400   14.5110    9.6590 C.3       8 GLP5        0.0000 
     48 CA        -42.2737   15.6240    8.3320 C.3       4 GLC5        0.0000 
     49 CA        -42.1890   17.0900    7.5960 C.3      12 GLL5        0.0000 
     50 CA        -41.8432   18.5560    5.9475 C.3       4 GLC5        0.0000 
     51 CA        -41.4790   20.3750    4.8900 C.3       8 GLP5        0.0000 
     52 CA        -43.0930   15.5648    8.9710 C.3       4 GLC5        0.0000 
     53 CA        -43.2910   17.0200    8.4580 C.3      12 GLL5        0.0000 
     54 CA        -45.5665   17.3693    9.2095 C.3       4 GLC5        0.0000 
     55 CA        -47.2870   18.1200   10.1360 C.3       8 GLP5        0.0000 
     56 CA        -43.6613   18.4685    8.6543 C.3       4 GLC5        0.0000 
     57 CA        -44.4010   16.2170    8.1080 C.3      12 GLL5        0.0000 
     58 CA        -43.7520   20.3010    9.2410 C.3       8 GLP5        0.0000 
     59 CA        -43.6740   10.4390    5.8342 C.3       4 GLC5        0.0000 
     60 CA        -43.7900   12.3510    4.4360 C.3      12 GLL5        0.0000 
     61 CA        -44.0590    8.9850    7.3620 C.3       8 GLP5        0.0000 
     62 CA        -45.0315   11.6387    2.8302 C.3       4 GLC5        0.0000 
     63 CA        -44.8478   15.1095    2.5528 C.3       4 GLC5        0.0000 
     64 CA        -44.2300   13.1880    3.4110 C.3      12 GLL5        0.0000 
     65 CA        -45.7370   17.0680    2.3320 C.3       8 GLP5        0.0000 
     66 CA        -45.9862   13.4110    1.9758 C.3       4 GLC5        0.0000 
     67 CA        -44.6185   11.5825    1.8702 C.3       4 GLC5        0.0000 
     68 CA        -43.6870   13.1140    2.1360 C.3      12 GLL5        0.0000 
     69 CA        -42.2139   14.2292    2.3266 C.3       4 GLC5        0.0000 
     70 CA        -42.6810   12.2000    1.8710 C.3      12 GLL5        0.0000 
     71 CA        -41.1080   15.7830    2.3310 C.3       8 GLP5        0.0000 
     72 CA        -41.1807   11.1880    4.9497 C.3       4 GLC5        0.0000 
     73 CA        -42.2390   11.3510    2.9020 C.3      12 GLL5        0.0000 
     74 CA        -39.8480   10.9830    6.3600 C.3       8 GLP5        0.0000 
     75 CA        -42.7248    9.4840    3.3617 C.3       4 GLC5        0.0000 
     76 CA        -42.7880   11.4350    4.1770 C.3      12 GLL5        0.0000 
     77 CA        -42.9360    7.5750    3.1840 C.3       8 GLP5        0.0000 
     78 CA        -44.2832   10.9505    2.6383 C.3       4 GLC5        0.0000 
     79 CA        -41.2895   13.0045    3.7816 C.3       4 GLC5        0.0000 
     80 CA        -43.5945   13.5903   -2.0815 C.3       4 GLC5        0.0000 
     81 CA        -42.8910   11.9200   -2.2130 C.3      12 GLL5        0.0000 
     82 CA        -43.8570   15.2410   -1.3280 C.3       8 GLP5        0.0000 
     83 CA        -45.0113   11.7215   -4.8153 C.3       4 GLC5        0.0000 
     84 CA        -43.7730   11.9590   -3.4570 C.3      12 GLL5        0.0000 
     85 CA        -46.6640   11.5630   -5.5410 C.3       8 GLP5        0.0000 
@<TRIPOS>BOND
@<TRIPOS>SUBSTRUCTURE
     1 ALC1       14 GROUP        1 X    ALC  0     ROOT ALC X 1
     2 SEC2       11 GROUP        1 X    SEC  0     **** SEC X 2
     3 ASC3       34 GROUP        1 X    ASC  0     **** ASC X 3
     4 GLC5        1 GROUP        1 X    GLC  0     **** GLC X 6
     5 ALP1       16 GROUP        1 Y    ALP  0     ROOT ALP Y 8
     6 SEP2       13 GROUP        1 Y    SEP  0     **** SEP Y 9
     7 ASP3       36 GROUP        1 Y    ASP  0     **** ASP Y 10
     8 GLP5        3 GROUP        1 Y    GLP  0     **** GLP Y 13
     9 ALL1       15 GROUP        1 Z    ALL  0     ROOT ALL Z 15
    10 SEL2       12 GROUP        1 Z    SEL  0     **** SEL Z 16
    11 ASL3       35 GROUP        1 Z    ASL  0     **** ASL Z 17
    12 GLL5        2 GROUP        1 Z    GLL  0     **** GLL Z 20
@<TRIPOS>SET

