#    Name: 2jfa_RAL_2_ligand
#    Modification time : Tue Mar 25 20:39:35 2014

@<TRIPOS>MOLECULE
2jfa_RAL_2_ligand
   62    66     1     0     0
SMALL
NO_CHARGES


@<TRIPOS>ATOM
      1 C1        -47.3200   11.5590    5.1700 C.ar      1 RAL600      0.0000 
      2 C2        -48.6770   11.3860    4.9340 C.ar      1 RAL600      0.0000 
      3 C3        -49.5900   12.4020    5.1870 C.ar      1 RAL600      0.0000 
      4 O3        -50.9040   12.1650    4.9290 O.3       1 RAL600      0.0000 
      5 C4        -49.1720   13.6400    5.6840 C.ar      1 RAL600      0.0000 
      6 C5        -47.8240   13.8470    5.9120 C.ar      1 RAL600      0.0000 
      7 S6        -47.1590   15.2780    6.4850 S.3       1 RAL600      0.0000 
      8 C7        -45.5570   14.6480    6.4700 C.2       1 RAL600      0.0000 
      9 C8        -44.4250   15.5110    6.9080 C.ar      1 RAL600      0.0000 
     10 C9        -43.3300   15.6020    6.0860 C.ar      1 RAL600      0.0000 
     11 C10       -42.2260   16.3840    6.4140 C.ar      1 RAL600      0.0000 
     12 C11       -42.1890   17.0900    7.5960 C.ar      1 RAL600      0.0000 
     13 O11       -41.0690   17.8220    7.8440 O.3       1 RAL600      0.0000 
     14 C12       -43.2910   17.0200    8.4580 C.ar      1 RAL600      0.0000 
     15 C13       -44.4010   16.2170    8.1080 C.ar      1 RAL600      0.0000 
     16 C14       -46.8900   12.7630    5.6530 C.ar      1 RAL600      0.0000 
     17 C15       -45.5790   13.2900    5.9940 C.2       1 RAL600      0.0000 
     18 C16       -44.3850   12.4790    5.8090 C.2       1 RAL600      0.0000 
     19 O16       -43.8760   11.9940    6.7850 O.2       1 RAL600      0.0000 
     20 C17       -43.7900   12.3510    4.4360 C.ar      1 RAL600      0.0000 
     21 C18       -44.2300   13.1880    3.4110 C.ar      1 RAL600      0.0000 
     22 C19       -43.6870   13.1140    2.1360 C.ar      1 RAL600      0.0000 
     23 C20       -42.6810   12.2000    1.8710 C.ar      1 RAL600      0.0000 
     24 C21       -42.2390   11.3510    2.9020 C.ar      1 RAL600      0.0000 
     25 C22       -42.7880   11.4350    4.1770 C.ar      1 RAL600      0.0000 
     26 O23       -42.1670   12.1540    0.6020 O.3       1 RAL600      0.0000 
     27 C24       -41.2760   11.0990    0.2130 C.3       1 RAL600      0.0000 
     28 C25       -40.8240   11.1530   -1.2390 C.3       1 RAL600      0.0000 
     29 N26       -41.9120   10.8090   -2.1740 N.4       1 RAL600      0.0000 
     30 C27       -42.8910   11.9200   -2.2130 C.3       1 RAL600      0.0000 
     31 C28       -43.7730   11.9590   -3.4570 C.3       1 RAL600      0.0000 
     32 C29       -42.9440   11.8010   -4.7220 C.3       1 RAL600      0.0000 
     33 C30       -42.2580   10.4580   -4.6090 C.3       1 RAL600      0.0000 
     34 C31       -41.2570   10.5560   -3.4710 C.3       1 RAL600      0.0000 
     35 H         -46.6648   10.7965    4.9834 H         1 RAL600      0.0000 
     36 H         -49.0171   10.4786    4.5607 H         1 RAL600      0.0000 
     37 H         -49.8554   14.3738    5.8730 H         1 RAL600      0.0000 
     38 H         -43.3162   15.0722    5.1858 H         1 RAL600      0.0000 
     39 H         -41.4266   16.4312    5.7574 H         1 RAL600      0.0000 
     40 H         -43.2984   17.5425    9.3336 H         1 RAL600      0.0000 
     41 H         -45.1999   16.1595    8.7573 H         1 RAL600      0.0000 
     42 H         -44.9783   13.8788    3.6085 H         1 RAL600      0.0000 
     43 H         -44.0307   13.7350    1.3930 H         1 RAL600      0.0000 
     44 H         -41.4993   10.6610    2.7030 H         1 RAL600      0.0000 
     45 H         -42.4463   10.8148    4.9233 H         1 RAL600      0.0000 
     46 H         -41.7452   10.0995    0.3807 H         1 RAL600      0.0000 
     47 H         -40.3584   11.0979    0.8495 H         1 RAL600      0.0000 
     48 H         -39.9783   10.4593   -1.3661 H         1 RAL600      0.0000 
     49 H         -40.4471   12.1662   -1.4486 H         1 RAL600      0.0000 
     50 H         -42.3854    9.9051   -1.8269 H         1 RAL600      0.0000 
     51 H         -42.3593   12.8941   -2.1360 H         1 RAL600      0.0000 
     52 H         -43.5540   11.8700   -1.3211 H         1 RAL600      0.0000 
     53 H         -44.3048   12.9112   -3.4895 H         1 RAL600      0.0000 
     54 H         -44.5062   11.1528   -3.4019 H         1 RAL600      0.0000 
     55 H         -42.2120   12.5824   -4.7722 H         1 RAL600      0.0000 
     56 H         -43.5888   11.8112   -5.5781 H         1 RAL600      0.0000 
     57 H         -41.7401   10.2342   -5.5263 H         1 RAL600      0.0000 
     58 H         -42.9842    9.6947   -4.3856 H         1 RAL600      0.0000 
     59 H         -40.6816    9.6177   -3.4305 H         1 RAL600      0.0000 
     60 H         -40.5442   11.3634   -3.7016 H         1 RAL600      0.0000 
     61 H         -50.9242   11.8103    3.9942 H         1 RAL600      0.0000 
     62 H         -40.5915   18.6708    8.0713 H         1 RAL600      0.0000 
@<TRIPOS>BOND
     1    2    1 ar   
     2   16    1 ar   
     3   35    1 1    
     4    3    2 ar   
     5   36    2 1    
     6    4    3 1    
     7    5    3 ar   
     8   61    4 1    
     9    6    5 ar   
    10   37    5 1    
    11    7    6 1    
    12   16    6 ar   
    13    8    7 1    
    14    9    8 1    
    15   17    8 2    
    16   10    9 ar   
    17   15    9 ar   
    18   11   10 ar   
    19   38   10 1    
    20   12   11 ar   
    21   39   11 1    
    22   13   12 1    
    23   14   12 ar   
    24   62   13 1    
    25   15   14 ar   
    26   40   14 1    
    27   41   15 1    
    28   17   16 1    
    29   18   17 1    
    30   19   18 2    
    31   20   18 1    
    32   21   20 ar   
    33   25   20 ar   
    34   22   21 ar   
    35   42   21 1    
    36   23   22 ar   
    37   43   22 1    
    38   24   23 ar   
    39   26   23 1    
    40   25   24 ar   
    41   44   24 1    
    42   45   25 1    
    43   27   26 1    
    44   28   27 1    
    45   46   27 1    
    46   47   27 1    
    47   29   28 1    
    48   48   28 1    
    49   49   28 1    
    50   30   29 1    
    51   34   29 1    
    52   50   29 1    
    53   31   30 1    
    54   51   30 1    
    55   52   30 1    
    56   32   31 1    
    57   53   31 1    
    58   54   31 1    
    59   33   32 1    
    60   55   32 1    
    61   56   32 1    
    62   34   33 1    
    63   57   33 1    
    64   58   33 1    
    65   59   34 1    
    66   60   34 1    
@<TRIPOS>SUBSTRUCTURE
     1 RAL600      1 GROUP   
@<TRIPOS>SET

