#    Name: 1m8e_7NI_1_ligand
#    Modification time : Tue Mar 25 11:27:03 2014

@<TRIPOS>MOLECULE
1m8e_7NI_1_ligand
   17    18     1     0     0
SMALL
NO_CHARGES


@<TRIPOS>ATOM
      1 N1        125.5490  115.1200   30.4180 N.pl3     1 7NI906      0.0000 
      2 N2        126.6460  114.3560   30.2950 N.2       1 7NI906      0.0000 
      3 C3        126.4680  113.1690   30.8980 C.2       1 7NI906      0.0000 
      4 C4        124.2690  112.2370   32.2200 C.ar      1 7NI906      0.0000 
      5 C5        122.8800  112.6650   32.6280 C.ar      1 7NI906      0.0000 
      6 C6        122.4460  113.9240   32.2610 C.ar      1 7NI906      0.0000 
      7 C7        123.2860  114.7890   31.5230 C.ar      1 7NI906      0.0000 
      8 C8        124.5470  114.4620   31.1260 C.ar      1 7NI906      0.0000 
      9 C9        125.1190  113.2100   31.4440 C.ar      1 7NI906      0.0000 
     10 N10       122.7470  116.0590   31.1960 N.pl3     1 7NI906      0.0000 
     11 O11       121.6150  116.3150   31.5670 O.2       1 7NI906      0.0000 
     12 O12       123.4840  116.7710   30.5560 O.2       1 7NI906      0.0000 
     13 H         125.4407  116.0264   30.0651 H         1 7NI906      0.0000 
     14 H         127.0355  112.4396   30.9854 H         1 7NI906      0.0000 
     15 H         124.6074  111.3512   32.4537 H         1 7NI906      0.0000 
     16 H         122.3330  112.0107   33.1503 H         1 7NI906      0.0000 
     17 H         121.5032  114.2491   32.5209 H         1 7NI906      0.0000 
@<TRIPOS>BOND
     1    2    1 1    
     2    8    1 1    
     3   13    1 1    
     4    3    2 2    
     5    9    3 1    
     6   14    3 1    
     7    5    4 ar   
     8    9    4 ar   
     9   15    4 1    
    10    6    5 ar   
    11   16    5 1    
    12    7    6 ar   
    13   17    6 1    
    14    8    7 ar   
    15   10    7 1    
    16    9    8 ar   
    17   11   10 2    
    18   12   10 2    
@<TRIPOS>SUBSTRUCTURE
     1 7NI906      1 GROUP   
@<TRIPOS>SET

