#    Name: 2feq_34P_1_INTS_M
#    Modification time : Tue Mar 25 12:29:21 2014

@<TRIPOS>MOLECULE
2feq_34P_1_INTS_M
   65     0     9     0     0
SMALL
NO_CHARGES


@<TRIPOS>ATOM
      1 N          15.4935   20.9565   24.2055 N.am      2 SEC2        0.0000 
      2 N          16.2840   20.2970   23.1320 N.am      8 SEL2        0.0000 
      3 N          14.7030   21.6160   25.2790 N.am      5 SEP2        0.0000 
      4 CA         20.3595   21.0000   23.9160 C.3       3 GLC5        0.0000 
      5 CA         19.5010   19.0520   24.6390 C.3       9 GLL5        0.0000 
      6 CA         21.2180   22.9480   23.1930 C.3       6 GLP5        0.0000 
      7 CA         20.0085   18.7610   28.1305 C.3       3 GLC5        0.0000 
      8 CA         19.8430   19.3890   26.0990 C.3       9 GLL5        0.0000 
      9 CA         20.1740   18.1330   30.1620 C.3       6 GLP5        0.0000 
     10 CA         18.4905   20.3610   26.9590 C.3       3 GLC5        0.0000 
     11 CA         17.1380   21.3330   27.8190 C.3       6 GLP5        0.0000 
     12 CA         21.2170   21.5295   24.7070 C.3       3 GLC5        0.0000 
     13 CA         21.2160   20.1110   26.2210 C.3       9 GLL5        0.0000 
     14 CA         21.3450   18.8245   27.9340 C.3       3 GLC5        0.0000 
     15 CA         21.4740   17.5380   29.6470 C.3       6 GLP5        0.0000 
     16 CA         19.5160   21.2995   26.8155 C.3       3 GLC5        0.0000 
     17 CA         17.8160   22.4880   27.4100 C.3       6 GLP5        0.0000 
     18 CA         21.6305   20.9075   23.6775 C.3       3 GLC5        0.0000 
     19 CA         22.0430   18.8670   24.1620 C.3       9 GLL5        0.0000 
     20 N          12.7755   16.3665   24.5175 N.am      2 SEC2        0.0000 
     21 N          13.8710   16.2160   24.0890 N.am      8 SEL2        0.0000 
     22 N          11.6800   16.5170   24.9460 N.am      5 SEP2        0.0000 
     23 N          12.4505   16.2250   23.5135 N.am      2 SEC2        0.0000 
     24 N          13.2210   15.9330   22.0810 N.am      8 SEL2        0.0000 
     25 CA         17.6105   22.1555   22.9670 C.3       3 GLC5        0.0000 
     26 CA         17.8280   21.5560   21.1030 C.3       9 GLL5        0.0000 
     27 CA         17.3930   22.7550   24.8310 C.3       6 GLP5        0.0000 
     28 CA         19.0790   23.1505   19.0860 C.3       3 GLC5        0.0000 
     29 CA         18.7970   21.5540   19.9590 C.3       9 GLL5        0.0000 
     30 CA         19.3610   24.7470   18.2130 C.3       6 GLP5        0.0000 
     31 CA         10.5040   19.8695   22.1150 C.3       3 GLC5        0.0000 
     32 CA         12.3720   20.6940   22.7570 C.3       9 GLL5        0.0000 
     33 CA          8.6360   19.0450   21.4730 C.3       6 GLP5        0.0000 
     34 CA         14.9430   24.6550   19.0250 C.3       3 GLC5        0.0000 
     35 CA         14.4130   23.1710   20.4910 C.3       9 GLL5        0.0000 
     36 CA         15.4730   26.1390   17.5590 C.3       6 GLP5        0.0000 
     37 CA         15.2320   23.3080   22.5030 C.3       3 GLC5        0.0000 
     38 CA         16.0510   23.4450   24.5150 C.3       6 GLP5        0.0000 
     39 O          16.4820   23.9185   21.6625 O.2       1 ALC1        0.0000 
     40 O          15.8200   22.9400   20.8450 O.2       7 ALL1        0.0000 
     41 O          17.1440   24.8970   22.4800 O.2       4 ALP1        0.0000 
     42 O           9.1360   21.4830   25.2565 O.2       1 ALC1        0.0000 
     43 O          10.2710   21.2570   24.6040 O.2       7 ALL1        0.0000 
     44 O           8.0010   21.7090   25.9090 O.2       4 ALP1        0.0000 
     45 O          10.2445   19.8745   24.4345 O.2       1 ALC1        0.0000 
     46 O          10.2180   18.4920   24.2650 O.2       4 ALP1        0.0000 
     47 O           9.4870   23.6915   25.1645 O.2       1 ALC1        0.0000 
     48 O          10.8540   23.4810   24.4800 O.2       7 ALL1        0.0000 
     49 O           8.1200   23.9020   25.8490 O.2       4 ALP1        0.0000 
     50 CA         18.1055   20.7290   24.7145 C.3       3 GLC5        0.0000 
     51 CA         18.1350   18.3540   24.5570 C.3       9 GLL5        0.0000 
     52 CA         23.0723   20.8195   27.0682 C.3       3 GLC5        0.0000 
     53 CA         24.3530   21.9330   28.2250 C.3       6 GLP5        0.0000 
     54 CA         21.4940   19.7580   20.2508 C.3       3 GLC5        0.0000 
     55 CA         19.6620   20.5400   20.0890 C.3       9 GLL5        0.0000 
     56 CA         23.4750   19.3980   19.8130 C.3       6 GLP5        0.0000 
     57 CA         19.0639   19.1713   19.1105 C.3       3 GLC5        0.0000 
     58 CA         19.3640   19.6960   21.2880 C.3       9 GLL5        0.0000 
     59 CA         18.8310   17.9710   17.5650 C.3       6 GLP5        0.0000 
     60 CA         10.3490   22.0021   21.8758 C.3       3 GLC5        0.0000 
     61 CA          9.0960   22.2360   20.2290 C.3       6 GLP5        0.0000 
     62 CA         12.6715   21.3481   24.8197 C.3       3 GLC5        0.0000 
     63 CA         12.0080   21.9290   23.1170 C.3       9 GLL5        0.0000 
     64 CA         13.7410   20.9280   26.1170 C.3       6 GLP5        0.0000 
     65 CA         20.0654   21.8923   21.9014 C.3       3 GLC5        0.0000 
@<TRIPOS>BOND
@<TRIPOS>SUBSTRUCTURE
     1 ALC1       39 GROUP        1 X    ALC  0     ROOT ALC X 1
     2 SEC2        1 GROUP        1 X    SEC  0     **** SEC X 2
     3 GLC5        4 GROUP        1 X    GLC  0     **** GLC X 6
     4 ALP1       41 GROUP        1 Y    ALP  0     ROOT ALP Y 8
     5 SEP2        3 GROUP        1 Y    SEP  0     **** SEP Y 9
     6 GLP5        6 GROUP        1 Y    GLP  0     **** GLP Y 13
     7 ALL1       40 GROUP        1 Z    ALL  0     ROOT ALL Z 15
     8 SEL2        2 GROUP        1 Z    SEL  0     **** SEL Z 16
     9 GLL5        5 GROUP        1 Z    GLL  0     **** GLL Z 20
@<TRIPOS>SET

