#    Name: 2feq_34P_1_ligand
#    Modification time : Tue Mar 25 12:29:21 2014

@<TRIPOS>MOLECULE
2feq_34P_1_ligand
   63    65     1     0     0
SMALL
NO_CHARGES


@<TRIPOS>ATOM
      1 C16        17.2540   19.6980   22.6740 C.2       1 34P1        0.0000 
      2 O17        16.2840   20.2970   23.1320 O.2       1 34P1        0.0000 
      3 C18        17.4920   18.2390   23.1500 C.3       1 34P1        0.0000 
      4 C21        18.1350   18.3540   24.5570 C.3       1 34P1        0.0000 
      5 C22        19.5010   19.0520   24.6390 C.3       1 34P1        0.0000 
      6 C23        19.8430   19.3890   26.0990 C.3       1 34P1        0.0000 
      7 C24        21.2160   20.1110   26.2210 C.3       1 34P1        0.0000 
      8 C25        22.3670   19.3010   25.6020 C.3       1 34P1        0.0000 
      9 C26        22.0430   18.8670   24.1620 C.3       1 34P1        0.0000 
     10 C27        20.6470   18.1910   24.0460 C.3       1 34P1        0.0000 
     11 N19        16.2380   17.4860   23.4440 N.4       1 34P1        0.0000 
     12 C20        15.3130   17.0190   22.3920 C.3       1 34P1        0.0000 
     13 C30        14.0430   16.3290   22.8770 C.2       1 34P1        0.0000 
     14 O32        13.8710   16.2160   24.0890 O.co2     1 34P1        0.0000 
     15 O31        13.2210   15.9330   22.0810 O.co2     1 34P1        0.0000 
     16 N15        18.1240   20.2710   21.7860 N.am      1 34P1        0.0000 
     17 C11        17.8280   21.5560   21.1030 C.3       1 34P1        0.0000 
     18 C9         16.3920   21.7600   20.5820 C.2       1 34P1        0.0000 
     19 O10        15.8020   20.8570   20.0270 O.2       1 34P1        0.0000 
     20 C12        18.7970   21.5540   19.9590 C.3       1 34P1        0.0000 
     21 C13        19.6620   20.5400   20.0890 C.3       1 34P1        0.0000 
     22 C14        19.3640   19.6960   21.2880 C.3       1 34P1        0.0000 
     23 C1         12.3720   20.6940   22.7570 C.2       1 34P1        0.0000 
     24 C2         12.0080   21.9290   23.1170 C.2       1 34P1        0.0000 
     25 N3         12.7020   22.9720   22.3860 N.2       1 34P1        0.0000 
     26 C4         13.5180   22.4360   21.4540 C.2       1 34P1        0.0000 
     27 S5         13.5020   20.6880   21.4600 S.3       1 34P1        0.0000 
     28 C6         11.0140   22.2250   24.1080 C.2       1 34P1        0.0000 
     29 C7         14.4130   23.1710   20.4910 C.3       1 34P1        0.0000 
     30 N8         15.8200   22.9400   20.8450 N.am      1 34P1        0.0000 
     31 N28        10.2710   21.2570   24.6040 N.pl3     1 34P1        0.0000 
     32 N29        10.8540   23.4810   24.4800 N.pl3     1 34P1        0.0000 
     33 H          18.1348   17.7299   22.5339 H         1 34P1        0.0000 
     34 H          18.2311   17.3299   24.9789 H         1 34P1        0.0000 
     35 H          17.4209   18.8870   25.2219 H         1 34P1        0.0000 
     36 H          19.4568   19.9806   24.0846 H         1 34P1        0.0000 
     37 H          19.8798   18.4704   26.6831 H         1 34P1        0.0000 
     38 H          19.0710   20.0376   26.5108 H         1 34P1        0.0000 
     39 H          21.4249   20.2845   27.2790 H         1 34P1        0.0000 
     40 H          21.1456   21.0791   25.7200 H         1 34P1        0.0000 
     41 H          22.5467   18.4144   26.2095 H         1 34P1        0.0000 
     42 H          23.2699   19.9111   25.5957 H         1 34P1        0.0000 
     43 H          22.8015   18.1611   23.8189 H         1 34P1        0.0000 
     44 H          22.0620   19.7414   23.5090 H         1 34P1        0.0000 
     45 H          20.4362   17.9991   22.9905 H         1 34P1        0.0000 
     46 H          20.6767   17.2316   24.5695 H         1 34P1        0.0000 
     47 H          15.8452   16.3158   21.7056 H         1 34P1        0.0000 
     48 H          15.0111   17.8788   21.7451 H         1 34P1        0.0000 
     49 H          18.1012   22.3785   21.7503 H         1 34P1        0.0000 
     50 H          19.2859   22.5532   19.9468 H         1 34P1        0.0000 
     51 H          18.1951   21.5045   19.0247 H         1 34P1        0.0000 
     52 H          20.7253   20.8798   20.1889 H         1 34P1        0.0000 
     53 H          19.6696   19.8528   19.2036 H         1 34P1        0.0000 
     54 H          19.2262   18.6806   20.9852 H         1 34P1        0.0000 
     55 H          20.1526   19.7978   22.0019 H         1 34P1        0.0000 
     56 H          12.1544   19.8237   23.0475 H         1 34P1        0.0000 
     57 H          14.1790   24.2382   20.5329 H         1 34P1        0.0000 
     58 H          14.2112   22.8156   19.4769 H         1 34P1        0.0000 
     59 H          16.3136   23.7207   21.2921 H         1 34P1        0.0000 
     60 H           9.5990   21.5273   25.2934 H         1 34P1        0.0000 
     61 H          10.4466   20.3400   24.2459 H         1 34P1        0.0000 
     62 H          11.6611   24.0671   24.4092 H         1 34P1        0.0000 
     63 H           9.9402   23.7325   24.7989 H         1 34P1        0.0000 
@<TRIPOS>BOND
     1    2    1 2    
     2    3    1 1    
     3   16    1 am   
     4    4    3 1    
     5   11    3 1    
     6   33    3 1    
     7    5    4 1    
     8   34    4 1    
     9   35    4 1    
    10    6    5 1    
    11   10    5 1    
    12   36    5 1    
    13    7    6 1    
    14   37    6 1    
    15   38    6 1    
    16    8    7 1    
    17   39    7 1    
    18   40    7 1    
    19    9    8 1    
    20   41    8 1    
    21   42    8 1    
    22   10    9 1    
    23   43    9 1    
    24   44    9 1    
    25   45   10 1    
    26   46   10 1    
    27   12   11 1    
    28   13   12 1    
    29   47   12 1    
    30   48   12 1    
    31   14   13 ar   
    32   15   13 ar   
    33   17   16 1    
    34   22   16 1    
    35   18   17 1    
    36   20   17 1    
    37   49   17 1    
    38   19   18 2    
    39   30   18 am   
    40   21   20 1    
    41   50   20 1    
    42   51   20 1    
    43   22   21 1    
    44   52   21 1    
    45   53   21 1    
    46   54   22 1    
    47   55   22 1    
    48   24   23 2    
    49   27   23 1    
    50   56   23 1    
    51   25   24 1    
    52   28   24 1    
    53   26   25 2    
    54   27   26 1    
    55   29   26 1    
    56   31   28 2    
    57   32   28 1    
    58   30   29 1    
    59   57   29 1    
    60   58   29 1    
    61   59   30 1    
    62   60   31 1    
    63   61   31 1    
    64   62   32 1    
    65   63   32 1    
@<TRIPOS>SUBSTRUCTURE
     1 34P1        1 GROUP   
@<TRIPOS>SET

