#    Name: 3IRH_6_CAVITY_N1_6.mol2
#    Modification time : Tue Mar 11 03:29:15 2014

@<TRIPOS>MOLECULE
3IRH_6_CAVITY_N1_6.mol2
  145     0     6     0     0
SMALL
NO_CHARGES


@<TRIPOS>ATOM
      1 DU        -40.2033   67.3297  -29.2711 H         6 CUB7        0.0000 
      2 DU        -40.7611   68.7133  -29.4287 H         6 CUB7        0.0000 
      3 O         -41.3188   70.0968  -29.5864 O.2       2 ALA2        0.0000 
      4 NZ        -41.3376   66.9769  -28.3551 N.2       3 LYS4        0.0000 
      5 NZ        -41.8953   68.3604  -28.5128 N.2       3 LYS4        0.0000 
      6 O         -42.4530   69.7439  -28.6704 O.2       2 ALA2        0.0000 
      7 NZ        -43.0295   68.0075  -27.5968 N.2       3 LYS4        0.0000 
      8 N         -43.5873   69.3910  -27.7544 N.2       2 ALA2        0.0000 
      9 NZ        -44.1638   67.6546  -26.6808 N.2       3 LYS4        0.0000 
     10 N         -44.7215   69.0381  -26.8385 N.2       2 ALA2        0.0000 
     11 NZ        -44.7403   65.9182  -25.6072 N.2       3 LYS4        0.0000 
     12 NZ        -45.2980   67.3017  -25.7649 N.2       3 LYS4        0.0000 
     13 N         -45.8557   68.6852  -25.9225 N.2       2 ALA2        0.0000 
     14 N         -46.4134   70.0688  -26.0801 N.2       2 ALA2        0.0000 
     15 N         -46.4322   66.9489  -24.8489 N.2       2 ALA2        0.0000 
     16 O         -50.3551   73.5135  -24.7210 O.2       2 ALA2        0.0000 
     17 CA        -51.4893   73.1606  -23.8051 C.3       5 GLY6        0.0000 
     18 CA        -52.0470   74.5442  -23.9627 C.3       5 GLY6        0.0000 
     19 CZ        -49.1820   65.6765  -26.2876 C.ar      4 PHE5        0.0000 
     20 DU        -49.7397   67.0600  -26.4453 H         6 CUB7        0.0000 
     21 DU        -50.2974   68.4435  -26.6029 H         6 CUB7        0.0000 
     22 N         -50.8551   69.8270  -26.7605 N.2       2 ALA2        0.0000 
     23 CA        -51.4129   71.2105  -26.9181 C.3       5 GLY6        0.0000 
     24 CA        -52.5283   73.9775  -27.2334 C.3       5 GLY6        0.0000 
     25 CA        -53.0860   75.3610  -27.3910 C.3       5 GLY6        0.0000 
     26 NZ        -50.3162   65.3236  -25.3717 N.2       3 LYS4        0.0000 
     27 CA        -50.8739   66.7071  -25.5293 C.3       5 GLY6        0.0000 
     28 CA        -51.4316   68.0906  -25.6869 C.3       5 GLY6        0.0000 
     29 N         -51.9894   69.4741  -25.8445 N.2       2 ALA2        0.0000 
     30 N         -52.5471   70.8576  -26.0022 N.2       2 ALA2        0.0000 
     31 N         -53.1048   72.2411  -26.1598 N.2       2 ALA2        0.0000 
     32 DU        -53.6625   73.6246  -26.3174 H         6 CUB7        0.0000 
     33 OG        -54.2203   75.0081  -26.4750 O.2       1 SER1        0.0000 
     34 CA        -53.1236   69.1212  -24.9286 C.3       5 GLY6        0.0000 
     35 O         -54.7968   73.2718  -25.4014 O.2       2 ALA2        0.0000 
     36 O         -55.3545   74.6553  -25.5591 O.2       2 ALA2        0.0000 
     37 DU        -40.4346   68.6064  -31.5221 H         6 CUB7        0.0000 
     38 DU        -41.0111   66.8700  -30.4485 H         6 CUB7        0.0000 
     39 NZ        -41.5876   65.1336  -29.3749 N.2       3 LYS4        0.0000 
     40 NZ        -42.1453   66.5171  -29.5325 N.2       3 LYS4        0.0000 
     41 DU        -42.7031   67.9006  -29.6901 H         6 CUB7        0.0000 
     42 N         -43.2608   69.2841  -29.8477 N.2       2 ALA2        0.0000 
     43 NZ        -43.8373   67.5477  -28.7742 N.2       3 LYS4        0.0000 
     44 DU        -44.3950   68.9312  -28.9318 H         6 CUB7        0.0000 
     45 N         -44.9527   70.3148  -29.0894 N.2       2 ALA2        0.0000 
     46 OG        -47.3948   65.8156  -31.3902 O.2       1 SER1        0.0000 
     47 OG        -47.9525   67.1991  -31.5479 O.2       1 SER1        0.0000 
     48 CZ        -48.5102   68.5826  -31.7055 C.ar      4 PHE5        0.0000 
     49 OG        -48.5290   65.4627  -30.4743 O.2       1 SER1        0.0000 
     50 OG        -49.0867   66.8462  -30.6319 O.2       1 SER1        0.0000 
     51 CZ        -49.6445   68.2297  -30.7895 C.ar      4 PHE5        0.0000 
     52 OG        -49.6632   65.1098  -29.5583 O.2       1 SER1        0.0000 
     53 OG        -50.2210   66.4933  -29.7159 O.2       1 SER1        0.0000 
     54 CZ        -50.7975   64.7569  -28.6423 C.ar      4 PHE5        0.0000 
     55 OG        -51.3552   66.1405  -28.8000 O.2       1 SER1        0.0000 
     56 CZ        -51.9129   67.5240  -28.9576 C.ar      4 PHE5        0.0000 
     57 CZ        -52.4894   65.7876  -27.8840 C.ar      4 PHE5        0.0000 
     58 CZ        -53.0471   67.1711  -28.0416 C.ar      4 PHE5        0.0000 
     59 CZ        -53.6049   68.5546  -28.1992 C.ar      4 PHE5        0.0000 
     60 CA        -54.1626   69.9381  -28.3569 C.3       5 GLY6        0.0000 
     61 CA        -54.7203   71.3216  -28.5145 C.3       5 GLY6        0.0000 
     62 CZ        -54.7391   68.2017  -27.2833 C.ar      4 PHE5        0.0000 
     63 OG        -55.2968   69.5852  -27.4409 O.2       1 SER1        0.0000 
     64 NZ        -55.8546   70.9687  -27.5985 N.2       3 LYS4        0.0000 
     65 OG        -49.3180   68.1228  -32.8828 O.2       1 SER1        0.0000 
     66 CA        -56.1046   69.1255  -28.6182 C.3       5 GLY6        0.0000 
     67 CA        -56.6623   70.5090  -28.7759 C.3       5 GLY6        0.0000 
     68 DU        -45.4528   66.6282  -31.1289 H         6 CUB7        0.0000 
     69 OG        -46.5870   66.2753  -30.2129 O.2       1 SER1        0.0000 
     70 DU        -47.1447   67.6588  -30.3705 H         6 CUB7        0.0000 
     71 N         -47.7025   69.0424  -30.5281 N.2       2 ALA2        0.0000 
     72 OG        -47.7213   65.9225  -29.2969 O.2       1 SER1        0.0000 
     73 DU        -48.2790   67.3060  -29.4545 H         6 CUB7        0.0000 
     74 N         -48.8367   68.6895  -29.6122 N.2       2 ALA2        0.0000 
     75 CZ        -48.8555   65.5696  -28.3810 C.ar      4 PHE5        0.0000 
     76 DU        -49.4132   66.9531  -28.5386 H         6 CUB7        0.0000 
     77 N         -49.9709   68.3366  -28.6962 N.2       2 ALA2        0.0000 
     78 CZ        -49.9897   65.2167  -27.4650 C.ar      4 PHE5        0.0000 
     79 DU        -50.5474   66.6002  -27.6226 H         6 CUB7        0.0000 
     80 CZ        -51.1052   67.9837  -27.7802 C.ar      4 PHE5        0.0000 
     81 N         -51.6629   69.3672  -27.9379 N.2       2 ALA2        0.0000 
     82 CA        -52.2206   70.7507  -28.0955 C.3       5 GLY6        0.0000 
     83 CA        -53.3361   73.5178  -28.4107 C.3       5 GLY6        0.0000 
     84 CZ        -51.1239   64.8638  -26.5490 C.ar      4 PHE5        0.0000 
     85 CZ        -51.6817   66.2473  -26.7066 C.ar      4 PHE5        0.0000 
     86 CA        -52.2394   67.6308  -26.8643 C.3       5 GLY6        0.0000 
     87 CA        -52.7971   69.0144  -27.0219 C.3       5 GLY6        0.0000 
     88 N         -53.3548   70.3979  -27.1795 N.2       2 ALA2        0.0000 
     89 CA        -53.9126   71.7814  -27.3371 C.3       5 GLY6        0.0000 
     90 NZ        -54.4703   73.1649  -27.4948 N.2       3 LYS4        0.0000 
     91 NZ        -55.0280   74.5484  -27.6524 N.2       3 LYS4        0.0000 
     92 CA        -53.9313   68.6615  -26.1059 C.3       5 GLY6        0.0000 
     93 N         -54.4891   70.0450  -26.2635 N.2       2 ALA2        0.0000 
     94 N         -55.0468   71.4285  -26.4212 N.2       2 ALA2        0.0000 
     95 OG        -55.6045   72.8120  -26.5788 O.2       1 SER1        0.0000 
     96 OG        -56.1622   74.1955  -26.7364 O.2       1 SER1        0.0000 
     97 N         -39.9533   69.1730  -28.2514 N.2       2 ALA2        0.0000 
     98 O         -40.5110   70.5565  -28.4090 O.2       2 ALA2        0.0000 
     99 CA        -40.5298   67.4366  -27.1778 C.3       5 GLY6        0.0000 
    100 NZ        -41.0876   68.8201  -27.3354 N.2       3 LYS4        0.0000 
    101 NZ        -41.6453   70.2036  -27.4930 N.2       3 LYS4        0.0000 
    102 O         -42.3954   64.6738  -30.5522 O.2       2 ALA2        0.0000 
    103 DU        -42.9531   66.0573  -30.7099 H         6 CUB7        0.0000 
    104 NZ        -43.5296   64.3210  -29.6363 N.2       3 LYS4        0.0000 
    105 NZ        -44.0873   65.7045  -29.7939 N.2       3 LYS4        0.0000 
    106 DU        -44.6450   67.0880  -29.9515 H         6 CUB7        0.0000 
    107 DU        -45.2028   68.4715  -30.1091 H         6 CUB7        0.0000 
    108 CZ        -45.2215   65.3516  -28.8779 C.ar      4 PHE5        0.0000 
    109 DU        -45.7793   66.7351  -29.0355 H         6 CUB7        0.0000 
    110 N         -46.8947   69.5021  -29.3508 N.2       2 ALA2        0.0000 
    111 N         -47.4524   70.8856  -29.5084 N.2       2 ALA2        0.0000 
    112 CZ        -46.9135   66.3822  -28.1196 C.ar      4 PHE5        0.0000 
    113 DU        -47.4712   67.7657  -28.2772 H         6 CUB7        0.0000 
    114 N         -48.0290   69.1492  -28.4348 N.2       2 ALA2        0.0000 
    115 CZ        -48.0477   66.0293  -27.2036 C.ar      4 PHE5        0.0000 
    116 DU        -48.6055   67.4128  -27.3612 H         6 CUB7        0.0000 
    117 N         -49.1632   68.7964  -27.5188 N.2       2 ALA2        0.0000 
    118 N         -49.7209   70.1799  -27.6765 N.2       2 ALA2        0.0000 
    119 NZ        -44.4138   65.8113  -27.7006 N.2       3 LYS4        0.0000 
    120 NZ        -44.9715   67.1949  -27.8582 N.2       3 LYS4        0.0000 
    121 N         -45.5292   68.5784  -28.0158 N.2       2 ALA2        0.0000 
    122 N         -46.0870   69.9619  -28.1734 N.2       2 ALA2        0.0000 
    123 CZ        -46.1057   66.8420  -26.9422 C.ar      4 PHE5        0.0000 
    124 DU        -46.6635   68.2255  -27.0998 H         6 CUB7        0.0000 
    125 N         -47.2212   69.6090  -27.2575 N.2       2 ALA2        0.0000 
    126 N         -47.7789   70.9925  -27.4151 N.2       2 ALA2        0.0000 
    127 CZ        -47.2400   66.4891  -26.0263 C.ar      4 PHE5        0.0000 
    128 N         -47.7977   67.8726  -26.1839 N.2       2 ALA2        0.0000 
    129 O         -48.3554   69.2561  -26.3415 O.2       2 ALA2        0.0000 
    130 O         -48.9132   70.6396  -26.4991 O.2       2 ALA2        0.0000 
    131 CA        -49.4709   72.0231  -26.6567 C.3       5 GLY6        0.0000 
    132 N         -48.3742   66.1362  -25.1103 N.2       2 ALA2        0.0000 
    133 N         -48.9319   67.5197  -25.2679 N.2       2 ALA2        0.0000 
    134 N         -49.4897   68.9032  -25.4255 N.2       2 ALA2        0.0000 
    135 N         -50.0474   70.2867  -25.5831 N.2       2 ALA2        0.0000 
    136 O         -50.6051   71.6703  -25.7408 O.2       2 ALA2        0.0000 
    137 CA        -51.1628   73.0538  -25.8984 C.3       5 GLY6        0.0000 
    138 O         -51.7206   74.4373  -26.0560 O.2       2 ALA2        0.0000 
    139 N         -50.0662   67.1668  -24.3519 N.2       2 ALA2        0.0000 
    140 N         -51.7393   71.3174  -24.8248 N.2       2 ALA2        0.0000 
    141 CA        -52.2971   72.7009  -24.9824 C.3       5 GLY6        0.0000 
    142 CA        -52.8548   74.0844  -25.1400 C.3       5 GLY6        0.0000 
    143 CA        -53.4125   75.4679  -25.2977 C.3       5 GLY6        0.0000 
    144 DU        -39.6268   69.0661  -30.3447 H         6 CUB7        0.0000 
    145 CA        -40.1846   70.4496  -30.5023 C.3       5 GLY6        0.0000 
@<TRIPOS>BOND
@<TRIPOS>SUBSTRUCTURE
     1 SER1       33 GROUP   
     2 ALA2        3 GROUP   
     3 LYS4        4 GROUP   
     4 PHE5       19 GROUP   
     5 GLY6       17 GROUP   
     6 CUB7        1 GROUP   
@<TRIPOS>SET

