#    Name: 3irh_DTP_6_INTS_M
#    Modification time : Tue Mar 25 17:14:55 2014

@<TRIPOS>MOLECULE
3irh_DTP_6_INTS_M
   46     0     9     0     0
SMALL
NO_CHARGES


@<TRIPOS>ATOM
      1 N         -49.9545   69.5135  -33.9235 N.am      2 SEC2        0.0000 
      2 N         -48.9240   69.4990  -32.7810 N.am      8 SEL2        0.0000 
      3 N         -50.9850   69.5280  -35.0660 N.am      5 SEP2        0.0000 
      4 N         -50.2165   66.6030  -32.5500 N.am      2 SEC2        0.0000 
      5 N         -48.9180   66.5800  -32.6430 N.am      8 SEL2        0.0000 
      6 N         -51.5150   66.6260  -32.4570 N.am      5 SEP2        0.0000 
      7 N         -45.2735   67.7605  -25.5215 N.am      2 SEC2        0.0000 
      8 N         -45.5060   68.6930  -26.2950 N.am      8 SEL2        0.0000 
      9 N         -45.0410   66.8280  -24.7480 N.am      5 SEP2        0.0000 
     10 CA        -47.3685   65.0935  -26.9150 C.3       3 GLC5        0.0000 
     11 CA        -48.3770   66.7420  -26.9980 C.3       9 GLL5        0.0000 
     12 CA        -46.3600   63.4450  -26.8320 C.3       6 GLP5        0.0000 
     13 CA        -48.3520   64.3510  -27.6955 C.3       3 GLC5        0.0000 
     14 CA        -49.4280   65.9160  -27.7410 C.3       9 GLL5        0.0000 
     15 CA        -47.2760   62.7860  -27.6500 C.3       6 GLP5        0.0000 
     16 CA        -50.8835   67.6070  -30.3140 C.3       3 GLC5        0.0000 
     17 CA        -49.7800   66.4450  -29.1290 C.3       9 GLL5        0.0000 
     18 CA        -51.9870   68.7690  -31.4990 C.3       6 GLP5        0.0000 
     19 O         -50.3980   66.1135  -31.3120 O.2       1 ALC1        0.0000 
     20 O         -49.2810   65.6010  -30.1670 O.2       7 ALL1        0.0000 
     21 O         -51.5150   66.6260  -32.4570 O.2       4 ALP1        0.0000 
     22 CA        -51.1965   64.6315  -30.4825 C.3       3 GLC5        0.0000 
     23 CA        -51.2920   66.4650  -29.1890 C.3       9 GLL5        0.0000 
     24 CA        -51.1010   62.7980  -31.7760 C.3       6 GLP5        0.0000 
     25 CA        -52.9125   65.3045  -28.8090 C.3       3 GLC5        0.0000 
     26 CA        -54.5330   64.1440  -28.4290 C.3       6 GLP5        0.0000 
     27 CA        -51.8585   67.0230  -30.6305 C.3       3 GLC5        0.0000 
     28 CA        -52.4250   67.5810  -32.0720 C.3       6 GLP5        0.0000 
     29 CA        -52.3955   66.6675  -25.7415 C.3       3 GLC5        0.0000 
     30 CA        -51.7350   66.4710  -27.7400 C.3       9 GLL5        0.0000 
     31 CA        -53.0560   66.8640  -23.7430 C.3       6 GLP5        0.0000 
     32 CA        -53.1325   65.5165  -27.4175 C.3       3 GLC5        0.0000 
     33 CA        -54.5300   64.5620  -27.0950 C.3       6 GLP5        0.0000 
     34 CA        -51.8610   67.6200  -29.6195 C.3       3 GLC5        0.0000 
     35 CA        -51.9840   71.1215  -28.0520 C.3       3 GLC5        0.0000 
     36 CA        -53.2220   69.6950  -26.8650 C.3       9 GLL5        0.0000 
     37 CA        -50.7460   72.5480  -29.2390 C.3       6 GLP5        0.0000 
     38 CA        -54.8265   70.5190  -28.8385 C.3       3 GLC5        0.0000 
     39 CA        -54.3630   70.4790  -26.7860 C.3       9 GLL5        0.0000 
     40 CA        -55.2900   70.5590  -30.8910 C.3       6 GLP5        0.0000 
     41 CA        -56.2210   66.9550  -28.3070 C.3       3 GLC5        0.0000 
     42 CA        -55.6450   68.7070  -27.6240 C.3       9 GLL5        0.0000 
     43 CA        -56.7970   65.2030  -28.9900 C.3       6 GLP5        0.0000 
     44 CA        -55.4675   69.6330  -29.2575 C.3       3 GLC5        0.0000 
     45 CA        -53.1657   67.9550  -25.4232 C.3       3 GLC5        0.0000 
     46 CA        -53.3290   68.3970  -27.3420 C.3       9 GLL5        0.0000 
@<TRIPOS>BOND
@<TRIPOS>SUBSTRUCTURE
     1 ALC1       19 GROUP        1 X    ALC  0     ROOT ALC X 1
     2 SEC2        1 GROUP        1 X    SEC  0     **** SEC X 2
     3 GLC5       10 GROUP        1 X    GLC  0     **** GLC X 6
     4 ALP1       21 GROUP        1 Y    ALP  0     ROOT ALP Y 8
     5 SEP2        3 GROUP        1 Y    SEP  0     **** SEP Y 9
     6 GLP5       12 GROUP        1 Y    GLP  0     **** GLP Y 13
     7 ALL1       20 GROUP        1 Z    ALL  0     ROOT ALL Z 15
     8 SEL2        2 GROUP        1 Z    SEL  0     **** SEL Z 16
     9 GLL5       11 GROUP        1 Z    GLL  0     **** GLL Z 20
@<TRIPOS>SET

