#    Name: 3irh_DTP_6_ligand
#    Modification time : Tue Mar 25 17:14:55 2014

@<TRIPOS>MOLECULE
3irh_DTP_6_ligand
   42    44     1     0     0
SMALL
NO_CHARGES


@<TRIPOS>ATOM
      1 PG        -47.9380   68.0540  -32.4310 P.3       1 DTP459      0.0000 
      2 O1G       -46.7080   68.0100  -33.4430 O.co2     1 DTP459      0.0000 
      3 O2G       -48.9240   69.4990  -32.7810 O.co2     1 DTP459      0.0000 
      4 O3G       -48.9180   66.5800  -32.6430 O.co2     1 DTP459      0.0000 
      5 PB        -46.5180   69.3500  -30.3820 P.3       1 DTP459      0.0000 
      6 O1B       -45.4240   69.7970  -31.4530 O.co2     1 DTP459      0.0000 
      7 O2B       -47.5940   70.7130  -29.9790 O.co2     1 DTP459      0.0000 
      8 O3B       -47.3920   68.1010  -30.9140 O.3       1 DTP459      0.0000 
      9 PA        -46.6270   68.5950  -27.6770 P.3       1 DTP459      0.0000 
     10 O1A       -47.7580   69.7070  -27.5240 O.co2     1 DTP459      0.0000 
     11 O2A       -45.5060   68.6930  -26.2950 O.co2     1 DTP459      0.0000 
     12 O3A       -45.8040   68.7880  -29.0480 O.3       1 DTP459      0.0000 
     13 O5'       -47.2750   67.1260  -27.8220 O.3       1 DTP459      0.0000 
     14 C5'       -48.3770   66.7420  -26.9980 C.3       1 DTP459      0.0000 
     15 C4'       -49.4280   65.9160  -27.7410 C.3       1 DTP459      0.0000 
     16 O4'       -50.6380   65.9550  -26.9740 O.3       1 DTP459      0.0000 
     17 C3'       -49.7800   66.4450  -29.1290 C.3       1 DTP459      0.0000 
     18 O3'       -49.2810   65.6010  -30.1670 O.3       1 DTP459      0.0000 
     19 C2'       -51.2920   66.4650  -29.1890 C.3       1 DTP459      0.0000 
     20 C1'       -51.7350   66.4710  -27.7400 C.3       1 DTP459      0.0000 
     21 N9        -52.1000   67.8570  -27.3200 N.pl3     1 DTP459      0.0000 
     22 C8        -51.2510   68.7890  -26.8470 C.2       1 DTP459      0.0000 
     23 N7        -51.9280   69.9240  -26.5660 N.2       1 DTP459      0.0000 
     24 C5        -53.2220   69.6950  -26.8650 C.ar      1 DTP459      0.0000 
     25 C6        -54.3630   70.4790  -26.7860 C.ar      1 DTP459      0.0000 
     26 N6        -54.2630   71.7450  -26.3230 N.pl3     1 DTP459      0.0000 
     27 N1        -55.5580   69.9650  -27.1700 N.ar      1 DTP459      0.0000 
     28 C2        -55.6450   68.7070  -27.6240 C.ar      1 DTP459      0.0000 
     29 N3        -54.5520   67.9320  -27.7130 N.ar      1 DTP459      0.0000 
     30 C4        -53.3290   68.3970  -27.3420 C.ar      1 DTP459      0.0000 
     31 H         -48.8928   67.6294  -26.5734 H         1 DTP459      0.0000 
     32 H         -48.0400   66.1419  -26.1261 H         1 DTP459      0.0000 
     33 H         -49.0818   64.9033  -27.8318 H         1 DTP459      0.0000 
     34 H         -49.4302   67.4499  -29.2076 H         1 DTP459      0.0000 
     35 H         -51.6485   65.5836  -29.6732 H         1 DTP459      0.0000 
     36 H         -51.6250   67.3554  -29.6734 H         1 DTP459      0.0000 
     37 H         -52.5946   65.8269  -27.6572 H         1 DTP459      0.0000 
     38 H         -50.2919   68.6659  -26.7247 H         1 DTP459      0.0000 
     39 H         -55.1059   72.2831  -26.3278 H         1 DTP459      0.0000 
     40 H         -53.3550   72.0311  -26.0168 H         1 DTP459      0.0000 
     41 H         -56.5777   68.3221  -27.9136 H         1 DTP459      0.0000 
     42 H         -49.2658   66.1773  -30.9841 H         1 DTP459      0.0000 
@<TRIPOS>BOND
     1    2    1 ar   
     2    3    1 ar   
     3    4    1 ar   
     4    8    1 1    
     5    6    5 ar   
     6    7    5 ar   
     7    8    5 1    
     8   12    5 1    
     9   10    9 ar   
    10   11    9 ar   
    11   12    9 1    
    12   13    9 1    
    13   14   13 1    
    14   15   14 1    
    15   31   14 1    
    16   32   14 1    
    17   16   15 1    
    18   17   15 1    
    19   33   15 1    
    20   20   16 1    
    21   18   17 1    
    22   19   17 1    
    23   34   17 1    
    24   42   18 1    
    25   20   19 1    
    26   35   19 1    
    27   36   19 1    
    28   21   20 1    
    29   37   20 1    
    30   22   21 1    
    31   30   21 1    
    32   23   22 2    
    33   38   22 1    
    34   24   23 1    
    35   25   24 ar   
    36   30   24 ar   
    37   26   25 1    
    38   27   25 ar   
    39   39   26 1    
    40   40   26 1    
    41   28   27 ar   
    42   29   28 ar   
    43   41   28 1    
    44   30   29 ar   
@<TRIPOS>SUBSTRUCTURE
     1 DTP459      1 GROUP   
@<TRIPOS>SET

