#    Name: 4ekg_0QJ_1_INTS_M
#    Modification time : Mon Mar 24 18:07:17 2014

@<TRIPOS>MOLECULE
4ekg_0QJ_1_INTS_M
   90     0     9     0     0
SMALL
NO_CHARGES


@<TRIPOS>ATOM
      1 CA         43.8460   47.4145   11.4855 C.3       3 GLC5        0.0000 
      2 CA         44.0570   46.0530   13.2430 C.3       9 GLL5        0.0000 
      3 CA         43.6350   48.7760    9.7280 C.3       6 GLP5        0.0000 
      4 CA         42.1745   46.8830   13.1235 C.3       3 GLC5        0.0000 
      5 CA         40.2920   47.7130   13.0040 C.3       6 GLP5        0.0000 
      6 CA         43.7485   46.4695   14.7935 C.3       3 GLC5        0.0000 
      7 CA         43.4400   46.8860   16.3440 C.3       6 GLP5        0.0000 
      8 CA         43.8915   44.1340   14.0250 C.3       3 GLC5        0.0000 
      9 CA         43.7260   42.2150   14.8070 C.3       6 GLP5        0.0000 
     10 CA         44.5545   48.3770   11.4595 C.3       3 GLC5        0.0000 
     11 CA         45.4740   47.9780   13.1910 C.3       9 GLL5        0.0000 
     12 CA         44.4570   47.4320   14.7675 C.3       3 GLC5        0.0000 
     13 CA         49.4820   51.4445   -0.3495 C.3       3 GLC5        0.0000 
     14 CA         48.1740   52.8370   -0.5350 C.3       9 GLL5        0.0000 
     15 CA         50.7900   50.0520   -0.1640 C.3       6 GLP5        0.0000 
     16 CA         49.5405   54.0535   -1.1520 C.3       3 GLC5        0.0000 
     17 CA         50.9070   55.2700   -1.7690 C.3       6 GLP5        0.0000 
     18 CA         45.8455   53.2300   -3.5920 C.3       3 GLC5        0.0000 
     19 CA         46.0880   52.8260   -1.8690 C.3       9 GLL5        0.0000 
     20 CA         45.6030   53.6340   -5.3150 C.3       6 GLP5        0.0000 
     21 CA         44.5070   51.6130   -1.6230 C.3       3 GLC5        0.0000 
     22 CA         42.9260   50.4000   -1.3770 C.3       6 GLP5        0.0000 
     23 CA         47.1725   51.4070   -3.1095 C.3       3 GLC5        0.0000 
     24 CA         48.2570   49.9880   -4.3500 C.3       6 GLP5        0.0000 
     25 CA         47.1040   56.9070   -1.3745 C.3       3 GLC5        0.0000 
     26 CA         47.0140   54.9550   -1.0570 C.3       9 GLL5        0.0000 
     27 CA         47.1940   58.8590   -1.6920 C.3       6 GLP5        0.0000 
     28 CA         48.8190   55.6335   -0.9800 C.3       3 GLC5        0.0000 
     29 CA         50.6240   56.3120   -0.9030 C.3       6 GLP5        0.0000 
     30 CA         47.1010   52.0970    2.7450 C.3       3 GLC5        0.0000 
     31 CA         45.7690   52.0520    0.9910 C.3       9 GLL5        0.0000 
     32 CA         48.4330   52.1420    4.4990 C.3       6 GLP5        0.0000 
     33 O          43.2975   51.2505    4.0060 O.2       1 ALC1        0.0000 
     34 O          43.5640   52.7540    3.8160 O.2       7 ALL1        0.0000 
     35 O          43.0310   49.7470    4.1960 O.2       4 ALP1        0.0000 
     36 O          42.4345   51.7605    4.4580 O.2       1 ALC1        0.0000 
     37 O          41.3050   50.7670    5.1000 O.2       4 ALP1        0.0000 
     38 N          45.6640   55.1885    4.8885 N.am      2 SEC2        0.0000 
     39 N          44.0970   54.7040    4.8310 N.am      8 SEL2        0.0000 
     40 N          47.2310   55.6730    4.9460 N.am      5 SEP2        0.0000 
     41 O          41.9375   52.0520    5.4405 O.2       1 ALC1        0.0000 
     42 O          42.5700   53.3370    5.7810 O.2       7 ALL1        0.0000 
     43 CA         41.4230   52.2450    7.6440 C.3       3 GLC5        0.0000 
     44 CA         42.3630   54.1560    6.9880 C.3       9 GLL5        0.0000 
     45 CA         40.4830   50.3340    8.3000 C.3       6 GLP5        0.0000 
     46 CA         41.2605   53.7145    8.8570 C.3       3 GLC5        0.0000 
     47 CA         40.1580   53.2730   10.7260 C.3       6 GLP5        0.0000 
     48 CA         42.0200   53.5325    9.8555 C.3       3 GLC5        0.0000 
     49 CA         43.8820   53.7920    8.9850 C.3       9 GLL5        0.0000 
     50 O          44.0730   51.7850    8.8505 O.2       1 ALC1        0.0000 
     51 O          44.9260   52.7350    9.1080 O.2       7 ALL1        0.0000 
     52 O          43.2200   50.8350    8.5930 O.2       4 ALP1        0.0000 
     53 CA         46.7175   52.9820    6.4870 C.3       3 GLC5        0.0000 
     54 CA         45.9800   52.7020    8.0890 C.3       9 GLL5        0.0000 
     55 CA         47.4550   53.2620    4.8850 C.3       6 GLP5        0.0000 
     56 CA         44.1315   50.3885   10.5645 C.3       3 GLC5        0.0000 
     57 CA         44.6280   52.0010   11.4010 C.3       9 GLL5        0.0000 
     58 CA         43.6500   54.5275   13.2865 C.3       3 GLC5        0.0000 
     59 CA         44.5640   52.6290   12.7810 C.3       9 GLL5        0.0000 
     60 CA         42.7360   56.4260   13.7920 C.3       6 GLP5        0.0000 
     61 O          42.3775   51.9200   12.8485 O.2       1 ALC1        0.0000 
     62 O          43.1830   52.8610   13.0850 O.2       7 ALL1        0.0000 
     63 O          41.5720   50.9790   12.6120 O.2       4 ALP1        0.0000 
     64 O          43.2020   51.0395   14.8260 O.2       1 ALC1        0.0000 
     65 O          44.4180   51.4450   14.9390 O.2       7 ALL1        0.0000 
     66 O          41.9860   50.6340   14.7130 O.2       4 ALP1        0.0000 
     67 CA         44.2750   49.5480   11.3005 C.3       3 GLC5        0.0000 
     68 CA         44.9150   50.3200   12.8730 C.3       9 GLL5        0.0000 
     69 N          44.9460   43.6635   13.0195 N.am      2 SEC2        0.0000 
     70 N          45.2060   45.2880   13.4620 N.am      8 SEL2        0.0000 
     71 N          44.6860   42.0390   12.5770 N.am      5 SEP2        0.0000 
     72 O          47.0475   43.6595   14.2620 O.2       1 ALC1        0.0000 
     73 O          47.5120   45.1810   13.7260 O.2       7 ALL1        0.0000 
     74 O          46.5830   42.1380   14.7980 O.2       4 ALP1        0.0000 
     75 CA         46.4528   46.7087   15.2080 C.3       3 GLC5        0.0000 
     76 CA         46.4040   45.8920   13.5310 C.3       9 GLL5        0.0000 
     77 CA         46.4290   46.8630   16.9530 C.3       6 GLP5        0.0000 
     78 CA         46.2188   53.8110    3.2677 C.3       3 GLC5        0.0000 
     79 CA         44.5800   54.2750    2.2170 C.3       9 GLL5        0.0000 
     80 CA         42.4765   54.1568    2.5688 C.3       3 GLC5        0.0000 
     81 CA         40.4820   54.6830    2.6550 C.3       6 GLP5        0.0000 
     82 CA         44.5872   50.3595    0.9300 C.3       3 GLC5        0.0000 
     83 CA         44.9580   51.8820    2.1170 C.3       9 GLL5        0.0000 
     84 CA         43.8110   48.7520    0.3060 C.3       6 GLP5        0.0000 
     85 CA         46.3377   50.3190    2.4780 C.3       3 GLC5        0.0000 
     86 CA         47.3120   48.6710    3.4020 C.3       6 GLP5        0.0000 
     87 CA         46.0575   52.8480    3.6587 C.3       3 GLC5        0.0000 
     88 CA         43.9315   55.9275    8.9250 C.3       3 GLC5        0.0000 
     89 CA         43.7560   54.3900    7.5890 C.3       9 GLL5        0.0000 
     90 CA         44.0440   57.7640    9.5630 C.3       6 GLP5        0.0000 
@<TRIPOS>BOND
@<TRIPOS>SUBSTRUCTURE
     1 ALC1       33 GROUP        1 X    ALC  0     ROOT ALC X 1
     2 SEC2       38 GROUP        1 X    SEC  0     **** SEC X 2
     3 GLC5        1 GROUP        1 X    GLC  0     **** GLC X 6
     4 ALP1       35 GROUP        1 Y    ALP  0     ROOT ALP Y 8
     5 SEP2       40 GROUP        1 Y    SEP  0     **** SEP Y 9
     6 GLP5        3 GROUP        1 Y    GLP  0     **** GLP Y 13
     7 ALL1       34 GROUP        1 Z    ALL  0     ROOT ALL Z 15
     8 SEL2       39 GROUP        1 Z    SEL  0     **** SEL Z 16
     9 GLL5        2 GROUP        1 Z    GLL  0     **** GLL Z 20
@<TRIPOS>SET

