#    Name: 4ekg_0QJ_1_ligand
#    Modification time : Mon Mar 24 18:07:17 2014

@<TRIPOS>MOLECULE
4ekg_0QJ_1_ligand
   74    77     1     0     0
SMALL
NO_CHARGES


@<TRIPOS>ATOM
      1 C2         44.0570   46.0530   13.2430 C.ar      1 0QJ500      0.0000 
      2 C4         45.4740   47.9780   13.1910 C.ar      1 0QJ500      0.0000 
      3 C5         46.5490   47.2170   13.3950 C.ar      1 0QJ500      0.0000 
      4 C6         46.4040   45.8920   13.5310 C.ar      1 0QJ500      0.0000 
      5 C8         47.2090   49.2740   13.2390 C.2       1 0QJ500      0.0000 
      6 CBA        48.1740   52.8370   -0.5350 C.3       1 0QJ500      0.0000 
      7 CAZ        46.8080   53.4890   -0.6960 C.3       1 0QJ500      0.0000 
      8 CBB        46.0880   52.8260   -1.8690 C.3       1 0QJ500      0.0000 
      9 CBC        47.0140   54.9550   -1.0570 C.3       1 0QJ500      0.0000 
     10 CAY        46.0020   53.3370    0.4640 C.ar      1 0QJ500      0.0000 
     11 CBD        45.3850   54.4450    1.0840 C.ar      1 0QJ500      0.0000 
     12 CBE        44.5800   54.2750    2.2170 C.ar      1 0QJ500      0.0000 
     13 CAX        45.7690   52.0520    0.9910 C.ar      1 0QJ500      0.0000 
     14 CAW        44.9580   51.8820    2.1170 C.ar      1 0QJ500      0.0000 
     15 CAV        44.3620   52.9860    2.7480 C.ar      1 0QJ500      0.0000 
     16 NAU        43.5640   52.7540    3.8160 N.am      1 0QJ500      0.0000 
     17 CAT        43.4430   53.6530    4.8070 C.2       1 0QJ500      0.0000 
     18 OBF        44.0970   54.7040    4.8310 O.2       1 0QJ500      0.0000 
     19 NAS        42.5700   53.3370    5.7810 N.am      1 0QJ500      0.0000 
     20 CAR        42.3630   54.1560    6.9880 C.3       1 0QJ500      0.0000 
     21 CAQ        43.7560   54.3900    7.5890 C.3       1 0QJ500      0.0000 
     22 CAP        43.8820   53.7920    8.9850 C.3       1 0QJ500      0.0000 
     23 NAN        44.9260   52.7350    9.1080 N.4       1 0QJ500      0.0000 
     24 CAO        45.9800   52.7020    8.0890 C.3       1 0QJ500      0.0000 
     25 CAM        45.5260   52.8000   10.4430 C.3       1 0QJ500      0.0000 
     26 CAL        44.6280   52.0010   11.4010 C.3       1 0QJ500      0.0000 
     27 OBG        45.2670   50.7450   11.5740 O.3       1 0QJ500      0.0000 
     28 CAJ        44.5640   52.6290   12.7810 C.3       1 0QJ500      0.0000 
     29 OAK        43.1830   52.8610   13.0850 O.3       1 0QJ500      0.0000 
     30 CAH        45.1490   51.5400   13.6950 C.3       1 0QJ500      0.0000 
     31 OAI        44.4180   51.4450   14.9390 O.3       1 0QJ500      0.0000 
     32 CAG        44.9150   50.3200   12.8730 C.3       1 0QJ500      0.0000 
     33 N9         45.8870   49.2430   13.1100 N.pl3     1 0QJ500      0.0000 
     34 N7         47.6160   48.0230   13.4210 N.2       1 0QJ500      0.0000 
     35 N3         44.2340   47.4360   13.1120 N.ar      1 0QJ500      0.0000 
     36 N1         45.2060   45.2880   13.4620 N.ar      1 0QJ500      0.0000 
     37 N6         47.5120   45.1810   13.7260 N.pl3     1 0QJ500      0.0000 
     38 H          43.1481   45.6326   13.1823 H         1 0QJ500      0.0000 
     39 H          47.7697   50.0606   13.2064 H         1 0QJ500      0.0000 
     40 H          45.5315   55.3859    0.6953 H         1 0QJ500      0.0000 
     41 H          44.1450   55.0875    2.6662 H         1 0QJ500      0.0000 
     42 H          46.2009   51.2350    0.5407 H         1 0QJ500      0.0000 
     43 H          44.7938   50.9357    2.4908 H         1 0QJ500      0.0000 
     44 H          43.0292   51.8499    3.8674 H         1 0QJ500      0.0000 
     45 H          41.9802   52.4708    5.7264 H         1 0QJ500      0.0000 
     46 H          41.7602   53.6361    7.7107 H         1 0QJ500      0.0000 
     47 H          41.9313   55.1091    6.7406 H         1 0QJ500      0.0000 
     48 H          43.9450   55.4657    7.6372 H         1 0QJ500      0.0000 
     49 H          44.5053   53.9393    6.9328 H         1 0QJ500      0.0000 
     50 H          42.8962   53.3786    9.2781 H         1 0QJ500      0.0000 
     51 H          44.0962   54.6128    9.6985 H         1 0QJ500      0.0000 
     52 H          44.3852   51.7409    9.0689 H         1 0QJ500      0.0000 
     53 H          45.5799   53.8208   10.7993 H         1 0QJ500      0.0000 
     54 H          46.5128   52.3551   10.4513 H         1 0QJ500      0.0000 
     55 H          43.6681   51.9039   10.9942 H         1 0QJ500      0.0000 
     56 H          45.1646   53.4716   12.8082 H         1 0QJ500      0.0000 
     57 H          46.1720   51.7058   13.8026 H         1 0QJ500      0.0000 
     58 H          43.9392   49.9962   12.9181 H         1 0QJ500      0.0000 
     59 H          48.3678   45.6977   13.7503 H         1 0QJ500      0.0000 
     60 H          47.3888   44.1941   13.8307 H         1 0QJ500      0.0000 
     61 H          48.7352   52.9430   -1.3559 H         1 0QJ500      0.0000 
     62 H          48.6881   53.2347    0.2249 H         1 0QJ500      0.0000 
     63 H          48.0985   51.8560   -0.3562 H         1 0QJ500      0.0000 
     64 H          46.5976   52.9283   -2.7233 H         1 0QJ500      0.0000 
     65 H          45.9598   51.8455   -1.7198 H         1 0QJ500      0.0000 
     66 H          45.1815   53.2206   -2.0193 H         1 0QJ500      0.0000 
     67 H          47.5213   55.4444   -0.3477 H         1 0QJ500      0.0000 
     68 H          47.5270   55.0591   -1.9090 H         1 0QJ500      0.0000 
     69 H          46.1443   55.4334   -1.1782 H         1 0QJ500      0.0000 
     70 H          46.5043   53.5533    8.0692 H         1 0QJ500      0.0000 
     71 H          46.6310   51.9606    8.2519 H         1 0QJ500      0.0000 
     72 H          45.6056   52.5670    7.1716 H         1 0QJ500      0.0000 
     73 H          42.6765   52.2901   12.4388 H         1 0QJ500      0.0000 
     74 H          43.4615   51.5954   14.6892 H         1 0QJ500      0.0000 
@<TRIPOS>BOND
     1   35    1 ar   
     2   36    1 ar   
     3   38    1 1    
     4    3    2 ar   
     5   33    2 1    
     6   35    2 ar   
     7    4    3 ar   
     8   34    3 1    
     9   36    4 ar   
    10   37    4 1    
    11   33    5 1    
    12   34    5 2    
    13   39    5 1    
    14    7    6 1    
    15   61    6 1    
    16   62    6 1    
    17   63    6 1    
    18    8    7 1    
    19    9    7 1    
    20   10    7 1    
    21   64    8 1    
    22   65    8 1    
    23   66    8 1    
    24   67    9 1    
    25   68    9 1    
    26   69    9 1    
    27   11   10 ar   
    28   13   10 ar   
    29   12   11 ar   
    30   40   11 1    
    31   15   12 ar   
    32   41   12 1    
    33   14   13 ar   
    34   42   13 1    
    35   15   14 ar   
    36   43   14 1    
    37   16   15 1    
    38   17   16 am   
    39   44   16 1    
    40   18   17 2    
    41   19   17 am   
    42   20   19 1    
    43   45   19 1    
    44   21   20 1    
    45   46   20 1    
    46   47   20 1    
    47   22   21 1    
    48   48   21 1    
    49   49   21 1    
    50   23   22 1    
    51   50   22 1    
    52   51   22 1    
    53   24   23 1    
    54   25   23 1    
    55   52   23 1    
    56   70   24 1    
    57   71   24 1    
    58   72   24 1    
    59   26   25 1    
    60   53   25 1    
    61   54   25 1    
    62   27   26 1    
    63   28   26 1    
    64   55   26 1    
    65   32   27 1    
    66   29   28 1    
    67   30   28 1    
    68   56   28 1    
    69   73   29 1    
    70   31   30 1    
    71   32   30 1    
    72   57   30 1    
    73   74   31 1    
    74   33   32 1    
    75   58   32 1    
    76   59   37 1    
    77   60   37 1    
@<TRIPOS>SUBSTRUCTURE
     1 0QJ500      1 GROUP   
@<TRIPOS>SET

