#    Name: 4fsu_HK5_1_INTS_M
#    Modification time : Mon Mar 24 20:42:20 2014

@<TRIPOS>MOLECULE
4fsu_HK5_1_INTS_M
   63     0     9     0     0
SMALL
NO_CHARGES


@<TRIPOS>ATOM
      1 CA          9.7580   -6.6725   12.2745 C.3       3 GLC5        0.0000 
      2 CA         10.8890   -5.1240   12.8010 C.3       9 GLL5        0.0000 
      3 CA          8.6270   -8.2210   11.7480 C.3       6 GLP5        0.0000 
      4 CA         10.5550   -4.7860   14.7150 C.3       3 GLC5        0.0000 
      5 CA         10.2210   -4.4480   16.6290 C.3       6 GLP5        0.0000 
      6 CA         11.2730   -2.5330    9.6650 C.3       3 GLC5        0.0000 
      7 CA         13.0640   -3.1130   10.5610 C.3       9 GLL5        0.0000 
      8 CA          9.4820   -1.9530    8.7690 C.3       6 GLP5        0.0000 
      9 CA         13.0800   -7.1955   11.0465 C.3       3 GLC5        0.0000 
     10 CA         13.1390   -5.4810   12.0830 C.3       9 GLL5        0.0000 
     11 CA         13.0210   -8.9100   10.0100 C.3       6 GLP5        0.0000 
     12 O          14.5385   -1.3465    8.6295 O.2       1 ALC1        0.0000 
     13 O          15.5050   -2.3420    9.0890 O.2       7 ALL1        0.0000 
     14 O          13.5720   -0.3510    8.1700 O.2       4 ALP1        0.0000 
     15 N          17.0030   -0.7900    8.1225 N.am      2 SEC2        0.0000 
     16 N          16.7720   -2.2190    8.6130 N.am      8 SEL2        0.0000 
     17 N          17.2340    0.6390    7.6320 N.am      5 SEP2        0.0000 
     18 CA         17.8930   -4.5455    7.5100 C.3       3 GLC5        0.0000 
     19 CA         18.8850   -3.7210    9.0250 C.3       9 GLL5        0.0000 
     20 CA         16.9010   -5.3700    5.9950 C.3       6 GLP5        0.0000 
     21 CA         16.8210   -4.7350    7.9255 C.3       3 GLC5        0.0000 
     22 CA         16.7410   -4.1000    9.8560 C.3       9 GLL5        0.0000 
     23 CA         17.7930   -3.8630   12.0605 C.3       3 GLC5        0.0000 
     24 CA         17.5750   -5.2250   10.3960 C.3       9 GLL5        0.0000 
     25 CA         18.0110   -2.5010   13.7250 C.3       6 GLP5        0.0000 
     26 CA         20.5890   -5.2170   12.1325 C.3       3 GLC5        0.0000 
     27 CA         20.1660   -5.5410   10.0170 C.3       9 GLL5        0.0000 
     28 CA         21.0120   -4.8930   14.2480 C.3       6 GLP5        0.0000 
     29 CA         21.1640   -1.9250    5.5105 C.3       3 GLC5        0.0000 
     30 CA         22.4140   -2.4510    7.0110 C.3       9 GLL5        0.0000 
     31 CA         19.9140   -1.3990    4.0100 C.3       6 GLP5        0.0000 
     32 CA         21.9660   -0.5440    6.7115 C.3       3 GLC5        0.0000 
     33 CA         21.5180    1.3630    6.4120 C.3       6 GLP5        0.0000 
     34 CA         22.4505   -1.9720    8.9495 C.3       3 GLC5        0.0000 
     35 CA         22.4870   -1.4930   10.8880 C.3       6 GLP5        0.0000 
     36 CA         12.6833   -2.9298   13.4207 C.3       3 GLC5        0.0000 
     37 CA         11.9540   -3.5030   11.2980 C.3       9 GLL5        0.0000 
     38 CA         13.3870   -1.7610   15.1640 C.3       6 GLP5        0.0000 
     39 CA         11.9140   -1.4235   11.1977 C.3       3 GLC5        0.0000 
     40 CA         11.3190    0.4610   11.4660 C.3       6 GLP5        0.0000 
     41 CA         10.1578   -4.1690   10.7518 C.3       3 GLC5        0.0000 
     42 CA          8.6150   -4.1320    9.6400 C.3       6 GLP5        0.0000 
     43 CA         14.9954   -2.9369   11.7261 C.3       3 GLC5        0.0000 
     44 CA         14.2570   -5.0910   11.3530 C.3       9 GLL5        0.0000 
     45 CA         16.0360   -1.5760   12.4880 C.3       6 GLP5        0.0000 
     46 CA         14.4370   -5.6771    9.3706 C.3       3 GLC5        0.0000 
     47 CA         14.2410   -3.8960   10.5900 C.3       9 GLL5        0.0000 
     48 CA         14.0210   -7.3600    8.3200 C.3       6 GLP5        0.0000 
     49 CA         14.0004   -3.5859    8.4111 C.3       3 GLC5        0.0000 
     50 CA         15.4570   -3.4950    9.8710 C.3       9 GLL5        0.0000 
     51 CA         13.4460   -3.6720    6.5990 C.3       6 GLP5        0.0000 
     52 CA         16.0675   -2.6867   11.1758 C.3       3 GLC5        0.0000 
     53 CA         21.5457   -2.5288    9.6630 C.3       3 GLC5        0.0000 
     54 CA         19.9850   -3.2200    8.3590 C.3       9 GLL5        0.0000 
     55 CA         18.4922   -6.3647    8.5950 C.3       3 GLC5        0.0000 
     56 CA         18.9470   -4.8710    9.8460 C.3       9 GLL5        0.0000 
     57 CA         17.7710   -7.4350    7.1210 C.3       6 GLP5        0.0000 
     58 CA         20.1184   -5.1919    7.2375 C.3       3 GLC5        0.0000 
     59 CA         21.3250   -5.0590    9.3440 C.3       9 GLL5        0.0000 
     60 CA         19.2720   -6.0720    5.5840 C.3       6 GLP5        0.0000 
     61 CA         22.2360   -3.4560   10.1632 C.3       3 GLC5        0.0000 
     62 CA         21.2555   -6.6427    6.2338 C.3       3 GLC5        0.0000 
     63 CA         23.2940   -6.6010    7.2080 C.3       9 GLL5        0.0000 
@<TRIPOS>BOND
@<TRIPOS>SUBSTRUCTURE
     1 ALC1       12 GROUP        1 X    ALC  0     ROOT ALC X 1
     2 SEC2       15 GROUP        1 X    SEC  0     **** SEC X 2
     3 GLC5        1 GROUP        1 X    GLC  0     **** GLC X 6
     4 ALP1       14 GROUP        1 Y    ALP  0     ROOT ALP Y 8
     5 SEP2       17 GROUP        1 Y    SEP  0     **** SEP Y 9
     6 GLP5        3 GROUP        1 Y    GLP  0     **** GLP Y 13
     7 ALL1       13 GROUP        1 Z    ALL  0     ROOT ALL Z 15
     8 SEL2       16 GROUP        1 Z    SEL  0     **** SEL Z 16
     9 GLL5        2 GROUP        1 Z    GLL  0     **** GLL Z 20
@<TRIPOS>SET

