#    Name: 4fsu_HK5_1_ligand
#    Modification time : Mon Mar 24 20:42:20 2014

@<TRIPOS>MOLECULE
4fsu_HK5_1_ligand
   45    49     1     0     0
SMALL
NO_CHARGES


@<TRIPOS>ATOM
      1 N5          9.9830   -5.4820   13.3970 N.1       1 HK5301      0.0000 
      2 C22        10.8890   -5.1240   12.8010 C.1       1 HK5301      0.0000 
      3 C19        12.0050   -4.6940   12.0570 C.ar      1 HK5301      0.0000 
      4 C18        11.9540   -3.5030   11.2980 C.ar      1 HK5301      0.0000 
      5 C17        13.0640   -3.1130   10.5610 C.ar      1 HK5301      0.0000 
      6 C20        13.1390   -5.4810   12.0830 C.ar      1 HK5301      0.0000 
      7 C21        14.2570   -5.0910   11.3530 C.ar      1 HK5301      0.0000 
      8 C16        14.2410   -3.8960   10.5900 C.ar      1 HK5301      0.0000 
      9 C15        15.4570   -3.4950    9.8710 C.2       1 HK5301      0.0000 
     10 N4         15.5050   -2.3420    9.0890 N.pl3     1 HK5301      0.0000 
     11 N3         16.7720   -2.2190    8.6130 N.2       1 HK5301      0.0000 
     12 C14        17.5400   -3.2620    9.0620 C.2       1 HK5301      0.0000 
     13 C4         18.8850   -3.7210    9.0250 C.ar      1 HK5301      0.0000 
     14 C3         19.9850   -3.2200    8.3590 C.ar      1 HK5301      0.0000 
     15 C13        16.7410   -4.1000    9.8560 C.2       1 HK5301      0.0000 
     16 C12        17.5750   -5.2250   10.3960 C.3       1 HK5301      0.0000 
     17 C5         18.9470   -4.8710    9.8460 C.ar      1 HK5301      0.0000 
     18 C6         20.1660   -5.5410   10.0170 C.ar      1 HK5301      0.0000 
     19 C7         21.3250   -5.0590    9.3440 C.ar      1 HK5301      0.0000 
     20 C2         21.2240   -3.9090    8.5170 C.ar      1 HK5301      0.0000 
     21 O          22.3820   -3.5700    7.8730 O.3       1 HK5301      0.0000 
     22 C1         22.4140   -2.4510    7.0110 C.3       1 HK5301      0.0000 
     23 C8         22.6450   -5.7790    9.5330 C.3       1 HK5301      0.0000 
     24 N1         22.7940   -6.8100    8.5010 N.pl3     1 HK5301      0.0000 
     25 C11        22.4280   -8.1500    8.5970 C.2       1 HK5301      0.0000 
     26 N2         22.6390   -8.7850    7.4190 N.2       1 HK5301      0.0000 
     27 C10        23.1840   -7.8260    6.5590 C.2       1 HK5301      0.0000 
     28 C9         23.2940   -6.6010    7.2080 C.2       1 HK5301      0.0000 
     29 H          11.1010   -2.9407   11.2990 H         1 HK5301      0.0000 
     30 H          13.0418   -2.2607    9.9931 H         1 HK5301      0.0000 
     31 H          13.1617   -6.3457   12.6338 H         1 HK5301      0.0000 
     32 H          15.1089   -5.6667   11.3591 H         1 HK5301      0.0000 
     33 H          14.7712   -1.7594    8.9297 H         1 HK5301      0.0000 
     34 H          19.9373   -2.3989    7.7772 H         1 HK5301      0.0000 
     35 H          17.2571   -6.1471    9.9938 H         1 HK5301      0.0000 
     36 H          17.5958   -5.1967   11.4505 H         1 HK5301      0.0000 
     37 H          20.2328   -6.3615   10.6116 H         1 HK5301      0.0000 
     38 H          22.6606   -6.2256   10.5292 H         1 HK5301      0.0000 
     39 H          23.4543   -5.0490    9.4683 H         1 HK5301      0.0000 
     40 H          22.0732   -8.5531    9.4048 H         1 HK5301      0.0000 
     41 H          23.4441   -7.9941    5.6494 H         1 HK5301      0.0000 
     42 H          23.6284   -5.8053    6.8624 H         1 HK5301      0.0000 
     43 H          23.3196   -2.3182    6.6083 H         1 HK5301      0.0000 
     44 H          21.7678   -2.5468    6.2539 H         1 HK5301      0.0000 
     45 H          22.1798   -1.6056    7.4910 H         1 HK5301      0.0000 
@<TRIPOS>BOND
     1    2    1 3    
     2    3    2 1    
     3    4    3 ar   
     4    6    3 ar   
     5    5    4 ar   
     6   29    4 1    
     7    8    5 ar   
     8   30    5 1    
     9    7    6 ar   
    10   31    6 1    
    11    8    7 ar   
    12   32    7 1    
    13    9    8 1    
    14   10    9 1    
    15   15    9 2    
    16   11   10 1    
    17   33   10 1    
    18   12   11 2    
    19   13   12 1    
    20   15   12 1    
    21   14   13 ar   
    22   17   13 ar   
    23   20   14 ar   
    24   34   14 1    
    25   16   15 1    
    26   17   16 1    
    27   35   16 1    
    28   36   16 1    
    29   18   17 ar   
    30   19   18 ar   
    31   37   18 1    
    32   20   19 ar   
    33   23   19 1    
    34   21   20 1    
    35   22   21 1    
    36   43   22 1    
    37   44   22 1    
    38   45   22 1    
    39   24   23 1    
    40   38   23 1    
    41   39   23 1    
    42   25   24 1    
    43   28   24 1    
    44   26   25 2    
    45   40   25 1    
    46   27   26 1    
    47   28   27 2    
    48   41   27 1    
    49   42   28 1    
@<TRIPOS>SUBSTRUCTURE
     1 HK5301      1 GROUP   
@<TRIPOS>SET

