#    Name: 3bv2_P38_1_INTS_M
#    Modification time : Mon Mar 24 20:06:53 2014

@<TRIPOS>MOLECULE
3bv2_P38_1_INTS_M
  124     0     9     0     0
SMALL
NO_CHARGES


@<TRIPOS>ATOM
      1 CA         -0.0030   -5.8850   26.6445 C.3       3 GLC5        0.0000 
      2 CA         -0.2280   -3.6620   26.6750 C.3       9 GLL5        0.0000 
      3 CA          0.2220   -8.1080   26.6140 C.3       6 GLP5        0.0000 
      4 CA          1.0305   -4.3565   27.0690 C.3       3 GLC5        0.0000 
      5 CA          2.2890   -5.0510   27.4630 C.3       6 GLP5        0.0000 
      6 CA          1.9480    1.3975   15.0590 C.3       3 GLC5        0.0000 
      7 CA          1.0670    2.4780   13.4420 C.3       9 GLL5        0.0000 
      8 CA          2.8290    0.3170   16.6760 C.3       6 GLP5        0.0000 
      9 N          -1.4935    3.1975   23.0330 N.am      2 SEC2        0.0000 
     10 N          -2.4590    2.2540   22.4020 N.am      8 SEL2        0.0000 
     11 N          -0.5280    4.1410   23.6640 N.am      5 SEP2        0.0000 
     12 CA         -0.7320    0.5150   20.5910 C.3       3 GLC5        0.0000 
     13 CA         -2.7790    0.0060   21.2370 C.3       9 GLL5        0.0000 
     14 CA          1.3150    1.0240   19.9450 C.3       6 GLP5        0.0000 
     15 CA         -3.7470   -3.0130   23.6375 C.3       3 GLC5        0.0000 
     16 CA         -2.4500   -1.5140   22.8980 C.3       9 GLL5        0.0000 
     17 CA         -5.0440   -4.5120   24.3770 C.3       6 GLP5        0.0000 
     18 CA         -4.6385   -2.4760   20.6965 C.3       3 GLC5        0.0000 
     19 CA         -2.8580   -2.6610   20.5020 C.3       9 GLL5        0.0000 
     20 CA         -6.4190   -2.2910   20.8910 C.3       6 GLP5        0.0000 
     21 CA         -2.0840   -2.9805   18.5240 C.3       3 GLC5        0.0000 
     22 CA         -1.3100   -3.3000   16.5460 C.3       6 GLP5        0.0000 
     23 CA         -3.8600   -4.4535   21.3200 C.3       3 GLC5        0.0000 
     24 CA         -4.8620   -6.2460   22.1380 C.3       6 GLP5        0.0000 
     25 CA         -1.5785   -4.1475   20.9215 C.3       3 GLC5        0.0000 
     26 CA         -0.2990   -5.6340   21.3410 C.3       6 GLP5        0.0000 
     27 N          -2.5860   -4.9840   23.2590 N.am      2 SEC2        0.0000 
     28 N          -2.5680   -3.6960   23.4820 N.am      8 SEL2        0.0000 
     29 N          -2.6040   -6.2720   23.0360 N.am      5 SEP2        0.0000 
     30 O          -1.0320   -0.9815   25.6645 O.2       1 ALC1        0.0000 
     31 O          -1.6840   -2.0030   24.9620 O.2       7 ALL1        0.0000 
     32 O          -0.3800    0.0400   26.3670 O.2       4 ALP1        0.0000 
     33 O          -4.0235   -1.2385   18.2950 O.2       1 ALC1        0.0000 
     34 O          -3.3300    0.1510   18.9590 O.2       7 ALL1        0.0000 
     35 O          -4.7170   -2.6280   17.6310 O.2       4 ALP1        0.0000 
     36 CA         -6.9210    1.7820   14.9070 C.3       3 GLC5        0.0000 
     37 CA         -5.5350    1.4210   16.0450 C.3       9 GLL5        0.0000 
     38 CA         -8.3070    2.1430   13.7690 C.3       6 GLP5        0.0000 
     39 CA         -5.7885    3.1105   14.2150 C.3       3 GLC5        0.0000 
     40 CA         -4.5020    1.9940   15.3150 C.3       9 GLL5        0.0000 
     41 CA         -7.0750    4.2270   13.1150 C.3       6 GLP5        0.0000 
     42 CA         -1.8640   -0.4560   16.2605 C.3       3 GLC5        0.0000 
     43 CA         -2.7150    1.3850   17.0610 C.3       9 GLL5        0.0000 
     44 CA         -1.0130   -2.2970   15.4600 C.3       6 GLP5        0.0000 
     45 CA         -6.3805   -1.1120   19.5035 C.3       3 GLC5        0.0000 
     46 CA         -6.3420    0.0670   18.1160 C.3       9 GLL5        0.0000 
     47 CA         -8.3270   -0.0435   18.7815 C.3       3 GLC5        0.0000 
     48 CA        -10.3120   -0.1540   19.4470 C.3       6 GLP5        0.0000 
     49 CA         -7.0825    1.8580   18.1360 C.3       3 GLC5        0.0000 
     50 CA         -7.8230    3.6490   18.1560 C.3       6 GLP5        0.0000 
     51 CA         -7.7905   -0.9855   16.8600 C.3       3 GLC5        0.0000 
     52 CA         -9.2390   -2.0380   15.6040 C.3       6 GLP5        0.0000 
     53 CA         -5.5620   -1.0610   16.6815 C.3       3 GLC5        0.0000 
     54 CA         -4.7820   -2.1890   15.2470 C.3       6 GLP5        0.0000 
     55 O          -2.8750    3.7695   14.4665 O.2       1 ALC1        0.0000 
     56 O          -2.2140    2.6620   14.9740 O.2       7 ALL1        0.0000 
     57 O          -3.5360    4.8770   13.9590 O.2       4 ALP1        0.0000 
     58 N           1.0410    2.1195   16.1865 N.am      2 SEC2        0.0000 
     59 N          -0.1690    1.5720   15.6070 N.am      8 SEL2        0.0000 
     60 N           2.2510    2.6670   16.7660 N.am      5 SEP2        0.0000 
     61 CA          0.8645    5.1840   10.4370 C.3       3 GLC5        0.0000 
     62 CA          0.2560    4.7960   12.3830 C.3       9 GLL5        0.0000 
     63 CA          1.4730    5.5720    8.4910 C.3       6 GLP5        0.0000 
     64 CA          2.0660   -0.0330   13.3410 C.3       3 GLC5        0.0000 
     65 CA          3.4800    1.2660   12.8530 C.3       9 GLL5        0.0000 
     66 CA          0.6520   -1.3320   13.8290 C.3       6 GLP5        0.0000 
     67 CA          3.1545    0.7915   14.7645 C.3       3 GLC5        0.0000 
     68 CA          3.0775    3.0060   14.1815 C.3       3 GLC5        0.0000 
     69 CA          2.6750    4.7460   15.5100 C.3       6 GLP5        0.0000 
     70 CA          3.8430   -0.0620   10.1190 C.3       3 GLC5        0.0000 
     71 CA          4.5050    0.4330   12.1230 C.3       9 GLL5        0.0000 
     72 CA          3.1810   -0.5570    8.1150 C.3       6 GLP5        0.0000 
     73 CA          5.9495   -0.5415   11.2105 C.3       3 GLC5        0.0000 
     74 CA          7.3940   -1.5160   10.2980 C.3       6 GLP5        0.0000 
     75 CA          5.7200    0.0620   13.7230 C.3       3 GLC5        0.0000 
     76 CA          6.9350   -0.3090   15.3230 C.3       6 GLP5        0.0000 
     77 CA          6.7650    1.7780    9.5935 C.3       3 GLC5        0.0000 
     78 CA          5.3920    2.4260   11.0600 C.3       9 GLL5        0.0000 
     79 CA          8.1380    1.1300    8.1270 C.3       6 GLP5        0.0000 
     80 CA          5.7635    3.0385    9.0940 C.3       3 GLC5        0.0000 
     81 CA          6.1350    3.6510    7.1280 C.3       6 GLP5        0.0000 
     82 CA          3.3370    3.4080    9.5105 C.3       3 GLC5        0.0000 
     83 CA          4.2530    3.3140   11.5620 C.3       9 GLL5        0.0000 
     84 CA          2.4210    3.5020    7.4590 C.3       6 GLP5        0.0000 
     85 CA          3.4640    4.0300   13.5360 C.3       3 GLC5        0.0000 
     86 CA         -4.6543   -0.5390   27.3990 C.3       3 GLC5        0.0000 
     87 CA         -3.3940   -2.0640   27.5530 C.3       9 GLL5        0.0000 
     88 CA         -5.3010    1.1490   26.9220 C.3       6 GLP5        0.0000 
     89 CA         -4.5257   -3.3695   26.1265 C.3       3 GLC5        0.0000 
     90 CA         -3.1437   -1.1760   28.8320 C.3       3 GLC5        0.0000 
     91 CA         -2.2800   -0.1250   29.7880 C.3       6 GLP5        0.0000 
     92 CA         -1.0447   -2.7298   28.5168 C.3       3 GLC5        0.0000 
     93 CA         -2.6750   -3.1160   26.9230 C.3       9 GLL5        0.0000 
     94 CA         -0.9520   -2.1510   30.3970 C.3       6 GLP5        0.0000 
     95 CA         -5.6087   -5.1975   26.7658 C.3       3 GLC5        0.0000 
     96 CA         -4.3950   -4.7980   27.5870 C.3       9 GLL5        0.0000 
     97 CA         -6.4680   -6.1290   25.6320 C.3       6 GLP5        0.0000 
     98 CA         -4.6045   -0.7158   16.4193 C.3       3 GLC5        0.0000 
     99 CA         -3.6960    0.7600   17.8220 C.3       9 GLL5        0.0000 
    100 CA         -6.5848    2.3685   17.4295 C.3       3 GLC5        0.0000 
    101 CA         -5.1580    0.7550   17.3610 C.3       9 GLL5        0.0000 
    102 CA          0.5575    0.7228   13.7405 C.3       3 GLC5        0.0000 
    103 CA         -0.1410    3.0770   13.8620 C.3       9 GLL5        0.0000 
    104 CA         -4.6160    3.7260   16.0815 C.3       3 GLC5        0.0000 
    105 CA         -3.1380    1.9920   15.7970 C.3       9 GLL5        0.0000 
    106 CA         -5.4120    5.4590   16.6070 C.3       6 GLP5        0.0000 
    107 CA         -3.9375    2.0235   13.6680 C.3       3 GLC5        0.0000 
    108 CA         -4.0550    2.0540   11.7800 C.3       6 GLP5        0.0000 
    109 CA         -4.5825   -1.5123   21.1320 C.3       3 GLC5        0.0000 
    110 CA         -3.6067   -3.9025   25.4891 C.3       3 GLC5        0.0000 
    111 CA         -1.4190   -2.7940   26.2730 C.3       9 GLL5        0.0000 
    112 CA         -4.9002   -0.2408   15.4635 C.3       3 GLC5        0.0000 
    113 CA          1.9287    3.8444   14.2830 C.3       3 GLC5        0.0000 
    114 CA         -1.5780    4.8885   12.3459 C.3       3 GLC5        0.0000 
    115 CA         -3.0950    5.5270   11.7040 C.3       6 GLP5        0.0000 
    116 CA          1.2477    4.6548   14.1815 C.3       3 GLC5        0.0000 
    117 CA         -0.6150    4.3310   13.3230 C.3       9 GLL5        0.0000 
    118 CA         -1.0440    2.1111   12.5887 C.3       3 GLC5        0.0000 
    119 CA         -2.0120    0.6680   11.6900 C.3       6 GLP5        0.0000 
    120 CA          3.8397   -0.9338   11.8215 C.3       3 GLC5        0.0000 
    121 CA          3.6870   -2.7170   11.1550 C.3       6 GLP5        0.0000 
    122 CA          5.4422    1.9388   13.3940 C.3       3 GLC5        0.0000 
    123 CA          6.8920    3.0280   14.3000 C.3       6 GLP5        0.0000 
    124 CA          5.8573    2.9490   12.8055 C.3       3 GLC5        0.0000 
@<TRIPOS>BOND
@<TRIPOS>SUBSTRUCTURE
     1 ALC1       30 GROUP        1 X    ALC  0     ROOT ALC X 1
     2 SEC2        9 GROUP        1 X    SEC  0     **** SEC X 2
     3 GLC5        1 GROUP        1 X    GLC  0     **** GLC X 6
     4 ALP1       32 GROUP        1 Y    ALP  0     ROOT ALP Y 8
     5 SEP2       11 GROUP        1 Y    SEP  0     **** SEP Y 9
     6 GLP5        3 GROUP        1 Y    GLP  0     **** GLP Y 13
     7 ALL1       31 GROUP        1 Z    ALL  0     ROOT ALL Z 15
     8 SEL2       10 GROUP        1 Z    SEL  0     **** SEL Z 16
     9 GLL5        2 GROUP        1 Z    GLL  0     **** GLL Z 20
@<TRIPOS>SET

