#    Name: 3bv2_P38_1_ligand
#    Modification time : Mon Mar 24 20:06:53 2014

@<TRIPOS>MOLECULE
3bv2_P38_1_ligand
   74    79     1     0     0
SMALL
NO_CHARGES


@<TRIPOS>ATOM
      1 C18        -4.6210   -2.3900   28.1990 C.ar      1 P38501      0.0000 
      2 C17        -3.3940   -2.0640   27.5530 C.ar      1 P38501      0.0000 
      3 C16        -2.6750   -3.1160   26.9230 C.ar      1 P38501      0.0000 
      4 C15        -0.2280   -3.6620   26.6750 C.2       1 P38501      0.0000 
      5 C19        -5.1040   -3.7340   28.2120 C.ar      1 P38501      0.0000 
      6 C20        -4.3950   -4.7980   27.5870 C.ar      1 P38501      0.0000 
      7 C21        -3.1650   -4.4680   26.9360 C.ar      1 P38501      0.0000 
      8 C23        -3.6960    0.7600   17.8220 C.ar      1 P38501      0.0000 
      9 C24        -5.1580    0.7550   17.3610 C.ar      1 P38501      0.0000 
     10 C11        -2.2820   -2.5240   23.7620 C.2       1 P38501      0.0000 
     11 C34         1.0670    2.4780   13.4420 C.ar      1 P38501      0.0000 
     12 C27        -3.1380    1.9920   15.7970 C.ar      1 P38501      0.0000 
     13 C33        -0.1410    3.0770   13.8620 C.ar      1 P38501      0.0000 
     14 N1         -2.5110    0.7680   22.4150 N.pl3     1 P38501      0.0000 
     15 N2         -2.4590    2.2540   22.4020 N.2       1 P38501      0.0000 
     16 C3         -2.4540    2.8430   21.1750 C.2       1 P38501      0.0000 
     17 N4         -2.8990    2.1270   20.0870 N.2       1 P38501      0.0000 
     18 C5         -3.0100    0.7870   20.1140 C.2       1 P38501      0.0000 
     19 C6         -2.7790    0.0060   21.2370 C.2       1 P38501      0.0000 
     20 C7         -2.7130   -1.4730   21.5090 C.2       1 P38501      0.0000 
     21 C8         -2.4500   -1.5140   22.8980 C.2       1 P38501      0.0000 
     22 C9         -2.3150   -0.1640   23.3680 C.2       1 P38501      0.0000 
     23 C10        -2.8580   -2.6610   20.5020 C.3       1 P38501      0.0000 
     24 O12        -2.5680   -3.6960   23.4820 O.2       1 P38501      0.0000 
     25 N13        -1.6840   -2.0030   24.9620 N.am      1 P38501      0.0000 
     26 C14        -1.4190   -2.7940   26.2730 C.2       1 P38501      0.0000 
     27 N22        -3.3300    0.1510   18.9590 N.pl3     1 P38501      0.0000 
     28 C25        -5.5350    1.4210   16.0450 C.ar      1 P38501      0.0000 
     29 C26        -4.5020    1.9940   15.3150 C.ar      1 P38501      0.0000 
     30 C28        -2.7150    1.3850   17.0610 C.ar      1 P38501      0.0000 
     31 C29        -6.3420    0.0670   18.1160 C.3       1 P38501      0.0000 
     32 N30        -2.2140    2.6620   14.9740 N.am      1 P38501      0.0000 
     33 C31        -0.8420    2.3370   14.8910 C.2       1 P38501      0.0000 
     34 O32        -0.1690    1.5720   15.6070 O.2       1 P38501      0.0000 
     35 C35         1.9020    3.1080   12.4600 C.ar      1 P38501      0.0000 
     36 N36         1.4660    4.2550   11.9600 N.ar      1 P38501      0.0000 
     37 C37         0.2560    4.7960   12.3830 C.ar      1 P38501      0.0000 
     38 C38        -0.6150    4.3310   13.3230 C.ar      1 P38501      0.0000 
     39 N39         3.1150    2.5080   12.0900 N.3       1 P38501      0.0000 
     40 C40         3.4800    1.2660   12.8530 C.3       1 P38501      0.0000 
     41 C41         4.5050    0.4330   12.1230 C.3       1 P38501      0.0000 
     42 O42         5.5990    1.2240   11.8600 O.3       1 P38501      0.0000 
     43 C43         5.3920    2.4260   11.0600 C.3       1 P38501      0.0000 
     44 C44         4.2530    3.3140   11.5620 C.3       1 P38501      0.0000 
     45 H          -5.1625   -1.6557   28.6584 H         1 P38501      0.0000 
     46 H          -3.0499   -1.1228   27.5437 H         1 P38501      0.0000 
     47 H          -5.9951   -3.9378   28.6901 H         1 P38501      0.0000 
     48 H          -4.7376   -5.7328   27.6005 H         1 P38501      0.0000 
     49 H          -2.6250   -5.1999   26.4732 H         1 P38501      0.0000 
     50 H           1.3601    1.5800   13.8388 H         1 P38501      0.0000 
     51 H          -2.1233    3.8104   21.0550 H         1 P38501      0.0000 
     52 H          -2.0972    0.0177   24.3131 H         1 P38501      0.0000 
     53 H          -1.3855   -1.0058   24.9990 H         1 P38501      0.0000 
     54 H          -3.2846   -0.9246   18.9623 H         1 P38501      0.0000 
     55 H          -6.4836    1.4124   15.7794 H         1 P38501      0.0000 
     56 H          -4.6867    2.4388   14.4024 H         1 P38501      0.0000 
     57 H          -1.7583    1.4367   17.3321 H         1 P38501      0.0000 
     58 H          -2.5659    3.4570   14.3811 H         1 P38501      0.0000 
     59 H          -0.0294    5.7310   11.8823 H         1 P38501      0.0000 
     60 H          -1.4293    4.7396   13.6139 H         1 P38501      0.0000 
     61 H           2.5776    0.6619   13.0212 H         1 P38501      0.0000 
     62 H           3.8780    1.5460   13.8382 H         1 P38501      0.0000 
     63 H           4.0275    0.0459   11.2115 H         1 P38501      0.0000 
     64 H           4.7440   -0.4300   12.7607 H         1 P38501      0.0000 
     65 H           5.1739    2.1593   10.0052 H         1 P38501      0.0000 
     66 H           6.3152    3.0411   11.0348 H         1 P38501      0.0000 
     67 H           4.6440    3.9722   12.3473 H         1 P38501      0.0000 
     68 H           3.9130    3.9470   10.7333 H         1 P38501      0.0000 
     69 H          -2.1569   -2.6316   19.7895 H         1 P38501      0.0000 
     70 H          -2.7752   -3.5469   20.9584 H         1 P38501      0.0000 
     71 H          -3.7452   -2.6507   20.0408 H         1 P38501      0.0000 
     72 H          -6.1967   -0.9173   18.2162 H         1 P38501      0.0000 
     73 H          -6.4631    0.4405   19.0357 H         1 P38501      0.0000 
     74 H          -7.2099    0.1876   17.6341 H         1 P38501      0.0000 
@<TRIPOS>BOND
     1    2    1 ar   
     2    5    1 ar   
     3   45    1 1    
     4    3    2 ar   
     5   46    2 1    
     6    7    3 ar   
     7   26    3 1    
     8   26    4 2    
     9    6    5 ar   
    10   47    5 1    
    11    7    6 ar   
    12   48    6 1    
    13   49    7 1    
    14    9    8 ar   
    15   27    8 1    
    16   30    8 ar   
    17   28    9 ar   
    18   31    9 1    
    19   21   10 1    
    20   24   10 2    
    21   25   10 am   
    22   13   11 ar   
    23   35   11 ar   
    24   50   11 1    
    25   29   12 ar   
    26   30   12 ar   
    27   32   12 1    
    28   33   13 1    
    29   38   13 ar   
    30   15   14 1    
    31   19   14 1    
    32   22   14 1    
    33   16   15 2    
    34   17   16 1    
    35   51   16 1    
    36   18   17 2    
    37   19   18 1    
    38   27   18 1    
    39   20   19 2    
    40   21   20 1    
    41   23   20 1    
    42   22   21 2    
    43   52   22 1    
    44   69   23 1    
    45   70   23 1    
    46   71   23 1    
    47   26   25 1    
    48   53   25 1    
    49   54   27 1    
    50   29   28 ar   
    51   55   28 1    
    52   56   29 1    
    53   57   30 1    
    54   72   31 1    
    55   73   31 1    
    56   74   31 1    
    57   33   32 am   
    58   58   32 1    
    59   34   33 2    
    60   36   35 ar   
    61   39   35 1    
    62   37   36 ar   
    63   38   37 ar   
    64   59   37 1    
    65   60   38 1    
    66   40   39 1    
    67   44   39 1    
    68   41   40 1    
    69   61   40 1    
    70   62   40 1    
    71   42   41 1    
    72   63   41 1    
    73   64   41 1    
    74   43   42 1    
    75   44   43 1    
    76   65   43 1    
    77   66   43 1    
    78   67   44 1    
    79   68   44 1    
@<TRIPOS>SUBSTRUCTURE
     1 P38501      1 GROUP   
@<TRIPOS>SET

