#    Name: 1t5t_ADP_1_INTS_M
#    Modification time : Tue Mar 25 04:24:31 2014

@<TRIPOS>MOLECULE
1t5t_ADP_1_INTS_M
   72     0    15     0     0
SMALL
NO_CHARGES


@<TRIPOS>ATOM
      1 N         -17.6805    3.1990   11.7865 N.am      2 SEC2        0.0000 
      2 N         -16.2400    3.4830   11.8950 N.am     12 SEL2        0.0000 
      3 N         -19.1210    2.9150   11.6780 N.am      7 SEP2        0.0000 
      4 NZ        -18.7920    2.4915   12.0785 N.4       3 LYC4        0.0000 
      5 NZ        -17.4030    1.4800   13.0010 N.4      13 LYL4        0.0000 
      6 NZ        -20.1810    3.5030   11.1560 N.4       8 LYP4        0.0000 
      7 Zn        -17.4600    0.6325   13.7215 Zn        4 ZIC7        0.0000 
      8 Zn        -17.4030    1.4800   13.0010 Zn       14 ZIL7        0.0000 
      9 Zn        -17.5170   -0.2150   14.4420 Zn        9 ZIP7        0.0000 
     10 N         -17.3260    3.8845   14.6930 N.am      2 SEC2        0.0000 
     11 N         -16.3060    3.1550   14.4200 N.am     12 SEL2        0.0000 
     12 N         -18.3460    4.6140   14.9660 N.am      7 SEP2        0.0000 
     13 N         -15.3905    4.4705   14.5835 N.am      2 SEC2        0.0000 
     14 N         -14.4750    5.7860   14.7470 N.am      7 SEP2        0.0000 
     15 NZ        -14.8030   -2.0255   12.8055 N.4       3 LYC4        0.0000 
     16 NZ        -15.6390   -0.8380   12.8870 N.4      13 LYL4        0.0000 
     17 NZ        -14.6760   -4.3200   12.7930 N.4       8 LYP4        0.0000 
     18 Zn        -16.5780   -0.5265   13.6645 Zn        4 ZIC7        0.0000 
     19 Zn        -15.6390   -0.8380   12.8870 Zn       14 ZIL7        0.0000 
     20 N         -14.8030   -2.0255   12.8055 N.am      2 SEC2        0.0000 
     21 N         -15.6390   -0.8380   12.8870 N.am     12 SEL2        0.0000 
     22 N         -13.9670   -3.2130   12.7240 N.am      7 SEP2        0.0000 
     23 N         -15.7935   -2.5655   13.0370 N.am      2 SEC2        0.0000 
     24 N         -15.9480   -4.2930   13.1870 N.am      7 SEP2        0.0000 
     25 CA        -13.4560    2.2750   10.9840 C.3       5 GLC5        0.0000 
     26 CA        -14.5550    1.0320    9.6920 C.3      15 GLL5        0.0000 
     27 CA        -12.3570    3.5180   12.2760 C.3      10 GLP5        0.0000 
     28 CA        -15.0675    2.6185    6.5765 C.3       5 GLC5        0.0000 
     29 CA        -15.3500    1.7040    8.5890 C.3      15 GLL5        0.0000 
     30 CA        -14.7850    3.5330    4.5640 C.3      10 GLP5        0.0000 
     31 N         -15.2190    4.4845    8.5415 N.am      2 SEC2        0.0000 
     32 N         -16.2020    3.9250    9.3420 N.am     12 SEL2        0.0000 
     33 N         -14.2360    5.0440    7.7410 N.am      7 SEP2        0.0000 
     34 N         -15.7115    4.2515    7.2990 N.am      2 SEC2        0.0000 
     35 N         -17.1870    3.4590    6.8570 N.am     12 SEL2        0.0000 
     36 O         -17.3745    4.7980    6.9590 O.2       1 ALC1        0.0000 
     37 O         -17.1870    3.4590    6.8570 O.2      11 ALL1        0.0000 
     38 O         -17.5620    6.1370    7.0610 O.2       6 ALP1        0.0000 
     39 CA        -16.6365   -0.7135    7.2155 C.3       5 GLC5        0.0000 
     40 CA        -17.1740    1.1530    7.2410 C.3      15 GLL5        0.0000 
     41 CA        -16.0990   -2.5800    7.1900 C.3      10 GLP5        0.0000 
     42 CA        -18.8590   -4.4020    6.8690 C.3       5 GLC5        0.0000 
     43 CA        -20.0770   -2.8360    6.8010 C.3      15 GLL5        0.0000 
     44 CA        -17.6410   -5.9680    6.9370 C.3      10 GLP5        0.0000 
     45 CA        -20.4840   -4.7445    5.7265 C.3       5 GLC5        0.0000 
     46 CA        -20.8910   -6.6530    4.6520 C.3      10 GLP5        0.0000 
     47 CA        -21.6255   -2.7100    5.6375 C.3       5 GLC5        0.0000 
     48 CA        -23.1740   -2.5840    4.4740 C.3      10 GLP5        0.0000 
     49 O         -22.1395   -4.5820    7.0260 O.2       1 ALC1        0.0000 
     50 O         -20.8650   -3.6900    7.4810 O.2      11 ALL1        0.0000 
     51 O         -23.4140   -5.4740    6.5710 O.2       6 ALP1        0.0000 
     52 N         -21.2465   -3.4820    4.9330 N.am      2 SEC2        0.0000 
     53 N         -19.9220   -2.9760    5.4780 N.am     12 SEL2        0.0000 
     54 N         -22.5710   -3.9880    4.3880 N.am      7 SEP2        0.0000 
     55 CA        -17.4075   -2.3200    3.8700 C.3       5 GLC5        0.0000 
     56 CA        -19.1430   -2.0930    4.8280 C.3      15 GLL5        0.0000 
     57 CA        -15.6720   -2.5470    2.9120 C.3      10 GLP5        0.0000 
     58 CA        -18.9825   -3.8790    4.0770 C.3       5 GLC5        0.0000 
     59 CA        -18.8220   -5.6650    3.3260 C.3      10 GLP5        0.0000 
     60 CA        -20.4535   -1.8800    3.6825 C.3       5 GLC5        0.0000 
     61 CA        -21.7640   -1.6670    2.5370 C.3      10 GLP5        0.0000 
     62 CA        -18.4985   -0.7565    3.6120 C.3       5 GLC5        0.0000 
     63 CA        -17.8540    0.5800    2.3960 C.3      10 GLP5        0.0000 
     64 CA        -19.3795    0.8680    5.9775 C.3       5 GLC5        0.0000 
     65 CA        -18.5870   -0.8090    6.7270 C.3      15 GLL5        0.0000 
     66 CA        -20.1720    2.5450    5.2280 C.3      10 GLP5        0.0000 
     67 CA        -15.3582   -0.5790    8.8343 C.3       5 GLC5        0.0000 
     68 CA        -15.7640   -2.5260    8.5280 C.3      10 GLP5        0.0000 
     69 CA        -13.3637    0.9400    7.9242 C.3       5 GLC5        0.0000 
     70 CA        -11.7750    0.5120    6.7080 C.3      10 GLP5        0.0000 
     71 CA        -16.0652    2.6780    6.0553 C.3       5 GLC5        0.0000 
     72 CA        -18.7587    2.1840    6.3872 C.3       5 GLC5        0.0000 
@<TRIPOS>BOND
@<TRIPOS>SUBSTRUCTURE
     1 ALC1       36 GROUP        1 X    ALC  0     ROOT ALC X 1
     2 SEC2        1 GROUP        1 X    SEC  0     **** SEC X 2
     3 LYC4        4 GROUP        1 X    LYC  0     **** LYC X 4
     4 ZIC7        7 GROUP        1 X    ZIC  0     **** ZIC X 5
     5 GLC5       25 GROUP        1 X    GLC  0     **** GLC X 6
     6 ALP1       38 GROUP        1 Y    ALP  0     ROOT ALP Y 8
     7 SEP2        3 GROUP        1 Y    SEP  0     **** SEP Y 9
     8 LYP4        6 GROUP        1 Y    LYP  0     **** LYP Y 11
     9 ZIP7        9 GROUP        1 Y    ZIP  0     **** ZIP Y 12
    10 GLP5       27 GROUP        1 Y    GLP  0     **** GLP Y 13
    11 ALL1       37 GROUP        1 Z    ALL  0     ROOT ALL Z 15
    12 SEL2        2 GROUP        1 Z    SEL  0     **** SEL Z 16
    13 LYL4        5 GROUP        1 Z    LYL  0     **** LYL Z 18
    14 ZIL7        8 GROUP        1 Z    ZIL  0     **** ZIL Z 19
    15 GLL5       26 GROUP        1 Z    GLL  0     **** GLL Z 20
@<TRIPOS>SET

