#    Name: 1t5t_ADP_1_ligand
#    Modification time : Tue Mar 25 04:24:31 2014

@<TRIPOS>MOLECULE
1t5t_ADP_1_ligand
   39    41     1     0     0
SMALL
NO_CHARGES


@<TRIPOS>ATOM
      1 PB        -16.3060    2.5110   13.0490 P.3       1 ADP1001     0.0000 
      2 O1B       -16.2400    3.4830   11.8950 O.co2     1 ADP1001     0.0000 
      3 O2B       -17.4030    1.4800   13.0010 O.co2     1 ADP1001     0.0000 
      4 O3B       -16.3060    3.1550   14.4200 O.co2     1 ADP1001     0.0000 
      5 PA        -14.8290    0.2220   12.1720 P.3       1 ADP1001     0.0000 
      6 O1A       -15.6390   -0.8380   12.8870 O.co2     1 ADP1001     0.0000 
      7 O2A       -13.3470   -0.0560   11.9450 O.co2     1 ADP1001     0.0000 
      8 O3A       -14.9290    1.6930   12.8470 O.3       1 ADP1001     0.0000 
      9 O5'       -15.4330    0.5650   10.7220 O.3       1 ADP1001     0.0000 
     10 C5'       -14.5550    1.0320    9.6920 C.3       1 ADP1001     0.0000 
     11 C4'       -15.3500    1.7040    8.5890 C.3       1 ADP1001     0.0000 
     12 O4'       -15.9010    0.7000    7.7460 O.3       1 ADP1001     0.0000 
     13 C3'       -16.5530    2.5720    9.0230 C.3       1 ADP1001     0.0000 
     14 O3'       -16.2020    3.9250    9.3420 O.3       1 ADP1001     0.0000 
     15 C2'       -17.5170    2.4930    7.8520 C.3       1 ADP1001     0.0000 
     16 O2'       -17.1870    3.4590    6.8570 O.3       1 ADP1001     0.0000 
     17 C1'       -17.1740    1.1530    7.2410 C.3       1 ADP1001     0.0000 
     18 N9        -18.1010    0.0800    7.5860 N.pl3     1 ADP1001     0.0000 
     19 C8        -18.5390   -0.1830    8.8050 C.2       1 ADP1001     0.0000 
     20 N7        -19.3520   -1.2580    8.7660 N.2       1 ADP1001     0.0000 
     21 C5        -19.4170   -1.7150    7.5060 C.ar      1 ADP1001     0.0000 
     22 C6        -20.0770   -2.8360    6.8010 C.ar      1 ADP1001     0.0000 
     23 N6        -20.8650   -3.6900    7.4810 N.pl3     1 ADP1001     0.0000 
     24 N1        -19.9220   -2.9760    5.4780 N.ar      1 ADP1001     0.0000 
     25 C2        -19.1430   -2.0930    4.8280 C.ar      1 ADP1001     0.0000 
     26 N3        -18.4960   -1.0490    5.4010 N.ar      1 ADP1001     0.0000 
     27 C4        -18.5870   -0.8090    6.7270 C.ar      1 ADP1001     0.0000 
     28 H         -13.9844    0.2059    9.2452 H         1 ADP1001     0.0000 
     29 H         -13.8304    1.7606   10.0814 H         1 ADP1001     0.0000 
     30 H         -14.6866    2.3365    8.0009 H         1 ADP1001     0.0000 
     31 H         -17.0223    2.0583    9.8561 H         1 ADP1001     0.0000 
     32 H         -18.4878    2.4947    8.1696 H         1 ADP1001     0.0000 
     33 H         -17.1127    1.2515    6.1684 H         1 ADP1001     0.0000 
     34 H         -18.3175    0.3142    9.6168 H         1 ADP1001     0.0000 
     35 H         -21.6483   -4.0592    6.9808 H         1 ADP1001     0.0000 
     36 H         -20.5968   -3.8790    8.4256 H         1 ADP1001     0.0000 
     37 H         -19.0207   -2.2227    3.7646 H         1 ADP1001     0.0000 
     38 H         -16.1387    3.9475   10.3397 H         1 ADP1001     0.0000 
     39 H         -17.4785    4.3353    7.2405 H         1 ADP1001     0.0000 
@<TRIPOS>BOND
     1    2    1 ar   
     2    3    1 ar   
     3    4    1 ar   
     4    8    1 1    
     5    6    5 ar   
     6    7    5 ar   
     7    8    5 1    
     8    9    5 1    
     9   10    9 1    
    10   11   10 1    
    11   28   10 1    
    12   29   10 1    
    13   12   11 1    
    14   13   11 1    
    15   30   11 1    
    16   17   12 1    
    17   14   13 1    
    18   15   13 1    
    19   31   13 1    
    20   38   14 1    
    21   16   15 1    
    22   17   15 1    
    23   32   15 1    
    24   39   16 1    
    25   18   17 1    
    26   33   17 1    
    27   19   18 1    
    28   27   18 1    
    29   20   19 2    
    30   34   19 1    
    31   21   20 1    
    32   22   21 ar   
    33   27   21 ar   
    34   23   22 1    
    35   24   22 ar   
    36   35   23 1    
    37   36   23 1    
    38   25   24 ar   
    39   26   25 ar   
    40   37   25 1    
    41   27   26 ar   
@<TRIPOS>SUBSTRUCTURE
     1 ADP1001     1 GROUP   
@<TRIPOS>SET

