#    Name: 4HYX_1_CAVITY_N1_ALL.mol2
#    Modification time : Tue Mar 11 03:47:28 2014

@<TRIPOS>MOLECULE
4HYX_1_CAVITY_N1_ALL.mol2
   53     0     5     0     0
SMALL
NO_CHARGES


@<TRIPOS>ATOM
      1 CA        -16.7814   -6.5727   -4.6070 C.3       4 GLY6        0.0000 
      2 O         -16.7091   -7.6264   -3.5418 O.2       2 ALA2        0.0000 
      3 CA        -22.2389    1.9944    2.1251 C.3       4 GLY6        0.0000 
      4 CA        -21.4097    1.1343    1.2181 C.3       4 GLY6        0.0000 
      5 CA        -21.3374    0.0806    2.2833 C.3       4 GLY6        0.0000 
      6 CA        -22.7300    1.5554   -0.3881 C.3       4 GLY6        0.0000 
      7 OG        -22.6576    0.5017    0.6771 O.2       1 SER1        0.0000 
      8 OG        -22.5853   -0.5519    1.7423 O.2       1 SER1        0.0000 
      9 CA        -22.5130   -1.6055    2.8075 C.3       4 GLY6        0.0000 
     10 CA        -20.6529    1.3277   -0.7542 C.3       4 GLY6        0.0000 
     11 CA        -20.5806    0.2741    0.3110 C.3       4 GLY6        0.0000 
     12 N         -20.5083   -0.7795    1.3762 N.2       2 ALA2        0.0000 
     13 CZ        -21.9008    0.6952   -1.2951 C.ar      3 PHE5        0.0000 
     14 DU        -21.8285   -0.3584   -0.2299 H         5 CUB7        0.0000 
     15 DU        -21.7562   -1.4120    0.8353 H         5 CUB7        0.0000 
     16 CA        -21.6839   -2.4656    1.9005 C.3       4 GLY6        0.0000 
     17 CA        -23.1487    0.0627   -1.8361 C.3       4 GLY6        0.0000 
     18 OG        -23.0764   -0.9909   -0.7708 O.2       1 SER1        0.0000 
     19 OG        -23.0041   -2.0445    0.2944 O.2       1 SER1        0.0000 
     20 OG        -22.9318   -3.0981    1.3596 O.2       1 SER1        0.0000 
     21 CZ        -19.7515   -0.5860   -0.5960 C.ar      3 PHE5        0.0000 
     22 CA        -19.6792   -1.6396    0.4692 C.3       4 GLY6        0.0000 
     23 CZ        -21.0717   -0.1649   -2.2022 C.ar      3 PHE5        0.0000 
     24 CZ        -20.9994   -1.2185   -1.1370 C.ar      3 PHE5        0.0000 
     25 CA        -20.9271   -2.2721   -0.0718 C.3       4 GLY6        0.0000 
     26 CA        -20.8548   -3.3257    0.9935 C.3       4 GLY6        0.0000 
     27 CA        -22.3196   -0.7974   -2.7431 C.3       4 GLY6        0.0000 
     28 CA        -22.2473   -1.8510   -1.6779 C.3       4 GLY6        0.0000 
     29 CA        -22.1750   -2.9046   -0.6127 C.3       4 GLY6        0.0000 
     30 CA        -22.1027   -3.9583    0.4525 C.3       4 GLY6        0.0000 
     31 CZ        -20.1703   -2.0786   -2.0440 C.ar      3 PHE5        0.0000 
     32 CA        -20.0980   -3.1323   -0.9788 C.3       4 GLY6        0.0000 
     33 CA        -20.0256   -4.1859    0.0864 C.3       4 GLY6        0.0000 
     34 N         -19.9533   -5.2395    1.1516 N.2       2 ALA2        0.0000 
     35 CA        -21.3459   -3.7648   -1.5197 C.3       4 GLY6        0.0000 
     36 CA        -21.2736   -4.8184   -0.4545 C.3       4 GLY6        0.0000 
     37 CA        -21.2013   -5.8720    0.6107 C.3       4 GLY6        0.0000 
     38 CZ        -19.3411   -2.9388   -2.9511 C.ar      3 PHE5        0.0000 
     39 CZ        -19.2688   -3.9924   -1.8858 C.ar      3 PHE5        0.0000 
     40 CZ        -19.1965   -5.0460   -0.8206 C.ar      3 PHE5        0.0000 
     41 CA        -19.1242   -6.0996    0.2446 C.3       4 GLY6        0.0000 
     42 CA        -20.5167   -4.6249   -2.4268 C.3       4 GLY6        0.0000 
     43 CA        -20.4444   -5.6785   -1.3616 C.3       4 GLY6        0.0000 
     44 CZ        -20.3721   -6.7321   -0.2964 C.ar      3 PHE5        0.0000 
     45 CA        -18.4397   -4.8525   -2.7929 C.3       4 GLY6        0.0000 
     46 CZ        -18.3674   -5.9061   -1.7277 C.ar      3 PHE5        0.0000 
     47 CA        -19.6153   -6.5386   -2.2686 C.3       4 GLY6        0.0000 
     48 OG        -16.3626   -5.0801   -3.1590 O.2       1 SER1        0.0000 
     49 CZ        -16.2903   -6.1337   -2.0938 C.ar      3 PHE5        0.0000 
     50 CA        -17.6106   -5.7126   -3.6999 C.3       4 GLY6        0.0000 
     51 CA        -17.5383   -6.7662   -2.6347 C.3       4 GLY6        0.0000 
     52 OG        -15.5335   -5.9402   -4.0661 O.2       1 SER1        0.0000 
     53 OG        -15.4612   -6.9938   -3.0008 O.2       1 SER1        0.0000 
@<TRIPOS>BOND
@<TRIPOS>SUBSTRUCTURE
     1 SER1        7 GROUP   
     2 ALA2        2 GROUP   
     3 PHE5       13 GROUP   
     4 GLY6        1 GROUP   
     5 CUB7       14 GROUP   
@<TRIPOS>SET

