#    Name: 4hyx_RET_1_INTS_M
#    Modification time : Tue Mar 25 02:01:25 2014

@<TRIPOS>MOLECULE
4hyx_RET_1_INTS_M
   86     0     3     0     0
SMALL
NO_CHARGES


@<TRIPOS>ATOM
      1 CA        -22.0335    2.1575    1.2380 C.3       1 GLC5        0.0000 
      2 CA        -23.6440    0.6900    1.5450 C.3       3 GLL5        0.0000 
      3 CA        -20.4230    3.6250    0.9310 C.3       2 GLP5        0.0000 
      4 CA        -24.9715   -1.9390    3.4235 C.3       1 GLC5        0.0000 
      5 CA        -23.7040   -0.5890    2.3000 C.3       3 GLL5        0.0000 
      6 CA        -26.2390   -3.2890    4.5470 C.3       2 GLP5        0.0000 
      7 CA        -22.7375   -4.3470   -0.3165 C.3       1 GLC5        0.0000 
      8 CA        -21.3990   -2.9080    0.2650 C.3       3 GLL5        0.0000 
      9 CA        -24.0760   -5.7860   -0.8980 C.3       2 GLP5        0.0000 
     10 CA        -20.6310   -3.0605    2.2640 C.3       1 GLC5        0.0000 
     11 CA        -19.8630   -3.2130    4.2630 C.3       2 GLP5        0.0000 
     12 CA        -18.5105   -2.8360   -3.4555 C.3       1 GLC5        0.0000 
     13 CA        -18.8670   -4.3200   -1.8770 C.3       3 GLL5        0.0000 
     14 CA        -18.1540   -1.3520   -5.0340 C.3       2 GLP5        0.0000 
     15 CA        -17.6395   -3.4195   -1.1130 C.3       1 GLC5        0.0000 
     16 CA        -16.4120   -2.5190   -0.3490 C.3       2 GLP5        0.0000 
     17 CA        -15.5850   -8.4510   -5.8945 C.3       1 GLC5        0.0000 
     18 CA        -15.0400   -6.5910   -5.6420 C.3       3 GLL5        0.0000 
     19 CA        -16.1300  -10.3110   -6.1470 C.3       2 GLP5        0.0000 
     20 CA        -14.0110   -7.7135   -4.1610 C.3       1 GLC5        0.0000 
     21 CA        -12.9820   -8.8360   -2.6800 C.3       2 GLP5        0.0000 
     22 CA        -22.1225    1.1280   -2.6935 C.3       1 GLC5        0.0000 
     23 CA        -22.2740   -0.3360   -1.5610 C.3       3 GLL5        0.0000 
     24 CA        -21.9710    2.5920   -3.8260 C.3       2 GLP5        0.0000 
     25 CA        -20.3920   -0.0060   -2.4775 C.3       1 GLC5        0.0000 
     26 CA        -18.5100    0.3240   -3.3940 C.3       2 GLP5        0.0000 
     27 CA        -22.5420   -1.6670   -3.0740 C.3       1 GLC5        0.0000 
     28 CA        -22.8100   -2.9980   -4.5870 C.3       2 GLP5        0.0000 
     29 CA        -23.9405    0.9320   -1.6850 C.3       1 GLC5        0.0000 
     30 CA        -25.6070    2.2000   -1.8090 C.3       2 GLP5        0.0000 
     31 CA        -19.4285    0.1455   -1.7655 C.3       1 GLC5        0.0000 
     32 CA        -20.3470   -0.0330   -0.1370 C.3       3 GLL5        0.0000 
     33 CA        -19.0495   -1.4815    0.7990 C.3       1 GLC5        0.0000 
     34 CA        -17.7520   -2.9300    1.7350 C.3       2 GLP5        0.0000 
     35 CA        -24.6900   -3.1235    3.6040 C.3       1 GLC5        0.0000 
     36 CA        -23.1410   -2.9580    2.6610 C.3       3 GLL5        0.0000 
     37 CA        -23.7555   -4.7110    2.5220 C.3       1 GLC5        0.0000 
     38 CA        -24.3700   -6.4640    2.3830 C.3       2 GLP5        0.0000 
     39 CA        -22.0400   -3.0635    3.9665 C.3       1 GLC5        0.0000 
     40 CA        -20.9390   -3.1690    5.2720 C.3       2 GLP5        0.0000 
     41 CA        -20.9595   -5.9995    1.6280 C.3       1 GLC5        0.0000 
     42 CA        -20.1360   -5.6010   -0.1720 C.3       3 GLL5        0.0000 
     43 CA        -21.7830   -6.3980    3.4280 C.3       2 GLP5        0.0000 
     44 CA        -20.4655   -7.3860   -0.5100 C.3       1 GLC5        0.0000 
     45 CA        -20.7950   -9.1710   -0.8480 C.3       2 GLP5        0.0000 
     46 CA        -17.9135   -7.1145   -4.4775 C.3       1 GLC5        0.0000 
     47 CA        -16.3260   -7.5300   -3.7160 C.3       3 GLL5        0.0000 
     48 CA        -19.5010   -6.6990   -5.2390 C.3       2 GLP5        0.0000 
     49 CA        -16.2280   -8.9205   -4.9315 C.3       1 GLC5        0.0000 
     50 CA        -17.5460   -8.7315   -2.7905 C.3       1 GLC5        0.0000 
     51 CA        -18.7660   -9.9330   -1.8650 C.3       2 GLP5        0.0000 
     52 CA        -14.6540   -8.1830   -3.1980 C.3       1 GLC5        0.0000 
     53 CA        -24.3350    1.4820   -0.3663 C.3       1 GLC5        0.0000 
     54 CA        -22.4820    0.8380    0.6080 C.3       3 GLL5        0.0000 
     55 CA        -23.5420    1.2403    3.4058 C.3       1 GLC5        0.0000 
     56 CA        -23.4100    2.4300    4.8890 C.3       2 GLP5        0.0000 
     57 CA        -22.3227   -1.4812    3.7483 C.3       1 GLC5        0.0000 
     58 CA        -21.3100   -1.7870    5.4850 C.3       2 GLP5        0.0000 
     59 CA        -23.7647   -3.0275   -0.0542 C.3       1 GLC5        0.0000 
     60 CA        -22.9670   -1.7620    1.7230 C.3       3 GLL5        0.0000 
     61 CA        -24.9890   -4.3340   -1.2860 C.3       2 GLP5        0.0000 
     62 CA        -25.0817   -0.7114    1.3944 C.3       1 GLC5        0.0000 
     63 CA        -26.8430   -0.5670    0.9660 C.3       2 GLP5        0.0000 
     64 CA        -19.3162   -2.9573    0.7880 C.3       1 GLC5        0.0000 
     65 CA        -18.8502   -3.9545    0.6025 C.3       1 GLC5        0.0000 
     66 CA        -19.7610   -4.3570   -0.8880 C.3       3 GLL5        0.0000 
     67 CA        -19.0010   -5.7765   -3.6913 C.3       1 GLC5        0.0000 
     68 CA        -16.4173   -4.3978   -2.0303 C.3       1 GLC5        0.0000 
     69 CA        -18.1350   -5.3880   -2.4100 C.3       3 GLL5        0.0000 
     70 CA        -15.4860   -2.9680   -1.3090 C.3       2 GLP5        0.0000 
     71 CA        -16.9317   -4.1967   -4.9580 C.3       1 GLC5        0.0000 
     72 CA        -17.2270   -5.0690   -3.2830 C.3       3 GLL5        0.0000 
     73 CA        -17.0340   -2.8240   -6.2930 C.3       2 GLP5        0.0000 
     74 CA        -18.1653   -6.1342   -4.4310 C.3       1 GLC5        0.0000 
     75 CA        -15.4578   -4.9988   -2.7947 C.3       1 GLC5        0.0000 
     76 CA        -16.4320   -6.0700   -3.9630 C.3       3 GLL5        0.0000 
     77 CA        -14.8210   -4.1660   -1.1190 C.3       2 GLP5        0.0000 
     78 CA        -16.2162   -4.4580   -5.8015 C.3       1 GLC5        0.0000 
     79 CA        -15.7570   -5.5930   -4.9780 C.3       3 GLL5        0.0000 
     80 CA        -17.4498   -6.3955   -5.2745 C.3       1 GLC5        0.0000 
     81 CA        -14.7168   -6.1550   -6.7420 C.3       1 GLC5        0.0000 
     82 CA        -14.0350   -6.2180   -8.1740 C.3       2 GLP5        0.0000 
     83 CA        -20.8390    1.8681    0.4948 C.3       1 GLC5        0.0000 
     84 CA        -21.6004   -5.3275   -1.4209 C.3       1 GLC5        0.0000 
     85 CA        -20.3620   -3.0610   -0.5830 C.3       3 GLL5        0.0000 
     86 CA        -23.1020   -6.0000   -2.3880 C.3       2 GLP5        0.0000 
@<TRIPOS>BOND
@<TRIPOS>SUBSTRUCTURE
     1 GLC5        1 GROUP        1 X    GLC  0     ROOT GLC X 6
     2 GLP5        3 GROUP        1 Y    GLP  0     ROOT GLP Y 13
     3 GLL5        2 GROUP        1 Z    GLL  0     ROOT GLL Z 20
@<TRIPOS>SET

