#    Name: 4hyx_RET_1_ligand
#    Modification time : Tue Mar 25 02:01:25 2014

@<TRIPOS>MOLECULE
4hyx_RET_1_ligand
   47    47     1     0     0
SMALL
NO_CHARGES


@<TRIPOS>ATOM
      1 C1        -21.8440   -0.3270   -0.1000 C.3       1 RET301      0.0000 
      2 C2        -22.4820    0.8380    0.6080 C.3       1 RET301      0.0000 
      3 C3        -23.6440    0.6900    1.5450 C.3       1 RET301      0.0000 
      4 C4        -23.7040   -0.5890    2.3000 C.3       1 RET301      0.0000 
      5 C5        -22.9670   -1.7620    1.7230 C.2       1 RET301      0.0000 
      6 C6        -22.1140   -1.6800    0.6320 C.2       1 RET301      0.0000 
      7 C7        -21.3990   -2.9080    0.2650 C.2       1 RET301      0.0000 
      8 C8        -20.3620   -3.0610   -0.5830 C.2       1 RET301      0.0000 
      9 C9        -19.7610   -4.3570   -0.8880 C.2       1 RET301      0.0000 
     10 C10       -18.8670   -4.3200   -1.8770 C.2       1 RET301      0.0000 
     11 C11       -18.1350   -5.3880   -2.4100 C.2       1 RET301      0.0000 
     12 C12       -17.2270   -5.0690   -3.2830 C.2       1 RET301      0.0000 
     13 C13       -16.4320   -6.0700   -3.9630 C.2       1 RET301      0.0000 
     14 C14       -15.7570   -5.5930   -4.9780 C.2       1 RET301      0.0000 
     15 C15       -15.0400   -6.5910   -5.6420 C.2       1 RET301      0.0000 
     16 C16       -22.2740   -0.3360   -1.5610 C.3       1 RET301      0.0000 
     17 C17       -20.3470   -0.0330   -0.1370 C.3       1 RET301      0.0000 
     18 C18       -23.1410   -2.9580    2.6610 C.3       1 RET301      0.0000 
     19 C19       -20.1360   -5.6010   -0.1720 C.3       1 RET301      0.0000 
     20 C20       -16.3260   -7.5300   -3.7160 C.3       1 RET301      0.0000 
     21 H         -22.7709    1.6142   -0.1902 H         1 RET301      0.0000 
     22 H         -21.6503    1.4035    1.1662 H         1 RET301      0.0000 
     23 H         -24.5902    0.8186    0.9644 H         1 RET301      0.0000 
     24 H         -23.6319    1.5427    2.2672 H         1 RET301      0.0000 
     25 H         -24.7808   -0.8803    2.4411 H         1 RET301      0.0000 
     26 H         -23.3304   -0.4141    3.3460 H         1 RET301      0.0000 
     27 H         -21.7901   -3.7900    0.7670 H         1 RET301      0.0000 
     28 H         -19.9332   -2.2382   -1.0705 H         1 RET301      0.0000 
     29 H         -18.6647   -3.3545   -2.3420 H         1 RET301      0.0000 
     30 H         -18.3387   -6.3324   -2.1017 H         1 RET301      0.0000 
     31 H         -17.0156   -4.0752   -3.5468 H         1 RET301      0.0000 
     32 H         -15.7270   -4.6519   -5.2763 H         1 RET301      0.0000 
     33 H         -21.9995    0.5011   -2.0341 H         1 RET301      0.0000 
     34 H         -21.8707   -1.1016   -2.0621 H         1 RET301      0.0000 
     35 H         -23.2664   -0.4141   -1.6556 H         1 RET301      0.0000 
     36 H         -19.9647    0.0637    0.7820 H         1 RET301      0.0000 
     37 H         -19.8363   -0.7627   -0.5916 H         1 RET301      0.0000 
     38 H         -20.1470    0.8147   -0.6283 H         1 RET301      0.0000 
     39 H         -22.6700   -3.7707    2.3179 H         1 RET301      0.0000 
     40 H         -22.7760   -2.7709    3.5730 H         1 RET301      0.0000 
     41 H         -24.1037   -3.2034    2.7752 H         1 RET301      0.0000 
     42 H         -19.6242   -6.3916   -0.5081 H         1 RET301      0.0000 
     43 H         -19.9582   -5.5325    0.8097 H         1 RET301      0.0000 
     44 H         -21.1073   -5.8132   -0.2799 H         1 RET301      0.0000 
     45 H         -15.6888   -7.9686   -4.3498 H         1 RET301      0.0000 
     46 H         -16.0018   -7.7276   -2.7909 H         1 RET301      0.0000 
     47 H         -17.2078   -7.9896   -3.8220 H         1 RET301      0.0000 
@<TRIPOS>BOND
     1    2    1 1    
     2    6    1 1    
     3   16    1 1    
     4   17    1 1    
     5    3    2 1    
     6   21    2 1    
     7   22    2 1    
     8    4    3 1    
     9   23    3 1    
    10   24    3 1    
    11    5    4 1    
    12   25    4 1    
    13   26    4 1    
    14    6    5 2    
    15   18    5 1    
    16    7    6 1    
    17    8    7 2    
    18   27    7 1    
    19    9    8 1    
    20   28    8 1    
    21   10    9 2    
    22   19    9 1    
    23   11   10 1    
    24   29   10 1    
    25   12   11 2    
    26   30   11 1    
    27   13   12 1    
    28   31   12 1    
    29   14   13 2    
    30   20   13 1    
    31   15   14 1    
    32   32   14 1    
    33   33   16 1    
    34   34   16 1    
    35   35   16 1    
    36   36   17 1    
    37   37   17 1    
    38   38   17 1    
    39   39   18 1    
    40   40   18 1    
    41   41   18 1    
    42   42   19 1    
    43   43   19 1    
    44   44   19 1    
    45   45   20 1    
    46   46   20 1    
    47   47   20 1    
@<TRIPOS>SUBSTRUCTURE
     1 RET301      1 GROUP   
@<TRIPOS>SET

