#    Name: 4ncg_2KW_1_INTS_M
#    Modification time : Tue Mar 25 13:00:27 2014

@<TRIPOS>MOLECULE
4ncg_2KW_1_INTS_M
   81     0     9     0     0
SMALL
NO_CHARGES


@<TRIPOS>ATOM
      1 CA         10.2745    9.9770   16.3305 C.3       3 GLC5        0.0000 
      2 CA         10.2180   11.7640   16.3350 C.3       9 GLL5        0.0000 
      3 CA         10.3310    8.1900   16.3260 C.3       6 GLP5        0.0000 
      4 CA          8.3885   14.2650   14.3400 C.3       3 GLC5        0.0000 
      5 CA          8.9110   12.4570   13.9840 C.3       9 GLL5        0.0000 
      6 CA          7.8660   16.0730   14.6960 C.3       6 GLP5        0.0000 
      7 CA         11.5765   11.0375   22.4650 C.3       3 GLC5        0.0000 
      8 CA          9.7250   10.9220   22.0720 C.3       9 GLL5        0.0000 
      9 CA         13.4280   11.1530   22.8580 C.3       6 GLP5        0.0000 
     10 CA          8.1725    9.7385   22.0205 C.3       3 GLC5        0.0000 
     11 CA          6.6200    8.5550   21.9690 C.3       6 GLP5        0.0000 
     12 CA         10.4740   10.0810   17.4980 C.3       3 GLC5        0.0000 
     13 CA         10.6170   11.9720   18.6700 C.3       9 GLL5        0.0000 
     14 CA         10.2780   14.6845   17.4715 C.3       3 GLC5        0.0000 
     15 CA         10.7010   13.3400   18.8050 C.3       9 GLL5        0.0000 
     16 CA          9.8550   16.0290   16.1380 C.3       6 GLP5        0.0000 
     17 CA          6.7565    8.6260   18.0805 C.3       3 GLC5        0.0000 
     18 CA          5.9390    9.3180   16.4390 C.3       9 GLL5        0.0000 
     19 CA          7.5740    7.9340   19.7220 C.3       6 GLP5        0.0000 
     20 CA          5.3975   10.3145   18.0965 C.3       3 GLC5        0.0000 
     21 CA          4.8560   11.3110   19.7540 C.3       6 GLP5        0.0000 
     22 CA          4.3160    8.4565   15.2195 C.3       3 GLC5        0.0000 
     23 CA          2.6930    7.5950   14.0000 C.3       6 GLP5        0.0000 
     24 CA          7.2150   13.6585   15.9590 C.3       3 GLC5        0.0000 
     25 CA          6.7150   11.9450   14.8630 C.3       9 GLL5        0.0000 
     26 CA          7.7150   15.3720   17.0550 C.3       6 GLP5        0.0000 
     27 CA          5.0530   12.4405   15.0595 C.3       3 GLC5        0.0000 
     28 CA          3.3910   12.9360   15.2560 C.3       6 GLP5        0.0000 
     29 CA          9.0685   14.6305   18.5440 C.3       3 GLC5        0.0000 
     30 CA         10.4220   13.8890   20.0330 C.3       9 GLL5        0.0000 
     31 CA         14.4140   10.0995   15.4980 C.3       3 GLC5        0.0000 
     32 CA         12.9040   11.0340   15.5480 C.3       9 GLL5        0.0000 
     33 CA         15.9240    9.1650   15.4480 C.3       6 GLP5        0.0000 
     34 CA         10.8970   17.4985   20.2195 C.3       3 GLC5        0.0000 
     35 CA         10.5010   15.5860   20.1730 C.3       9 GLL5        0.0000 
     36 CA         11.2930   19.4110   20.2660 C.3       6 GLP5        0.0000 
     37 CA         10.1780   15.8075   18.1555 C.3       3 GLC5        0.0000 
     38 CA         12.2160   16.3980   19.0000 C.3       3 GLC5        0.0000 
     39 CA         13.9310   17.2100   17.8270 C.3       6 GLP5        0.0000 
     40 CA         12.0880   14.4225   20.6235 C.3       3 GLC5        0.0000 
     41 CA         13.6750   13.2590   21.0740 C.3       6 GLP5        0.0000 
     42 CA         10.0575   16.5010   21.8040 C.3       3 GLC5        0.0000 
     43 CA          9.6140   17.4160   23.4350 C.3       6 GLP5        0.0000 
     44 CA         11.3370   14.5085   16.2650 C.3       3 GLC5        0.0000 
     45 CA         12.8190   12.9880   16.3920 C.3       9 GLL5        0.0000 
     46 CA         14.0310   13.7200   13.4110 C.3       3 GLC5        0.0000 
     47 CA         13.0820   12.6300   14.2090 C.3       9 GLL5        0.0000 
     48 CA         14.9800   14.8100   12.6130 C.3       6 GLP5        0.0000 
     49 N           7.0915   10.5655   11.4430 N.am      2 SEC2        0.0000 
     50 N           6.6510   10.2920   13.0150 N.am      8 SEL2        0.0000 
     51 N           7.5320   10.8390    9.8710 N.am      5 SEP2        0.0000 
     52 O           6.9170    8.5130   11.6985 O.2       1 ALC1        0.0000 
     53 O           6.4100    8.9580   12.9200 O.2       7 ALL1        0.0000 
     54 O           7.4240    8.0680   10.4770 O.2       4 ALP1        0.0000 
     55 CA         10.1283   14.1466   15.5326 C.3       3 GLC5        0.0000 
     56 CA         10.9060   12.1810   15.2640 C.3       9 GLL5        0.0000 
     57 CA         10.1255   11.8938   12.1382 C.3       3 GLC5        0.0000 
     58 CA         10.2410   12.5560   14.0550 C.3       9 GLL5        0.0000 
     59 CA         10.6750   11.2810   10.2570 C.3       6 GLP5        0.0000 
     60 CA          9.9341   10.6174   14.1134 C.3       3 GLC5        0.0000 
     61 CA         10.1260    8.8220   13.9050 C.3       6 GLP5        0.0000 
     62 CA          8.8403   12.3639   22.9155 C.3       3 GLC5        0.0000 
     63 CA          7.6860   12.5120   24.5110 C.3       6 GLP5        0.0000 
     64 CA          8.4693   13.0670   20.6845 C.3       3 GLC5        0.0000 
     65 CA         10.1050   13.1030   21.1230 C.3       9 GLL5        0.0000 
     66 CA          6.6750   12.6380   20.7910 C.3       6 GLP5        0.0000 
     67 CA         12.0505   11.5682   19.7270 C.3       3 GLC5        0.0000 
     68 CA         10.0430   11.7350   20.9620 C.3       9 GLL5        0.0000 
     69 CA         13.9310   11.6890   19.1040 C.3       6 GLP5        0.0000 
     70 CA         10.7862    9.4031   20.8727 C.3       3 GLC5        0.0000 
     71 CA         10.2970   11.1600   19.7380 C.3       9 GLL5        0.0000 
     72 CA         11.4820    7.5620   21.1180 C.3       6 GLP5        0.0000 
     73 CA          8.3827   11.9411   20.7092 C.3       3 GLC5        0.0000 
     74 CA         11.3893   10.2330   14.6710 C.3       3 GLC5        0.0000 
     75 CA         12.4010   12.2540   15.3260 C.3       9 GLL5        0.0000 
     76 CA         12.2357   12.4808   19.2446 C.3       3 GLC5        0.0000 
     77 CA         13.3334   12.0025   17.5092 C.3       3 GLC5        0.0000 
     78 CA         13.4800   14.2088   15.4765 C.3       3 GLC5        0.0000 
     79 CA         14.1140   15.7920   15.9190 C.3       6 GLP5        0.0000 
     80 CA         13.2131   10.7395   13.6615 C.3       3 GLC5        0.0000 
     81 CA         13.5590    9.3420   12.5000 C.3       6 GLP5        0.0000 
@<TRIPOS>BOND
@<TRIPOS>SUBSTRUCTURE
     1 ALC1       52 GROUP        1 X    ALC  0     ROOT ALC X 1
     2 SEC2       49 GROUP        1 X    SEC  0     **** SEC X 2
     3 GLC5        1 GROUP        1 X    GLC  0     **** GLC X 6
     4 ALP1       54 GROUP        1 Y    ALP  0     ROOT ALP Y 8
     5 SEP2       51 GROUP        1 Y    SEP  0     **** SEP Y 9
     6 GLP5        3 GROUP        1 Y    GLP  0     **** GLP Y 13
     7 ALL1       53 GROUP        1 Z    ALL  0     ROOT ALL Z 15
     8 SEL2       50 GROUP        1 Z    SEL  0     **** SEL Z 16
     9 GLL5        2 GROUP        1 Z    GLL  0     **** GLL Z 20
@<TRIPOS>SET

