#    Name: 4ncg_2KW_1_ligand
#    Modification time : Tue Mar 25 13:00:27 2014

@<TRIPOS>MOLECULE
4ncg_2KW_1_ligand
   40    42     1     0     0
SMALL
NO_CHARGES


@<TRIPOS>ATOM
      1 C8         10.9060   12.1810   15.2640 C.2       1 2KW601      0.0000 
      2 C7         10.2180   11.7640   16.3350 C.2       1 2KW601      0.0000 
      3 C9         10.2410   12.5560   14.0550 C.2       1 2KW601      0.0000 
      4 C10         8.9110   12.4570   13.9840 C.2       1 2KW601      0.0000 
      5 C6          9.7250   10.9220   22.0720 C.1       1 2KW601      0.0000 
      6 C5         10.1050   13.1030   21.1230 C.ar      1 2KW601      0.0000 
      7 C4         10.0430   11.7350   20.9620 C.ar      1 2KW601      0.0000 
      8 C3         10.2970   11.1600   19.7380 C.ar      1 2KW601      0.0000 
      9 C2         10.6170   11.9720   18.6700 C.ar      1 2KW601      0.0000 
     10 C1         10.7010   13.3400   18.8050 C.ar      1 2KW601      0.0000 
     11 C13        12.4010   12.2540   15.3260 C.3       1 2KW601      0.0000 
     12 C12         8.7140   11.6690   16.2650 C.2       1 2KW601      0.0000 
     13 C24         5.9390    9.3180   16.4390 C.3       1 2KW601      0.0000 
     14 C18         6.5170   10.5630   14.2750 C.2       1 2KW601      0.0000 
     15 C17         6.7150   11.9450   14.8630 C.3       1 2KW601      0.0000 
     16 C21         6.1430    8.3980   14.1450 C.2       1 2KW601      0.0000 
     17 C          10.4220   13.8890   20.0330 C.ar      1 2KW601      0.0000 
     18 F          12.9040   11.0340   15.5480 F         1 2KW601      0.0000 
     19 N           9.5070   10.2550   22.9940 N.1       1 2KW601      0.0000 
     20 O          10.9230   11.3880   17.4630 O.3       1 2KW601      0.0000 
     21 CL         10.5010   15.5860   20.1730 Cl        1 2KW601      0.0000 
     22 N11         8.1570   12.0180   15.0420 N.am      1 2KW601      0.0000 
     23 F14        12.8190   12.9880   16.3920 F         1 2KW601      0.0000 
     24 F15        13.0820   12.6300   14.2090 F         1 2KW601      0.0000 
     25 O16         8.0450   11.3140   17.2350 O.2       1 2KW601      0.0000 
     26 N19         6.6510   10.2920   13.0150 N.2       1 2KW601      0.0000 
     27 N20         6.4100    8.9580   12.9200 N.am      1 2KW601      0.0000 
     28 N22         6.2000    9.4470   15.0150 N.am      1 2KW601      0.0000 
     29 O23         5.9100    7.2200   14.3870 O.2       1 2KW601      0.0000 
     30 H          10.8174   12.8922   13.2749 H         1 2KW601      0.0000 
     31 H           8.4109   12.7208   13.0938 H         1 2KW601      0.0000 
     32 H           9.9192   13.5297   22.0352 H         1 2KW601      0.0000 
     33 H          10.2494   10.1419   19.6199 H         1 2KW601      0.0000 
     34 H          10.9635   13.9285   18.0134 H         1 2KW601      0.0000 
     35 H           6.2010   12.0037   15.7961 H         1 2KW601      0.0000 
     36 H           6.3696   12.6738   14.1644 H         1 2KW601      0.0000 
     37 H           6.4234    8.4491   12.0806 H         1 2KW601      0.0000 
     38 H           6.7241    9.6047   16.9880 H         1 2KW601      0.0000 
     39 H           5.1609    9.8767   16.7261 H         1 2KW601      0.0000 
     40 H           5.7318    8.3737   16.6946 H         1 2KW601      0.0000 
@<TRIPOS>BOND
     1    2    1 2    
     2    3    1 1    
     3   11    1 1    
     4   12    2 1    
     5   20    2 1    
     6    4    3 2    
     7   30    3 1    
     8   22    4 1    
     9   31    4 1    
    10    7    5 1    
    11   19    5 3    
    12    7    6 ar   
    13   17    6 ar   
    14   32    6 1    
    15    8    7 ar   
    16    9    8 ar   
    17   33    8 1    
    18   10    9 ar   
    19   20    9 1    
    20   17   10 ar   
    21   34   10 1    
    22   18   11 1    
    23   23   11 1    
    24   24   11 1    
    25   22   12 am   
    26   25   12 2    
    27   28   13 1    
    28   38   13 1    
    29   39   13 1    
    30   40   13 1    
    31   15   14 1    
    32   26   14 2    
    33   28   14 1    
    34   22   15 1    
    35   35   15 1    
    36   36   15 1    
    37   27   16 am   
    38   28   16 am   
    39   29   16 2    
    40   21   17 1    
    41   27   26 1    
    42   37   27 1    
@<TRIPOS>SUBSTRUCTURE
     1 2KW601      1 GROUP   
@<TRIPOS>SET

