#    Name: 2gh6_CF3_3_INTS_M
#    Modification time : Tue Mar 25 14:27:14 2014

@<TRIPOS>MOLECULE
2gh6_CF3_3_INTS_M
   68     0     6     0     0
SMALL
NO_CHARGES


@<TRIPOS>ATOM
      1 CA         -1.3260   31.5405   16.3000 C.3       2 GLC5        0.0000 
      2 CA         -2.6720   30.9660   15.2490 C.3       6 GLL5        0.0000 
      3 CA          0.0200   32.1150   17.3510 C.3       4 GLP5        0.0000 
      4 CA         -2.7125   32.4655   16.9795 C.3       2 GLC5        0.0000 
      5 CA         -3.5030   32.1030   15.1580 C.3       6 GLL5        0.0000 
      6 CA         -1.9220   32.8280   18.8010 C.3       4 GLP5        0.0000 
      7 CA         -2.9510   37.0085   15.3420 C.3       2 GLC5        0.0000 
      8 CA         -2.5380   35.6030   16.3330 C.3       6 GLL5        0.0000 
      9 CA         -3.3640   38.4140   14.3510 C.3       4 GLP5        0.0000 
     10 CA         -4.7675   35.5910   18.1280 C.3       2 GLC5        0.0000 
     11 CA         -2.8240   36.5360   17.5430 C.3       6 GLL5        0.0000 
     12 CA         -6.7110   34.6460   18.7130 C.3       4 GLP5        0.0000 
     13 CA         -2.4435   35.9135   19.6095 C.3       2 GLC5        0.0000 
     14 CA         -2.0630   35.2910   21.6760 C.3       4 GLP5        0.0000 
     15 CA         -3.7370   37.2620   16.1210 C.3       2 GLC5        0.0000 
     16 CA         -4.6500   37.9880   14.6990 C.3       4 GLP5        0.0000 
     17 CA         -2.2300   38.5230   16.4315 C.3       2 GLC5        0.0000 
     18 CA         -1.6720   37.5160   17.8860 C.3       6 GLL5        0.0000 
     19 CA         -2.7880   39.5300   14.9770 C.3       4 GLP5        0.0000 
     20 CA         -4.1985   38.5525   19.5255 C.3       2 GLC5        0.0000 
     21 CA         -2.1030   38.3800   19.0910 C.3       6 GLL5        0.0000 
     22 CA         -6.2940   38.7250   19.9600 C.3       4 GLP5        0.0000 
     23 CA         -1.3250   38.0060   20.8120 C.3       2 GLC5        0.0000 
     24 CA         -1.1460   39.5360   19.4600 C.3       6 GLL5        0.0000 
     25 CA         -1.5040   36.4760   22.1640 C.3       4 GLP5        0.0000 
     26 CA         -0.0995   40.8415   18.2585 C.3       2 GLC5        0.0000 
     27 CA          0.9470   42.1470   17.0570 C.3       4 GLP5        0.0000 
     28 CA         -2.0840   38.8920   21.6950 C.3       2 GLC5        0.0000 
     29 CA         -1.8700   40.4290   20.4760 C.3       6 GLL5        0.0000 
     30 CA         -2.2980   37.3550   22.9140 C.3       4 GLP5        0.0000 
     31 Zn          0.6385   42.0635   20.8165 Zn        1 ZIC7        0.0000 
     32 Zn          0.2200   41.4500   21.2850 Zn        5 ZIL7        0.0000 
     33 Zn          1.0570   42.6770   20.3480 Zn        3 ZIP7        0.0000 
     34 CA         -1.9995   39.3080   23.1855 C.3       2 GLC5        0.0000 
     35 CA         -1.7010   41.2610   23.4570 C.3       6 GLL5        0.0000 
     36 CA          0.0465   40.0225   23.2475 C.3       2 GLC5        0.0000 
     37 CA          1.7940   38.7840   23.0380 C.3       4 GLP5        0.0000 
     38 CA         -2.1510   43.0475   24.4150 C.3       2 GLC5        0.0000 
     39 CA         -1.0700   43.1500   22.8620 C.3       6 GLL5        0.0000 
     40 CA         -3.2320   42.9450   25.9680 C.3       4 GLP5        0.0000 
     41 CA         -0.6120   44.8600   23.6145 C.3       2 GLC5        0.0000 
     42 CA         -0.1540   46.5700   24.3670 C.3       4 GLP5        0.0000 
     43 CA         -6.0415   31.5628   16.2888 C.3       2 GLC5        0.0000 
     44 CA         -4.8270   31.9150   14.7170 C.3       6 GLL5        0.0000 
     45 CA         -7.0230   31.8540   18.0140 C.3       4 GLP5        0.0000 
     46 CA         -4.4347   28.6373   16.4492 C.3       2 GLC5        0.0000 
     47 CA         -3.1320   29.6840   14.9360 C.3       6 GLL5        0.0000 
     48 CA         -5.0790   27.6750   18.1720 C.3       4 GLP5        0.0000 
     49 CA         -2.3015   34.4488   17.8695 C.3       2 GLC5        0.0000 
     50 CA         -1.5775   35.4502   15.5380 C.3       2 GLC5        0.0000 
     51 CA         -0.4740   34.8310   14.1380 C.3       4 GLP5        0.0000 
     52 CA         -1.6958   37.2120   20.3263 C.3       2 GLC5        0.0000 
     53 CA         -2.5793   39.5955   17.5873 C.3       2 GLC5        0.0000 
     54 CA         -3.5340   40.2330   15.8990 C.3       4 GLP5        0.0000 
     55 CA         -2.9871   40.9862   19.6124 C.3       2 GLC5        0.0000 
     56 CA         -4.2270   42.2790   19.3490 C.3       4 GLP5        0.0000 
     57 CA         -3.3095   42.3003   20.8655 C.3       2 GLC5        0.0000 
     58 CA         -3.0240   42.5090   22.2880 C.3       6 GLL5        0.0000 
     59 CA         -4.2065   42.5353   22.7130 C.3       2 GLC5        0.0000 
     60 CA         -6.0210   42.7490   23.0440 C.3       4 GLP5        0.0000 
     61 CA         -2.8403   41.6461   24.3633 C.3       2 GLC5        0.0000 
     62 CA         -3.6340   41.5010   25.8070 C.3       4 GLP5        0.0000 
     63 CA         -2.3950   44.1364   21.9060 C.3       2 GLC5        0.0000 
     64 CA         -3.0590   45.5370   21.1900 C.3       4 GLP5        0.0000 
     65 CA          0.1894   42.5864   23.6341 C.3       2 GLC5        0.0000 
     66 CA          1.7790   42.7490   24.3540 C.3       4 GLP5        0.0000 
     67 CA         -2.5777   31.1743   13.4444 C.3       2 GLC5        0.0000 
     68 CA         -1.5510   31.8050   11.9790 C.3       4 GLP5        0.0000 
@<TRIPOS>BOND
@<TRIPOS>SUBSTRUCTURE
     1 ZIC7       31 GROUP        1 X    ZIC  0     ROOT ZIC X 5
     2 GLC5        1 GROUP        1 X    GLC  0     **** GLC X 6
     3 ZIP7       33 GROUP        1 Y    ZIP  0     ROOT ZIP Y 12
     4 GLP5        3 GROUP        1 Y    GLP  0     **** GLP Y 13
     5 ZIL7       32 GROUP        1 Z    ZIL  0     ROOT ZIL Z 19
     6 GLL5        2 GROUP        1 Z    GLL  0     **** GLL Z 20
@<TRIPOS>SET

