#    Name: 2gh6_CF3_3_ligand
#    Modification time : Tue Mar 25 14:27:14 2014

@<TRIPOS>MOLECULE
2gh6_CF3_3_ligand
   39    39     1     0     0
SMALL
NO_CHARGES


@<TRIPOS>ATOM
      1 C4         -4.8270   31.9150   14.7170 C.ar      1 CF39652     0.0000 
      2 C2         -5.2930   30.6280   14.4100 C.ar      1 CF39652     0.0000 
      3 C1         -4.4490   29.5150   14.5170 C.ar      1 CF39652     0.0000 
      4 C3         -3.1320   29.6840   14.9360 C.ar      1 CF39652     0.0000 
      5 C5         -2.6720   30.9660   15.2490 C.ar      1 CF39652     0.0000 
      6 C14        -3.5030   32.1030   15.1580 C.ar      1 CF39652     0.0000 
      7 N1         -2.9810   33.3370   15.4660 N.am      1 CF39652     0.0000 
      8 C12        -3.4690   34.3480   16.2350 C.2       1 CF39652     0.0000 
      9 O1         -4.5480   34.3220   16.8310 O.2       1 CF39652     0.0000 
     10 C10        -2.5380   35.6030   16.3330 C.3       1 CF39652     0.0000 
     11 C8         -2.8240   36.5360   17.5430 C.3       1 CF39652     0.0000 
     12 C6         -1.6720   37.5160   17.8860 C.3       1 CF39652     0.0000 
     13 C7         -2.1030   38.3800   19.0910 C.3       1 CF39652     0.0000 
     14 C9         -1.1460   39.5360   19.4600 C.3       1 CF39652     0.0000 
     15 C11        -1.8700   40.4290   20.4760 C.3       1 CF39652     0.0000 
     16 C13        -1.0160   41.3660   21.3680 C.2       1 CF39652     0.0000 
     17 O2          0.2200   41.4500   21.2850 O.2       1 CF39652     0.0000 
     18 C15        -1.7600   42.1340   22.4760 C.3       1 CF39652     0.0000 
     19 F3         -3.0240   42.5090   22.2880 F         1 CF39652     0.0000 
     20 F1         -1.7010   41.2610   23.4570 F         1 CF39652     0.0000 
     21 F2         -1.0700   43.1500   22.8620 F         1 CF39652     0.0000 
     22 H          -5.4505   32.7228   14.6208 H         1 CF39652     0.0000 
     23 H          -6.2678   30.5006   14.1022 H         1 CF39652     0.0000 
     24 H          -4.8032   28.5815   14.2869 H         1 CF39652     0.0000 
     25 H          -2.5059   28.8798   15.0147 H         1 CF39652     0.0000 
     26 H          -1.6890   31.0920   15.5588 H         1 CF39652     0.0000 
     27 H          -1.9873   33.5396   15.0042 H         1 CF39652     0.0000 
     28 H          -2.6409   36.1840   15.4053 H         1 CF39652     0.0000 
     29 H          -1.4958   35.2576   16.3903 H         1 CF39652     0.0000 
     30 H          -3.0325   35.9132   18.4247 H         1 CF39652     0.0000 
     31 H          -3.7319   37.1184   17.3301 H         1 CF39652     0.0000 
     32 H          -1.4850   38.1512   17.0391 H         1 CF39652     0.0000 
     33 H          -0.7945   36.9520   18.1459 H         1 CF39652     0.0000 
     34 H          -2.2188   37.7231   19.9733 H         1 CF39652     0.0000 
     35 H          -3.1032   38.8036   18.8823 H         1 CF39652     0.0000 
     36 H          -0.9199   40.1025   18.5780 H         1 CF39652     0.0000 
     37 H          -0.2577   39.1310   19.9037 H         1 CF39652     0.0000 
     38 H          -2.4845   39.7788   21.1478 H         1 CF39652     0.0000 
     39 H          -2.6159   41.0586   19.9293 H         1 CF39652     0.0000 
@<TRIPOS>BOND
     1    2    1 ar   
     2    6    1 ar   
     3   22    1 1    
     4    3    2 ar   
     5   23    2 1    
     6    4    3 ar   
     7   24    3 1    
     8    5    4 ar   
     9   25    4 1    
    10    6    5 ar   
    11   26    5 1    
    12    7    6 1    
    13    8    7 am   
    14   27    7 1    
    15    9    8 2    
    16   10    8 1    
    17   11   10 1    
    18   28   10 1    
    19   29   10 1    
    20   12   11 1    
    21   30   11 1    
    22   31   11 1    
    23   13   12 1    
    24   32   12 1    
    25   33   12 1    
    26   14   13 1    
    27   34   13 1    
    28   35   13 1    
    29   15   14 1    
    30   36   14 1    
    31   37   14 1    
    32   16   15 1    
    33   38   15 1    
    34   39   15 1    
    35   17   16 2    
    36   18   16 1    
    37   19   18 1    
    38   20   18 1    
    39   21   18 1    
@<TRIPOS>SUBSTRUCTURE
     1 CF39652     1 GROUP   
@<TRIPOS>SET

