#    Name: 3T84_1_CAVITY_N1_ALL.mol2
#    Modification time : Tue Mar 11 02:52:57 2014

@<TRIPOS>MOLECULE
3T84_1_CAVITY_N1_ALL.mol2
   90     0     6     0     0
SMALL
NO_CHARGES


@<TRIPOS>ATOM
      1 O          22.5423    2.8479    8.5469 O.2       2 ALA2        0.0000 
      2 O          22.3336    2.2422    7.1906 O.2       2 ALA2        0.0000 
      3 N          21.8381    3.2259   11.8044 N.2       2 ALA2        0.0000 
      4 DU         20.8644    4.3161   11.4674 H         6 CUB7        0.0000 
      5 CZ         21.6293    2.6202   10.4481 C.ar      4 PHE5        0.0000 
      6 DU         20.6557    3.7104   10.1111 H         6 CUB7        0.0000 
      7 DU         19.6820    4.8005    9.7741 H         6 CUB7        0.0000 
      8 O          21.4205    2.0145    9.0918 O.2       2 ALA2        0.0000 
      9 O          20.4469    3.1046    8.7548 O.2       2 ALA2        0.0000 
     10 O          20.2381    2.4989    7.3985 O.2       2 ALA2        0.0000 
     11 CA         20.1601    4.6941   14.7248 C.3       5 GLY6        0.0000 
     12 CA         19.1865    5.7843   14.3878 C.3       5 GLY6        0.0000 
     13 CZ         18.2128    6.8744   14.0508 C.ar      4 PHE5        0.0000 
     14 N          19.9514    4.0884   13.3685 N.2       2 ALA2        0.0000 
     15 DU         18.9777    5.1785   13.0315 H         6 CUB7        0.0000 
     16 CZ         18.0041    6.2687   12.6945 C.ar      4 PHE5        0.0000 
     17 OG         20.7163    2.3925   12.3493 O.2       1 SER1        0.0000 
     18 OG         19.7426    3.4826   12.0123 O.2       1 SER1        0.0000 
     19 DU         17.7953    5.6629   11.3382 H         6 CUB7        0.0000 
     20 CZ         20.5075    1.7868   10.9930 C.ar      4 PHE5        0.0000 
     21 DU         19.5339    2.8769   10.6560 H         6 CUB7        0.0000 
     22 DU         18.5602    3.9671   10.3190 H         6 CUB7        0.0000 
     23 O          20.2987    1.1810    9.6367 O.2       2 ALA2        0.0000 
     24 O          19.3251    2.2712    9.2997 O.2       2 ALA2        0.0000 
     25 O          18.3514    3.3613    8.9627 O.2       2 ALA2        0.0000 
     26 O          17.3778    4.4515    8.6257 O.2       2 ALA2        0.0000 
     27 CA         19.0383    3.8606   15.2697 C.3       5 GLY6        0.0000 
     28 CA         18.0647    4.9508   14.9327 C.3       5 GLY6        0.0000 
     29 CZ         17.0910    6.0410   14.5957 C.ar      4 PHE5        0.0000 
     30 OG         18.8296    3.2549   13.9134 O.2       1 SER1        0.0000 
     31 DU         17.8559    4.3451   13.5764 H         6 CUB7        0.0000 
     32 CZ         16.8823    5.4352   13.2394 C.ar      4 PHE5        0.0000 
     33 CZ         15.9086    6.5254   12.9024 C.ar      4 PHE5        0.0000 
     34 CA         13.9613    8.7057   12.2284 C.3       5 GLY6        0.0000 
     35 OG         18.6208    2.6492   12.5572 O.2       1 SER1        0.0000 
     36 DU         17.6472    3.7393   12.2201 H         6 CUB7        0.0000 
     37 O          16.6735    4.8295   11.8831 O.2       2 ALA2        0.0000 
     38 CZ         14.7262    7.0098   11.2091 C.ar      4 PHE5        0.0000 
     39 CA         13.7526    8.1000   10.8721 C.3       5 GLY6        0.0000 
     40 OG         20.3593   -0.1369   11.8749 O.2       1 SER1        0.0000 
     41 OG         19.3857    0.9533   11.5379 O.2       1 SER1        0.0000 
     42 O          18.4121    2.0435   11.2009 O.2       2 ALA2        0.0000 
     43 O          17.4384    3.1336   10.8639 O.2       2 ALA2        0.0000 
     44 O          16.4648    4.2238   10.5268 O.2       2 ALA2        0.0000 
     45 O          15.4911    5.3139   10.1898 O.2       2 ALA2        0.0000 
     46 O          19.1769    0.3476   10.1816 O.2       2 ALA2        0.0000 
     47 O          17.2296    2.5279    9.5076 O.2       2 ALA2        0.0000 
     48 CA         17.9165    3.0272   15.8146 C.3       5 GLY6        0.0000 
     49 CA         16.9429    4.1173   15.4776 C.3       5 GLY6        0.0000 
     50 CZ         15.9692    5.2075   15.1406 C.ar      4 PHE5        0.0000 
     51 OG         17.7078    2.4215   14.4583 O.2       1 SER1        0.0000 
     52 DU         16.7341    3.5116   14.1213 H         6 CUB7        0.0000 
     53 O          15.7605    4.6018   13.7843 O.2       2 ALA2        0.0000 
     54 CZ         14.7868    5.6919   13.4473 C.ar      4 PHE5        0.0000 
     55 CZ         13.8132    6.7821   13.1103 C.ar      4 PHE5        0.0000 
     56 OG         17.4990    1.8157   13.1021 O.2       1 SER1        0.0000 
     57 O          16.5254    2.9059   12.7650 O.2       2 ALA2        0.0000 
     58 O          13.6044    6.1763   11.7540 O.2       2 ALA2        0.0000 
     59 CA         12.6308    7.2665   11.4170 C.3       5 GLY6        0.0000 
     60 OG         18.2639    0.1198   12.0828 O.2       1 SER1        0.0000 
     61 DU         17.2903    1.2100   11.7458 H         6 CUB7        0.0000 
     62 O          16.3166    2.3001   11.4088 O.2       2 ALA2        0.0000 
     63 CA         19.0288   -1.5760   11.0635 C.3       5 GLY6        0.0000 
     64 O          18.0551   -0.4859   10.7265 O.2       2 ALA2        0.0000 
     65 O          17.0815    0.6043   10.3895 O.2       2 ALA2        0.0000 
     66 O          16.1078    1.6944   10.0525 O.2       2 ALA2        0.0000 
     67 CA         17.7684    1.1036   16.6965 C.3       5 GLY6        0.0000 
     68 CA         16.7947    2.1937   16.3595 C.3       5 GLY6        0.0000 
     69 CA         15.8211    3.2839   16.0225 C.3       5 GLY6        0.0000 
     70 CA         14.8474    4.3740   15.6855 C.3       5 GLY6        0.0000 
     71 OG         17.5596    0.4978   15.3402 O.2       1 SER1        0.0000 
     72 OG         16.5860    1.5880   15.0032 O.2       1 SER1        0.0000 
     73 CA         15.6123    2.6781   14.6662 C.3       5 GLY6        0.0000 
     74 O          14.6387    3.7683   14.3292 O.2       2 ALA2        0.0000 
     75 CA         13.6650    4.8585   13.9922 C.3       5 GLY6        0.0000 
     76 OG         17.3509   -0.1079   13.9840 O.2       1 SER1        0.0000 
     77 N          16.3772    0.9823   13.6469 N.2       2 ALA2        0.0000 
     78 O          15.4036    2.0724   13.3099 O.2       2 ALA2        0.0000 
     79 N          17.1421   -0.7136   12.6277 N.2       2 ALA2        0.0000 
     80 N          16.1685    0.3765   12.2907 N.2       2 ALA2        0.0000 
     81 O          15.1948    1.4667   11.9537 O.2       2 ALA2        0.0000 
     82 CA         16.9333   -1.3194   11.2714 C.3       5 GLY6        0.0000 
     83 N          15.9597   -0.2292   10.9344 N.2       2 ALA2        0.0000 
     84 O          16.6466    0.2701   17.2414 O.2       2 ALA2        0.0000 
     85 CA         15.6729    1.3603   16.9044 C.3       5 GLY6        0.0000 
     86 CA         14.6993    2.4504   16.5674 C.3       5 GLY6        0.0000 
     87 OD1        16.4378   -0.3356   15.8851 O.3       3 ASP3        0.0000 
     88 OD1        15.4642    0.7545   15.5481 O.3       3 ASP3        0.0000 
     89 CA         14.4905    1.8447   15.2111 C.3       5 GLY6        0.0000 
     90 OD1        14.5511    0.5268   17.4493 O.3       3 ASP3        0.0000 
@<TRIPOS>BOND
@<TRIPOS>SUBSTRUCTURE
     1 SER1       17 GROUP   
     2 ALA2        1 GROUP   
     3 ASP3       87 GROUP   
     4 PHE5        5 GROUP   
     5 GLY6       11 GROUP   
     6 CUB7        4 GROUP   
@<TRIPOS>SET

