#    Name: 3t84_SG6_1_INTS_M
#    Modification time : Mon Mar 24 19:18:59 2014

@<TRIPOS>MOLECULE
3t84_SG6_1_INTS_M
   41     0    12     0     0
SMALL
NO_CHARGES


@<TRIPOS>ATOM
      1 CA         16.4760   -2.2880   10.2475 C.3       4 GLC5        0.0000 
      2 CA         16.8280   -0.9160   11.7370 C.3      12 GLL5        0.0000 
      3 CA         16.1240   -3.6600    8.7580 C.3       8 GLP5        0.0000 
      4 CA         15.2020   -1.5520   12.1305 C.3       4 GLC5        0.0000 
      5 CA         13.5760   -2.1880   12.5240 C.3       8 GLP5        0.0000 
      6 CA         18.5200   -1.3345   13.0055 C.3       4 GLC5        0.0000 
      7 CA         20.2120   -1.7530   14.2740 C.3       8 GLP5        0.0000 
      8 CA         14.5975   -0.5900   11.3305 C.3       4 GLC5        0.0000 
      9 CA         16.3060    0.2350   11.0090 C.3      12 GLL5        0.0000 
     10 CA         12.8890   -1.4150   11.6520 C.3       8 GLP5        0.0000 
     11 N          15.4160    1.2840    8.9300 N.am      2 SEC2        0.0000 
     12 N          16.2090   -0.0490    9.6460 N.am     10 SEL2        0.0000 
     13 N          14.6230    2.6170    8.2140 N.am      6 SEP2        0.0000 
     14 N          16.9915    0.5385    8.5695 N.am      2 SEC2        0.0000 
     15 N          17.7740    1.1260    7.4930 N.am      6 SEP2        0.0000 
     16 O          15.0655    0.2220    9.0615 O.2       1 ALC1        0.0000 
     17 O          16.2090   -0.0490    9.6460 O.2       9 ALL1        0.0000 
     18 O          13.9220    0.4930    8.4770 O.2       5 ALP1        0.0000 
     19 N          15.5705    2.5790    9.3415 N.am      2 SEC2        0.0000 
     20 N          16.5180    2.5410   10.4690 N.am     10 SEL2        0.0000 
     21 N          14.7000    2.9035   12.2300 N.am      2 SEC2        0.0000 
     22 N          15.8980    2.4350   13.2230 N.am     10 SEL2        0.0000 
     23 N          13.5020    3.3720   11.2370 N.am      6 SEP2        0.0000 
     24 CA         13.2190    4.5000   15.2055 C.3       4 GLC5        0.0000 
     25 CA         14.8500    4.0770   14.6020 C.3      12 GLL5        0.0000 
     26 CA         11.5880    4.9230   15.8090 C.3       8 GLP5        0.0000 
     27 CA         15.0465    6.1175   14.6465 C.3       4 GLC5        0.0000 
     28 CA         15.2430    8.1580   14.6910 C.3       8 GLP5        0.0000 
     29 CA         15.8430    4.1375   16.3715 C.3       4 GLC5        0.0000 
     30 CA         16.8360    4.1980   18.1410 C.3       8 GLP5        0.0000 
     31 N          17.3465    0.1065   18.3275 N.am      2 SEC2        0.0000 
     32 N          16.0570    0.6770   17.7030 N.am     10 SEL2        0.0000 
     33 N          18.6360   -0.4640   18.9520 N.am      6 SEP2        0.0000 
     34 O          16.7330   -2.1290   17.0005 O.2       1 ALC1        0.0000 
     35 O          15.8140   -1.4290   16.4490 O.2       9 ALL1        0.0000 
     36 O          17.6520   -2.8290   17.5520 O.2       5 ALP1        0.0000 
     37 Zn         15.1385   -1.9040   15.8830 Zn        3 ZIC7        0.0000 
     38 Zn         15.8140   -1.4290   16.4490 Zn       11 ZIL7        0.0000 
     39 Zn         14.4630   -2.3790   15.3170 Zn        7 ZIP7        0.0000 
     40 CA         18.8113   -0.5978   14.2915 C.3       4 GLC5        0.0000 
     41 CA         17.4320    0.6120   15.0700 C.3      12 GLL5        0.0000 
@<TRIPOS>BOND
@<TRIPOS>SUBSTRUCTURE
     1 ALC1       16 GROUP        1 X    ALC  0     ROOT ALC X 1
     2 SEC2       11 GROUP        1 X    SEC  0     **** SEC X 2
     3 ZIC7       37 GROUP        1 X    ZIC  0     **** ZIC X 5
     4 GLC5        1 GROUP        1 X    GLC  0     **** GLC X 6
     5 ALP1       18 GROUP        1 Y    ALP  0     ROOT ALP Y 8
     6 SEP2       13 GROUP        1 Y    SEP  0     **** SEP Y 9
     7 ZIP7       39 GROUP        1 Y    ZIP  0     **** ZIP Y 12
     8 GLP5        3 GROUP        1 Y    GLP  0     **** GLP Y 13
     9 ALL1       17 GROUP        1 Z    ALL  0     ROOT ALL Z 15
    10 SEL2       12 GROUP        1 Z    SEL  0     **** SEL Z 16
    11 ZIL7       38 GROUP        1 Z    ZIL  0     **** ZIL Z 19
    12 GLL5        2 GROUP        1 Z    GLL  0     **** GLL Z 20
@<TRIPOS>SET

