#    Name: 3t84_SG6_1_ligand
#    Modification time : Mon Mar 24 19:18:59 2014

@<TRIPOS>MOLECULE
3t84_SG6_1_ligand
   33    33     1     0     0
SMALL
NO_CHARGES


@<TRIPOS>ATOM
      1 C1         16.8280   -0.9160   11.7370 C.3       1 SG6300      0.0000 
      2 O5         16.7780   -0.7360   13.1360 O.3       1 SG6300      0.0000 
      3 C2         16.3060    0.2350   11.0090 C.3       1 SG6300      0.0000 
      4 C3         16.9720    1.4900   11.2790 C.3       1 SG6300      0.0000 
      5 C4         17.0290    1.7470   12.7340 C.3       1 SG6300      0.0000 
      6 C5         17.3890    0.5030   13.5480 C.3       1 SG6300      0.0000 
      7 O1A        18.1020   -1.2750   11.2620 O.3       1 SG6300      0.0000 
      8 O2A        16.2090   -0.0490    9.6460 O.3       1 SG6300      0.0000 
      9 O3A        16.5180    2.5410   10.4690 O.3       1 SG6300      0.0000 
     10 O4A        15.8980    2.4350   13.2230 O.3       1 SG6300      0.0000 
     11 C4B        14.8500    4.0770   14.6020 C.3       1 SG6300      0.0000 
     12 C4C        16.0510    3.4480   13.9750 C.2       1 SG6300      0.0000 
     13 O4D        17.1990    3.8120   14.3640 O.2       1 SG6300      0.0000 
     14 C5A        17.4320    0.6120   15.0700 C.3       1 SG6300      0.0000 
     15 O5B        16.2230    0.9770   15.6230 O.3       1 SG6300      0.0000 
     16 S5C        15.4380    0.0960   16.5130 S.o2      1 SG6300      0.0000 
     17 O5D        14.0740    0.4180   16.9500 O.2       1 SG6300      0.0000 
     18 O5E        16.0570    0.6770   17.7030 O.2       1 SG6300      0.0000 
     19 N5F        15.8140   -1.4290   16.4490 N.pl3     1 SG6300      0.0000 
     20 H          16.1216   -1.7784   11.4820 H         1 SG6300      0.0000 
     21 H          15.2224    0.3633   11.3894 H         1 SG6300      0.0000 
     22 H          18.0828    1.2922   10.9822 H         1 SG6300      0.0000 
     23 H          17.9388    2.4443   12.8800 H         1 SG6300      0.0000 
     24 H          18.5497    0.3371   13.2834 H         1 SG6300      0.0000 
     25 H          18.2490    1.3337   15.3152 H         1 SG6300      0.0000 
     26 H          17.7952   -0.3738   15.4503 H         1 SG6300      0.0000 
     27 H          16.4891   -1.7441   17.1160 H         1 SG6300      0.0000 
     28 H          15.0956    4.8649   15.1667 H         1 SG6300      0.0000 
     29 H          14.1988    4.4001   13.9153 H         1 SG6300      0.0000 
     30 H          14.3598    3.4352   15.1917 H         1 SG6300      0.0000 
     31 H          18.1929   -2.2478   11.4751 H         1 SG6300      0.0000 
     32 H          15.2282   -0.0498    9.4511 H         1 SG6300      0.0000 
     33 H          15.7113    2.8997   10.9387 H         1 SG6300      0.0000 
@<TRIPOS>BOND
     1    2    1 1    
     2    3    1 1    
     3    7    1 1    
     4   20    1 1    
     5    6    2 1    
     6    4    3 1    
     7    8    3 1    
     8   21    3 1    
     9    5    4 1    
    10    9    4 1    
    11   22    4 1    
    12    6    5 1    
    13   10    5 1    
    14   23    5 1    
    15   14    6 1    
    16   24    6 1    
    17   31    7 1    
    18   32    8 1    
    19   33    9 1    
    20   12   10 1    
    21   12   11 1    
    22   28   11 1    
    23   29   11 1    
    24   30   11 1    
    25   13   12 2    
    26   15   14 1    
    27   25   14 1    
    28   26   14 1    
    29   16   15 1    
    30   17   16 2    
    31   18   16 2    
    32   19   16 1    
    33   27   19 1    
@<TRIPOS>SUBSTRUCTURE
     1 SG6300      1 GROUP   
@<TRIPOS>SET

