#    Name: 3dnt_ATP_1_INTS_M
#    Modification time : Mon Mar 24 23:51:40 2014

@<TRIPOS>MOLECULE
3dnt_ATP_1_INTS_M
   82     0    15     0     0
SMALL
NO_CHARGES


@<TRIPOS>ATOM
      1 Zn         -5.6330   10.9200   49.3820 Zn        4 ZIC7        0.0000 
      2 Zn         -5.8210   11.6230   48.2870 Zn       14 ZIL7        0.0000 
      3 Zn         -5.4450   10.2170   50.4770 Zn        9 ZIP7        0.0000 
      4 N          -6.9240   10.7785   47.7535 N.am      2 SEC2        0.0000 
      5 N          -5.8210   11.6230   48.2870 N.am     12 SEL2        0.0000 
      6 N          -8.0270    9.9340   47.2200 N.am      7 SEP2        0.0000 
      7 N          -2.4075   11.6885   47.1555 N.am      2 SEC2        0.0000 
      8 N          -3.5360   11.4430   47.3560 N.am     12 SEL2        0.0000 
      9 N          -1.2790   11.9340   46.9550 N.am      7 SEP2        0.0000 
     10 NZ         -0.2485   12.2720   50.6810 N.4       3 LYC4        0.0000 
     11 NZ         -1.4770   12.6360   50.6150 N.4      13 LYL4        0.0000 
     12 NZ          0.9800   11.9080   50.7470 N.4       8 LYP4        0.0000 
     13 N          -1.0480   13.4935   49.3410 N.am      2 SEC2        0.0000 
     14 N          -1.4770   12.6360   50.6150 N.am     12 SEL2        0.0000 
     15 N          -0.6190   14.3510   48.0670 N.am      7 SEP2        0.0000 
     16 N          -0.2485   12.2720   50.6810 N.am      2 SEC2        0.0000 
     17 N           0.9800   11.9080   50.7470 N.am      7 SEP2        0.0000 
     18 NZ         -3.6445   13.7155   53.0065 N.4       3 LYC4        0.0000 
     19 NZ         -3.8390   13.3630   51.6890 N.4      13 LYL4        0.0000 
     20 NZ         -3.4500   14.0680   54.3240 N.4       8 LYP4        0.0000 
     21 Zn         -5.0090   13.7315   51.0215 Zn        4 ZIC7        0.0000 
     22 Zn         -3.8390   13.3630   51.6890 Zn       14 ZIL7        0.0000 
     23 Zn         -6.1790   14.1000   50.3540 Zn        9 ZIP7        0.0000 
     24 N          -3.6445   13.7155   53.0065 N.am      2 SEC2        0.0000 
     25 N          -3.8390   13.3630   51.6890 N.am     12 SEL2        0.0000 
     26 N          -3.4500   14.0680   54.3240 N.am      7 SEP2        0.0000 
     27 Zn         -4.5805   10.9030   50.1430 Zn        4 ZIC7        0.0000 
     28 Zn         -3.7160   11.5890   49.8090 Zn       14 ZIL7        0.0000 
     29 NZ         -3.5235   12.6650   54.3470 N.4       3 LYC4        0.0000 
     30 NZ         -3.5970   11.2620   54.3700 N.4      13 LYL4        0.0000 
     31 N          -3.5235   12.6650   54.3470 N.am      2 SEC2        0.0000 
     32 N          -3.5970   11.2620   54.3700 N.am     12 SEL2        0.0000 
     33 Zn         -4.9335   10.0110   51.4960 Zn        4 ZIC7        0.0000 
     34 Zn         -4.4220    9.8050   52.5150 Zn       14 ZIL7        0.0000 
     35 CA         -1.2745    9.3470   50.3660 C.3       5 GLC5        0.0000 
     36 CA         -1.4020    8.7800   52.4690 C.3      15 GLL5        0.0000 
     37 CA         -1.1470    9.9140   48.2630 C.3      10 GLP5        0.0000 
     38 CA         -0.1330   10.3290   52.3530 C.3       5 GLC5        0.0000 
     39 CA          1.1360   11.8780   52.2370 C.3      10 GLP5        0.0000 
     40 CA         -0.1860    5.7210   53.1265 C.3       5 GLC5        0.0000 
     41 CA         -1.6530    7.2860   52.6040 C.3      15 GLL5        0.0000 
     42 CA          1.2810    4.1560   53.6490 C.3      10 GLP5        0.0000 
     43 CA         -0.7935    6.5660   50.7215 C.3       5 GLC5        0.0000 
     44 CA          0.0660    5.8460   48.8390 C.3      10 GLP5        0.0000 
     45 O          -5.0485    5.9775   51.1240 O.2       1 ALC1        0.0000 
     46 O          -3.5620    6.5010   51.3910 O.2      11 ALL1        0.0000 
     47 O          -6.5350    5.4540   50.8570 O.2       6 ALP1        0.0000 
     48 CA         -1.5955    3.9690   53.9985 C.3       5 GLC5        0.0000 
     49 CA         -3.0000    5.6310   53.6770 C.3      15 GLL5        0.0000 
     50 CA         -0.1910    2.3070   54.3200 C.3      10 GLP5        0.0000 
     51 CA         -0.2835    5.0430   54.1230 C.3       5 GLC5        0.0000 
     52 CA         -1.8480    5.9300   54.5970 C.3      15 GLL5        0.0000 
     53 CA         -0.3700    6.8715   55.7390 C.3       5 GLC5        0.0000 
     54 CA          1.1080    7.8130   56.8810 C.3      10 GLP5        0.0000 
     55 CA         -4.3150    7.8470   57.7865 C.3       5 GLC5        0.0000 
     56 CA         -2.2780    7.1350   58.0100 C.3      15 GLL5        0.0000 
     57 CA         -6.3520    8.5590   57.5630 C.3      10 GLP5        0.0000 
     58 CA         -0.8150    6.4780   60.8190 C.3       5 GLC5        0.0000 
     59 CA         -2.1270    6.8020   59.4060 C.3      15 GLL5        0.0000 
     60 CA          0.4970    6.1540   62.2320 C.3      10 GLP5        0.0000 
     61 O          -1.8505    7.9250   61.6970 O.2       1 ALC1        0.0000 
     62 O          -2.4200    7.7100   60.3560 O.2      11 ALL1        0.0000 
     63 O          -1.2810    8.1400   63.0380 O.2       6 ALP1        0.0000 
     64 N          -1.4845    5.0380   61.0960 N.am      2 SEC2        0.0000 
     65 N          -1.6740    5.5410   59.7580 N.am     12 SEL2        0.0000 
     66 N          -1.2950    4.5350   62.4340 N.am      7 SEP2        0.0000 
     67 CA         -0.1330    6.2190   57.8355 C.3       5 GLC5        0.0000 
     68 CA         -1.3740    4.6250   58.7900 C.3      15 GLL5        0.0000 
     69 CA         -0.4385    5.3895   60.5110 C.3       5 GLC5        0.0000 
     70 CA         -1.6830    4.0140   60.9120 C.3       5 GLC5        0.0000 
     71 CA         -1.9920    3.4030   63.0340 C.3      10 GLP5        0.0000 
     72 CA         -0.5730    2.8160   59.0860 C.3       5 GLC5        0.0000 
     73 CA          0.2280    1.0070   59.3820 C.3      10 GLP5        0.0000 
     74 N          -2.1865    3.3660   56.9080 N.am      2 SEC2        0.0000 
     75 N          -1.4680    4.8210   57.4230 N.am     12 SEL2        0.0000 
     76 N          -2.9050    1.9110   56.3930 N.am      7 SEP2        0.0000 
     77 CA          0.5433    8.0730   52.7553 C.3       5 GLC5        0.0000 
     78 CA          2.6140    8.1130   52.9740 C.3      10 GLP5        0.0000 
     79 CA         -4.2229    6.4581   54.0085 C.3       5 GLC5        0.0000 
     80 CA         -3.1030    6.8060   52.7250 C.3      15 GLL5        0.0000 
     81 CA         -5.9960    6.8420   54.1180 C.3      10 GLP5        0.0000 
     82 CA         -0.4801    7.1801   57.3955 C.3       5 GLC5        0.0000 
@<TRIPOS>BOND
@<TRIPOS>SUBSTRUCTURE
     1 ALC1       45 GROUP        1 X    ALC  0     ROOT ALC X 1
     2 SEC2        4 GROUP        1 X    SEC  0     **** SEC X 2
     3 LYC4       10 GROUP        1 X    LYC  0     **** LYC X 4
     4 ZIC7        1 GROUP        1 X    ZIC  0     **** ZIC X 5
     5 GLC5       35 GROUP        1 X    GLC  0     **** GLC X 6
     6 ALP1       47 GROUP        1 Y    ALP  0     ROOT ALP Y 8
     7 SEP2        6 GROUP        1 Y    SEP  0     **** SEP Y 9
     8 LYP4       12 GROUP        1 Y    LYP  0     **** LYP Y 11
     9 ZIP7        3 GROUP        1 Y    ZIP  0     **** ZIP Y 12
    10 GLP5       37 GROUP        1 Y    GLP  0     **** GLP Y 13
    11 ALL1       46 GROUP        1 Z    ALL  0     ROOT ALL Z 15
    12 SEL2        5 GROUP        1 Z    SEL  0     **** SEL Z 16
    13 LYL4       11 GROUP        1 Z    LYL  0     **** LYL Z 18
    14 ZIL7        2 GROUP        1 Z    ZIL  0     **** ZIL Z 19
    15 GLL5       36 GROUP        1 Z    GLL  0     **** GLL Z 20
@<TRIPOS>SET

