#    Name: 3dnt_ATP_1_ligand
#    Modification time : Mon Mar 24 23:51:41 2014

@<TRIPOS>MOLECULE
3dnt_ATP_1_ligand
   43    45     1     0     0
SMALL
NO_CHARGES


@<TRIPOS>ATOM
      1 PG         -4.4040   12.0620   48.3560 P.3       1 ATP500      0.0000 
      2 O1G        -5.8210   11.6230   48.2870 O.co2     1 ATP500      0.0000 
      3 O2G        -3.5360   11.4430   47.3560 O.co2     1 ATP500      0.0000 
      4 O3G        -4.3480   13.5790   48.2820 O.co2     1 ATP500      0.0000 
      5 PB         -2.9320   12.6450   50.8000 P.3       1 ATP500      0.0000 
      6 O1B        -1.4770   12.6360   50.6150 O.co2     1 ATP500      0.0000 
      7 O2B        -3.8390   13.3630   51.6890 O.co2     1 ATP500      0.0000 
      8 O3B        -3.7160   11.5890   49.8090 O.3       1 ATP500      0.0000 
      9 PA         -3.3040   10.5290   53.0940 P.3       1 ATP500      0.0000 
     10 O1A        -3.5970   11.2620   54.3700 O.co2     1 ATP500      0.0000 
     11 O2A        -4.4220    9.8050   52.5150 O.co2     1 ATP500      0.0000 
     12 O3A        -2.6170   11.4660   51.8690 O.3       1 ATP500      0.0000 
     13 O5'        -2.0980    9.5820   53.4610 O.3       1 ATP500      0.0000 
     14 C5'        -1.4020    8.7800   52.4690 C.3       1 ATP500      0.0000 
     15 C4'        -1.6530    7.2860   52.6040 C.3       1 ATP500      0.0000 
     16 O4'        -0.9880    6.7640   53.7870 O.3       1 ATP500      0.0000 
     17 C3'        -3.1030    6.8060   52.7250 C.3       1 ATP500      0.0000 
     18 O3'        -3.5620    6.5010   51.3910 O.3       1 ATP500      0.0000 
     19 C2'        -3.0000    5.6310   53.6770 C.3       1 ATP500      0.0000 
     20 O2'        -2.7460    4.4200   52.9960 O.3       1 ATP500      0.0000 
     21 C1'        -1.8480    5.9300   54.5970 C.3       1 ATP500      0.0000 
     22 N9         -2.1270    6.6630   55.8760 N.pl3     1 ATP500      0.0000 
     23 C8         -2.5890    7.9540   56.1000 C.2       1 ATP500      0.0000 
     24 N7         -2.7000    8.2910   57.3520 N.2       1 ATP500      0.0000 
     25 C5         -2.2780    7.1350   58.0100 C.ar      1 ATP500      0.0000 
     26 C6         -2.1270    6.8020   59.4060 C.ar      1 ATP500      0.0000 
     27 N6         -2.4200    7.7100   60.3560 N.pl3     1 ATP500      0.0000 
     28 N1         -1.6740    5.5410   59.7580 N.ar      1 ATP500      0.0000 
     29 C2         -1.3740    4.6250   58.7900 C.ar      1 ATP500      0.0000 
     30 N3         -1.4680    4.8210   57.4230 N.ar      1 ATP500      0.0000 
     31 C4         -1.9340    6.1260   57.1120 C.ar      1 ATP500      0.0000 
     32 H          -0.3060    8.9486   52.5300 H         1 ATP500      0.0000 
     33 H          -1.6988    9.0844   51.4430 H         1 ATP500      0.0000 
     34 H          -1.2160    6.7718   51.7298 H         1 ATP500      0.0000 
     35 H          -3.6487    7.5926   53.1879 H         1 ATP500      0.0000 
     36 H          -3.8954    5.5936   54.2670 H         1 ATP500      0.0000 
     37 H          -1.3169    5.0073   54.8024 H         1 ATP500      0.0000 
     38 H          -2.8109    8.5540   55.3167 H         1 ATP500      0.0000 
     39 H          -2.2989    7.4112   61.3026 H         1 ATP500      0.0000 
     40 H          -2.7326    8.6023   60.0303 H         1 ATP500      0.0000 
     41 H          -1.0314    3.6569   59.1139 H         1 ATP500      0.0000 
     42 H          -4.5537    6.4035   51.4746 H         1 ATP500      0.0000 
     43 H          -2.7613    4.6608   52.0256 H         1 ATP500      0.0000 
@<TRIPOS>BOND
     1    2    1 ar   
     2    3    1 ar   
     3    4    1 ar   
     4    8    1 1    
     5    6    5 ar   
     6    7    5 ar   
     7    8    5 1    
     8   12    5 1    
     9   10    9 ar   
    10   11    9 ar   
    11   12    9 1    
    12   13    9 1    
    13   14   13 1    
    14   15   14 1    
    15   32   14 1    
    16   33   14 1    
    17   16   15 1    
    18   17   15 1    
    19   34   15 1    
    20   21   16 1    
    21   18   17 1    
    22   19   17 1    
    23   35   17 1    
    24   42   18 1    
    25   20   19 1    
    26   21   19 1    
    27   36   19 1    
    28   43   20 1    
    29   22   21 1    
    30   37   21 1    
    31   23   22 1    
    32   31   22 1    
    33   24   23 2    
    34   38   23 1    
    35   25   24 1    
    36   26   25 ar   
    37   31   25 ar   
    38   27   26 1    
    39   28   26 ar   
    40   39   27 1    
    41   40   27 1    
    42   29   28 ar   
    43   30   29 ar   
    44   41   29 1    
    45   31   30 ar   
@<TRIPOS>SUBSTRUCTURE
     1 ATP500      1 GROUP   
@<TRIPOS>SET

