#    Name: 3l2f_ADP_5_INTS_M
#    Modification time : Mon Mar 24 20:49:07 2014

@<TRIPOS>MOLECULE
3l2f_ADP_5_INTS_M
   77     0    15     0     0
SMALL
NO_CHARGES


@<TRIPOS>ATOM
      1 NZ         42.8935   61.5140  236.0370 N.4       3 LYC4        0.0000 
      2 NZ         41.6120   60.2050  235.8020 N.4      13 LYL4        0.0000 
      3 NZ         44.1750   62.8230  236.2720 N.4       8 LYP4        0.0000 
      4 NZ         41.0550   57.2270  237.4480 N.4       3 LYC4        0.0000 
      5 NZ         40.3290   58.6010  237.2010 N.4      13 LYL4        0.0000 
      6 NZ         40.7950   55.6230  238.5550 N.4       8 LYP4        0.0000 
      7 N          40.1360   57.6010  238.0285 N.am      2 SEC2        0.0000 
      8 N          40.3290   58.6010  237.2010 N.am     12 SEL2        0.0000 
      9 N          39.9430   56.6010  238.8560 N.am      7 SEP2        0.0000 
     10 N          41.0550   57.2270  237.4480 N.am      2 SEC2        0.0000 
     11 N          41.7810   55.8530  237.6950 N.am      7 SEP2        0.0000 
     12 NZ         40.1985   61.9755  238.1880 N.4       3 LYC4        0.0000 
     13 NZ         39.7130   61.0610  237.2050 N.4      13 LYL4        0.0000 
     14 NZ         41.6360   62.9430  240.0750 N.4       8 LYP4        0.0000 
     15 NZ         38.6815   60.9315  238.3300 N.4       3 LYC4        0.0000 
     16 NZ         36.6920   59.9200  239.1740 N.4       8 LYP4        0.0000 
     17 N          40.1985   61.9755  238.1880 N.am      2 SEC2        0.0000 
     18 N          39.7130   61.0610  237.2050 N.am     12 SEL2        0.0000 
     19 N          40.6840   62.8900  239.1710 N.am      7 SEP2        0.0000 
     20 N          38.6815   60.9315  238.3300 N.am      2 SEC2        0.0000 
     21 N          37.6500   60.8020  239.4550 N.am      7 SEP2        0.0000 
     22 N          38.1280   61.4770  236.7630 N.am      2 SEC2        0.0000 
     23 N          36.5430   61.8930  236.3210 N.am      7 SEP2        0.0000 
     24 N          36.0425   59.4985  233.3250 N.am      2 SEC2        0.0000 
     25 N          37.5310   59.5130  233.3830 N.am     12 SEL2        0.0000 
     26 N          34.5540   59.4840  233.2670 N.am      7 SEP2        0.0000 
     27 NZ         36.8865   59.4005  237.5130 N.4       3 LYC4        0.0000 
     28 NZ         37.0810   58.8810  235.8520 N.4      13 LYL4        0.0000 
     29 N          36.8120   60.3870  236.0865 N.am      2 SEC2        0.0000 
     30 N          37.0810   58.8810  235.8520 N.am     12 SEL2        0.0000 
     31 Zn         39.7835   60.3945  234.1595 Zn        4 ZIC7        0.0000 
     32 Zn         39.3750   59.7180  235.0790 Zn       14 ZIL7        0.0000 
     33 Zn         40.1920   61.0710  233.2400 Zn        9 ZIP7        0.0000 
     34 N          36.0435   51.8630  234.6465 N.am      2 SEC2        0.0000 
     35 N          36.2190   53.2240  234.6960 N.am     12 SEL2        0.0000 
     36 N          35.8680   50.5020  234.5970 N.am      7 SEP2        0.0000 
     37 O          34.5685   52.8510  234.5420 O.2       1 ALC1        0.0000 
     38 O          36.2190   53.2240  234.6960 O.2      11 ALL1        0.0000 
     39 O          32.9180   52.4780  234.3880 O.2       6 ALP1        0.0000 
     40 O          35.0525   53.9395  235.5250 O.2       1 ALC1        0.0000 
     41 O          33.8860   54.6550  236.3540 O.2       6 ALP1        0.0000 
     42 CA         38.6805   54.0535  238.2650 C.3       5 GLC5        0.0000 
     43 CA         37.7450   54.0620  236.4720 C.3      15 GLL5        0.0000 
     44 CA         39.6160   54.0450  240.0580 C.3      10 GLP5        0.0000 
     45 CA         37.9570   51.9940  235.9740 C.3       5 GLC5        0.0000 
     46 CA         38.1690   49.9260  235.4760 C.3      10 GLP5        0.0000 
     47 N          36.0075   55.7710  240.7770 N.am      2 SEC2        0.0000 
     48 N          36.2000   55.1830  239.6210 N.am     12 SEL2        0.0000 
     49 N          35.8150   56.3590  241.9330 N.am      7 SEP2        0.0000 
     50 CA         37.1440   53.4410  241.5965 C.3       5 GLC5        0.0000 
     51 CA         35.5570   52.9660  240.8380 C.3      15 GLL5        0.0000 
     52 CA         38.7310   53.9160  242.3550 C.3      10 GLP5        0.0000 
     53 CA         34.1360   53.5515  242.4115 C.3       5 GLC5        0.0000 
     54 CA         32.7150   54.1370  243.9850 C.3      10 GLP5        0.0000 
     55 O          35.4130   54.9185  241.9445 O.2       1 ALC1        0.0000 
     56 O          35.0110   53.4780  241.9560 O.2      11 ALL1        0.0000 
     57 O          35.8150   56.3590  241.9330 O.2       6 ALP1        0.0000 
     58 N          35.0320   50.5060  240.9095 N.am      2 SEC2        0.0000 
     59 N          35.6290   51.6330  240.6320 N.am     12 SEL2        0.0000 
     60 N          34.4350   49.3790  241.1870 N.am      7 SEP2        0.0000 
     61 CA         35.5220   49.7625  240.8030 C.3       5 GLC5        0.0000 
     62 CA         36.1630   51.1190  239.4990 C.3      15 GLL5        0.0000 
     63 CA         34.8810   48.4060  242.1070 C.3      10 GLP5        0.0000 
     64 CA         38.1690   50.4645  239.1715 C.3       5 GLC5        0.0000 
     65 CA         40.1750   49.8100  238.8440 C.3      10 GLP5        0.0000 
     66 CA         34.3490   51.9295  239.4020 C.3       5 GLC5        0.0000 
     67 CA         32.5350   52.7400  239.3050 C.3      10 GLP5        0.0000 
     68 CA         41.0380   56.3263  234.5652 C.3       5 GLC5        0.0000 
     69 CA         39.1950   55.2260  235.0530 C.3      15 GLL5        0.0000 
     70 CA         42.7070   56.6910  234.1870 C.3      10 GLP5        0.0000 
     71 CA         35.9860   55.8430  234.1440 C.3       5 GLC5        0.0000 
     72 CA         37.9910   54.7970  234.2320 C.3      15 GLL5        0.0000 
     73 CA         34.5140   57.1090  233.5610 C.3      10 GLP5        0.0000 
     74 CA         37.9933   53.7925  239.6222 C.3       5 GLC5        0.0000 
     75 CA         36.6590   53.2230  238.5880 C.3      15 GLL5        0.0000 
     76 CA         34.3871   53.0286  239.3774 C.3       5 GLC5        0.0000 
     77 CA         36.0820   53.8570  239.7850 C.3      15 GLL5        0.0000 
@<TRIPOS>BOND
@<TRIPOS>SUBSTRUCTURE
     1 ALC1       37 GROUP        1 X    ALC  0     ROOT ALC X 1
     2 SEC2        7 GROUP        1 X    SEC  0     **** SEC X 2
     3 LYC4        1 GROUP        1 X    LYC  0     **** LYC X 4
     4 ZIC7       31 GROUP        1 X    ZIC  0     **** ZIC X 5
     5 GLC5       42 GROUP        1 X    GLC  0     **** GLC X 6
     6 ALP1       39 GROUP        1 Y    ALP  0     ROOT ALP Y 8
     7 SEP2        9 GROUP        1 Y    SEP  0     **** SEP Y 9
     8 LYP4        3 GROUP        1 Y    LYP  0     **** LYP Y 11
     9 ZIP7       33 GROUP        1 Y    ZIP  0     **** ZIP Y 12
    10 GLP5       44 GROUP        1 Y    GLP  0     **** GLP Y 13
    11 ALL1       38 GROUP        1 Z    ALL  0     ROOT ALL Z 15
    12 SEL2        8 GROUP        1 Z    SEL  0     **** SEL Z 16
    13 LYL4        2 GROUP        1 Z    LYL  0     **** LYL Z 18
    14 ZIL7       32 GROUP        1 Z    ZIL  0     **** ZIL Z 19
    15 GLL5       43 GROUP        1 Z    GLL  0     **** GLL Z 20
@<TRIPOS>SET

