#    Name: 3l2f_ADP_5_ligand
#    Modification time : Mon Mar 24 20:49:07 2014

@<TRIPOS>MOLECULE
3l2f_ADP_5_ligand
   39    41     1     0     0
SMALL
NO_CHARGES


@<TRIPOS>ATOM
      1 PB         40.2740   59.8900  236.4240 P.3       1 ADP605      0.0000 
      2 O1B        41.6120   60.2050  235.8020 O.co2     1 ADP605      0.0000 
      3 O2B        40.3290   58.6010  237.2010 O.co2     1 ADP605      0.0000 
      4 O3B        39.7130   61.0610  237.2050 O.co2     1 ADP605      0.0000 
      5 PA         38.0250   58.9110  234.6790 P.3       1 ADP605      0.0000 
      6 O1A        37.5310   59.5130  233.3830 O.co2     1 ADP605      0.0000 
      7 O2A        37.0810   58.8810  235.8520 O.co2     1 ADP605      0.0000 
      8 O3A        39.3750   59.7180  235.0790 O.3       1 ADP605      0.0000 
      9 O5'        38.3820   57.3740  234.3500 O.3       1 ADP605      0.0000 
     10 C5'        39.5430   56.6970  234.8340 C.3       1 ADP605      0.0000 
     11 C4'        39.1950   55.2260  235.0530 C.3       1 ADP605      0.0000 
     12 O4'        38.8660   54.9660  236.4190 O.3       1 ADP605      0.0000 
     13 C3'        37.9910   54.7970  234.2320 C.3       1 ADP605      0.0000 
     14 O3'        38.3690   53.6940  233.3980 O.3       1 ADP605      0.0000 
     15 C2'        36.9250   54.3570  235.2220 C.3       1 ADP605      0.0000 
     16 O2'        36.2190   53.2240  234.6960 O.3       1 ADP605      0.0000 
     17 C1'        37.7450   54.0620  236.4720 C.3       1 ADP605      0.0000 
     18 N9         37.0670   54.2160  237.7920 N.pl3     1 ADP605      0.0000 
     19 C8         36.7990   55.3850  238.4130 C.2       1 ADP605      0.0000 
     20 N7         36.2000   55.1830  239.6210 N.2       1 ADP605      0.0000 
     21 C5         36.0820   53.8570  239.7850 C.ar      1 ADP605      0.0000 
     22 C6         35.5570   52.9660  240.8380 C.ar      1 ADP605      0.0000 
     23 N6         35.0110   53.4780  241.9560 N.pl3     1 ADP605      0.0000 
     24 N1         35.6290   51.6330  240.6320 N.ar      1 ADP605      0.0000 
     25 C2         36.1630   51.1190  239.4990 C.ar      1 ADP605      0.0000 
     26 N3         36.6700   51.8750  238.5060 N.ar      1 ADP605      0.0000 
     27 C4         36.6590   53.2230  238.5880 C.ar      1 ADP605      0.0000 
     28 H          39.8849   57.1059  235.7867 H         1 ADP605      0.0000 
     29 H          40.3681   56.7436  234.1208 H         1 ADP605      0.0000 
     30 H          40.0374   54.6188  234.7456 H         1 ADP605      0.0000 
     31 H          37.6360   55.6261  233.6820 H         1 ADP605      0.0000 
     32 H          36.3032   55.1980  235.4158 H         1 ADP605      0.0000 
     33 H          38.1341   53.0405  236.3787 H         1 ADP605      0.0000 
     34 H          37.0067   56.2727  238.0464 H         1 ADP605      0.0000 
     35 H          34.9483   54.4751  241.9982 H         1 ADP605      0.0000 
     36 H          34.7166   52.8158  242.6450 H         1 ADP605      0.0000 
     37 H          36.1819   50.0590  239.3895 H         1 ADP605      0.0000 
     38 H          37.6415   53.0184  233.5172 H         1 ADP605      0.0000 
     39 H          35.2915   53.3050  235.0609 H         1 ADP605      0.0000 
@<TRIPOS>BOND
     1    2    1 ar   
     2    3    1 ar   
     3    4    1 ar   
     4    8    1 1    
     5    6    5 ar   
     6    7    5 ar   
     7    8    5 1    
     8    9    5 1    
     9   10    9 1    
    10   11   10 1    
    11   28   10 1    
    12   29   10 1    
    13   12   11 1    
    14   13   11 1    
    15   30   11 1    
    16   17   12 1    
    17   14   13 1    
    18   15   13 1    
    19   31   13 1    
    20   38   14 1    
    21   16   15 1    
    22   17   15 1    
    23   32   15 1    
    24   39   16 1    
    25   18   17 1    
    26   33   17 1    
    27   19   18 1    
    28   27   18 1    
    29   20   19 2    
    30   34   19 1    
    31   21   20 1    
    32   22   21 ar   
    33   27   21 ar   
    34   23   22 1    
    35   24   22 ar   
    36   35   23 1    
    37   36   23 1    
    38   25   24 ar   
    39   26   25 ar   
    40   37   25 1    
    41   27   26 ar   
@<TRIPOS>SUBSTRUCTURE
     1 ADP605      1 GROUP   
@<TRIPOS>SET

