#    Name: 4bb6_HD1_1_INTS_M
#    Modification time : Tue Mar 25 07:12:32 2014

@<TRIPOS>MOLECULE
4bb6_HD1_1_INTS_M
   70     0     6     0     0
SMALL
NO_CHARGES


@<TRIPOS>ATOM
      1 N          -8.5570   58.4270   17.5265 N.am      1 SEC2        0.0000 
      2 N          -7.5790   58.9610   16.7240 N.am      5 SEL2        0.0000 
      3 N          -9.5350   57.8930   18.3290 N.am      3 SEP2        0.0000 
      4 CA         -7.4775   60.9955   15.5720 C.3       2 GLC5        0.0000 
      5 CA         -5.5010   60.3220   15.4630 C.3       6 GLL5        0.0000 
      6 CA         -9.4540   61.6690   15.6810 C.3       4 GLP5        0.0000 
      7 CA         -2.6640   57.5615   15.9785 C.3       2 GLC5        0.0000 
      8 CA         -3.1470   59.3810   15.3320 C.3       6 GLL5        0.0000 
      9 CA         -2.1810   55.7420   16.6250 C.3       4 GLP5        0.0000 
     10 CA         -3.4780   62.8420   18.3025 C.3       2 GLC5        0.0000 
     11 CA         -3.7360   61.2480   16.8740 C.3       6 GLL5        0.0000 
     12 CA         -3.2200   64.4360   19.7310 C.3       4 GLP5        0.0000 
     13 CA         -4.2025   62.4930   12.2890 C.3       2 GLC5        0.0000 
     14 CA         -4.0650   60.6650   13.4230 C.3       6 GLL5        0.0000 
     15 CA         -4.3400   64.3210   11.1550 C.3       4 GLP5        0.0000 
     16 CA         -3.9865   59.8415   11.3455 C.3       2 GLC5        0.0000 
     17 CA         -3.9080   59.0180    9.2680 C.3       4 GLP5        0.0000 
     18 CA         -7.8075   56.2360   16.8225 C.3       2 GLC5        0.0000 
     19 CA         -7.9340   57.4070   14.9130 C.3       6 GLL5        0.0000 
     20 CA         -7.6810   55.0650   18.7320 C.3       4 GLP5        0.0000 
     21 CA         -9.9330   58.9495   12.9685 C.3       2 GLC5        0.0000 
     22 CA         -9.2540   57.5750   14.5100 C.3       6 GLL5        0.0000 
     23 CA        -10.6120   60.3240   11.4270 C.3       4 GLP5        0.0000 
     24 CA         -9.4355   52.7240   13.3200 C.3       2 GLC5        0.0000 
     25 CA         -8.7610   53.8170   11.6810 C.3       6 GLL5        0.0000 
     26 CA        -10.1100   51.6310   14.9590 C.3       4 GLP5        0.0000 
     27 CA         -8.6870   55.7710   10.8850 C.3       2 GLC5        0.0000 
     28 CA         -8.6130   57.7250   10.0890 C.3       4 GLP5        0.0000 
     29 CA         -9.4360   51.6070   12.6470 C.3       2 GLC5        0.0000 
     30 CA         -9.3910   52.5840   11.0120 C.3       6 GLL5        0.0000 
     31 CA         -9.4810   50.6300   14.2820 C.3       4 GLP5        0.0000 
     32 CA         -8.4335   51.3360   10.2190 C.3       2 GLC5        0.0000 
     33 CA         -7.4760   50.0880    9.4260 C.3       4 GLP5        0.0000 
     34 CA        -11.8555   51.8645    8.1965 C.3       2 GLC5        0.0000 
     35 CA        -11.3970   51.6820    9.9680 C.3       6 GLL5        0.0000 
     36 CA        -12.3140   52.0470    6.4250 C.3       4 GLP5        0.0000 
     37 CA        -10.2575   50.2405   10.4020 C.3       2 GLC5        0.0000 
     38 CA         -9.1180   48.7990   10.8360 C.3       4 GLP5        0.0000 
     39 CA         -9.6980   56.3765   10.8855 C.3       2 GLC5        0.0000 
     40 CA        -10.7830   55.0280   11.6820 C.3       6 GLL5        0.0000 
     41 CA         -2.9815   56.2185   13.4195 C.3       2 GLC5        0.0000 
     42 CA         -4.9070   55.3940   13.2870 C.3       6 GLL5        0.0000 
     43 CA         -1.0560   57.0430   13.5520 C.3       4 GLP5        0.0000 
     44 CA         -5.3760   52.4370   14.5575 C.3       2 GLC5        0.0000 
     45 CA         -4.7690   53.8850   13.3550 C.3       6 GLL5        0.0000 
     46 CA         -5.9830   50.9890   15.7600 C.3       4 GLP5        0.0000 
     47 CA         -4.6495   51.8015   11.0940 C.3       2 GLC5        0.0000 
     48 CA         -4.1210   53.2920   12.1160 C.3       6 GLL5        0.0000 
     49 CA         -5.1780   50.3110   10.0720 C.3       4 GLP5        0.0000 
     50 CA         -2.0150   58.4625   14.1645 C.3       2 GLC5        0.0000 
     51 CA         -4.9908   60.3425   17.9733 C.3       2 GLC5        0.0000 
     52 CA         -5.6760   59.9920   19.5810 C.3       4 GLP5        0.0000 
     53 CA         -1.9244   61.4615   12.7154 C.3       2 GLC5        0.0000 
     54 CA         -2.3240   61.6910   14.8550 C.3       6 GLL5        0.0000 
     55 CA         -0.5350   62.0720   11.4500 C.3       4 GLP5        0.0000 
     56 CA         -5.3542   63.0365   13.0365 C.3       2 GLC5        0.0000 
     57 CA         -5.1490   61.2700   14.3320 C.3       6 GLL5        0.0000 
     58 CA         -5.8100   64.1650   11.4460 C.3       4 GLP5        0.0000 
     59 CA         -6.9043   62.4270   15.0935 C.3       2 GLC5        0.0000 
     60 CA         -4.6480   62.5460   14.9220 C.3       6 GLL5        0.0000 
     61 CA         -8.9100   62.9460   15.5600 C.3       4 GLP5        0.0000 
     62 CA        -11.3097   57.9490   13.9725 C.3       2 GLC5        0.0000 
     63 CA        -13.0580   58.8150   13.8210 C.3       4 GLP5        0.0000 
     64 CA        -11.4690   55.6977   13.9655 C.3       2 GLC5        0.0000 
     65 CA         -9.8690   56.5910   13.7380 C.3       6 GLL5        0.0000 
     66 CA        -13.4340   55.3690   14.4040 C.3       4 GLP5        0.0000 
     67 CA         -9.0585   56.8758   11.8080 C.3       2 GLC5        0.0000 
     68 CA        -12.2982   54.8875   12.9210 C.3       2 GLC5        0.0000 
     69 CA         -3.7023   55.7272   15.3392 C.3       2 GLC5        0.0000 
     70 CA         -5.5400   56.0310   14.8200 C.3       6 GLL5        0.0000 
@<TRIPOS>BOND
@<TRIPOS>SUBSTRUCTURE
     1 SEC2        1 GROUP        1 X    SEC  0     ROOT SEC X 2
     2 GLC5        4 GROUP        1 X    GLC  0     **** GLC X 6
     3 SEP2        3 GROUP        1 Y    SEP  0     ROOT SEP Y 9
     4 GLP5        6 GROUP        1 Y    GLP  0     **** GLP Y 13
     5 SEL2        2 GROUP        1 Z    SEL  0     ROOT SEL Z 16
     6 GLL5        5 GROUP        1 Z    GLL  0     **** GLL Z 20
@<TRIPOS>SET

