#    Name: 4bb6_HD1_1_ligand
#    Modification time : Tue Mar 25 07:12:32 2014

@<TRIPOS>MOLECULE
4bb6_HD1_1_ligand
   68    72     1     0     0
SMALL
NO_CHARGES


@<TRIPOS>ATOM
      1 O1         -7.5790   58.9610   16.7240 O.2       1 HD11293     0.0000 
      2 C14        -7.2280   58.5810   15.5970 C.2       1 HD11293     0.0000 
      3 N4         -6.2350   59.1810   14.9240 N.am      1 HD11293     0.0000 
      4 C15        -5.5010   60.3220   15.4630 C.3       1 HD11293     0.0000 
      5 C20        -4.2490   59.9540   16.2510 C.3       1 HD11293     0.0000 
      6 C19        -3.1470   59.3810   15.3320 C.3       1 HD11293     0.0000 
      7 C21        -3.7360   61.2480   16.8740 C.3       1 HD11293     0.0000 
      8 C22        -3.4120   62.2680   15.7530 C.3       1 HD11293     0.0000 
      9 C23        -2.3240   61.6910   14.8550 C.3       1 HD11293     0.0000 
     10 C18        -2.8010   60.3830   14.2220 C.3       1 HD11293     0.0000 
     11 C17        -4.0650   60.6650   13.4230 C.3       1 HD11293     0.0000 
     12 O2         -2.9730   63.4870   16.3330 O.3       1 HD11293     0.0000 
     13 C24        -4.6480   62.5460   14.9220 C.3       1 HD11293     0.0000 
     14 C16        -5.1490   61.2700   14.3320 C.3       1 HD11293     0.0000 
     15 C5         -7.9340   57.4070   14.9130 C.ar      1 HD11293     0.0000 
     16 C6         -9.2540   57.5750   14.5100 C.ar      1 HD11293     0.0000 
     17 C7         -9.8690   56.5910   13.7380 C.ar      1 HD11293     0.0000 
     18 C8         -9.1390   55.4620   13.3160 C.ar      1 HD11293     0.0000 
     19 N2         -9.7520   54.4570   12.5460 N.3       1 HD11293     0.0000 
     20 C12        -8.7610   53.8170   11.6810 C.3       1 HD11293     0.0000 
     21 C11        -9.3910   52.5840   11.0120 C.3       1 HD11293     0.0000 
     22 N3        -10.6700   52.9370   10.3200 N.4       1 HD11293     0.0000 
     23 C13       -11.3970   51.6820    9.9680 C.3       1 HD11293     0.0000 
     24 C10       -11.5420   53.7840   11.1940 C.3       1 HD11293     0.0000 
     25 C9        -10.7830   55.0280   11.6820 C.3       1 HD11293     0.0000 
     26 N1         -7.8550   55.3220   13.6880 N.ar      1 HD11293     0.0000 
     27 C4         -7.2350   56.2710   14.4130 C.ar      1 HD11293     0.0000 
     28 S1         -5.5400   56.0310   14.8200 S.3       1 HD11293     0.0000 
     29 C3         -4.9070   55.3940   13.2870 C.3       1 HD11293     0.0000 
     30 C2         -4.7690   53.8850   13.3550 C.3       1 HD11293     0.0000 
     31 C1         -4.1210   53.2920   12.1160 C.3       1 HD11293     0.0000 
     32 H          -5.9388   58.8577   13.9769 H         1 HD11293     0.0000 
     33 H          -6.1651   60.8886   16.1453 H         1 HD11293     0.0000 
     34 H          -4.4838   59.2669   17.0124 H         1 HD11293     0.0000 
     35 H          -3.5030   58.4586   14.8867 H         1 HD11293     0.0000 
     36 H          -2.2617   59.1804   15.9251 H         1 HD11293     0.0000 
     37 H          -2.8347   61.0512   17.4374 H         1 HD11293     0.0000 
     38 H          -4.4935   61.6690   17.5201 H         1 HD11293     0.0000 
     39 H          -1.4325   61.4986   15.4451 H         1 HD11293     0.0000 
     40 H          -2.0880   62.4033   14.0696 H         1 HD11293     0.0000 
     41 H          -2.0561   59.9866   13.5979 H         1 HD11293     0.0000 
     42 H          -4.4399   59.7399   12.9946 H         1 HD11293     0.0000 
     43 H          -3.8427   61.3666   12.6240 H         1 HD11293     0.0000 
     44 H          -4.3950   63.2491   14.1304 H         1 HD11293     0.0000 
     45 H          -5.4129   62.9889   15.5574 H         1 HD11293     0.0000 
     46 H          -6.0245   61.4630   13.7463 H         1 HD11293     0.0000 
     47 H          -9.7732   58.4172   14.7783 H         1 HD11293     0.0000 
     48 H         -10.8559   56.6826   13.4726 H         1 HD11293     0.0000 
     49 H          -7.8952   53.4867   12.2529 H         1 HD11293     0.0000 
     50 H          -8.4281   54.4949   10.8966 H         1 HD11293     0.0000 
     51 H          -9.5751   51.8290   11.7806 H         1 HD11293     0.0000 
     52 H          -8.6752   52.1757   10.2940 H         1 HD11293     0.0000 
     53 H         -10.4458   53.4760    9.4120 H         1 HD11293     0.0000 
     54 H         -11.8691   53.2131   12.0646 H         1 HD11293     0.0000 
     55 H         -12.4244   54.1103   10.6410 H         1 HD11293     0.0000 
     56 H         -10.3616   55.5207   10.8393 H         1 HD11293     0.0000 
     57 H         -11.4564   55.6442   12.2272 H         1 HD11293     0.0000 
     58 H          -3.9737   55.9006   13.1808 H         1 HD11293     0.0000 
     59 H          -5.6282   55.7218   12.5719 H         1 HD11293     0.0000 
     60 H          -5.7651   53.4372   13.4889 H         1 HD11293     0.0000 
     61 H          -4.1691   53.6169   14.2376 H         1 HD11293     0.0000 
     62 H         -10.8590   51.0996    9.3587 H         1 HD11293     0.0000 
     63 H         -11.6126   51.1378   10.7788 H         1 HD11293     0.0000 
     64 H         -12.2622   51.8717    9.5038 H         1 HD11293     0.0000 
     65 H          -3.1995   53.6521   11.9703 H         1 HD11293     0.0000 
     66 H          -4.0404   52.2973   12.1790 H         1 HD11293     0.0000 
     67 H          -4.6477   53.4916   11.2897 H         1 HD11293     0.0000 
     68 H          -2.3956   64.0644   16.9104 H         1 HD11293     0.0000 
@<TRIPOS>BOND
     1    2    1 2    
     2    3    2 am   
     3   15    2 1    
     4    4    3 1    
     5   32    3 1    
     6    5    4 1    
     7   14    4 1    
     8   33    4 1    
     9    6    5 1    
    10    7    5 1    
    11   34    5 1    
    12   10    6 1    
    13   35    6 1    
    14   36    6 1    
    15    8    7 1    
    16   37    7 1    
    17   38    7 1    
    18    9    8 1    
    19   12    8 1    
    20   13    8 1    
    21   10    9 1    
    22   39    9 1    
    23   40    9 1    
    24   11   10 1    
    25   41   10 1    
    26   14   11 1    
    27   42   11 1    
    28   43   11 1    
    29   68   12 1    
    30   14   13 1    
    31   44   13 1    
    32   45   13 1    
    33   46   14 1    
    34   16   15 ar   
    35   27   15 ar   
    36   17   16 ar   
    37   47   16 1    
    38   18   17 ar   
    39   48   17 1    
    40   19   18 1    
    41   26   18 ar   
    42   20   19 1    
    43   25   19 1    
    44   21   20 1    
    45   49   20 1    
    46   50   20 1    
    47   22   21 1    
    48   51   21 1    
    49   52   21 1    
    50   23   22 1    
    51   24   22 1    
    52   53   22 1    
    53   62   23 1    
    54   63   23 1    
    55   64   23 1    
    56   25   24 1    
    57   54   24 1    
    58   55   24 1    
    59   56   25 1    
    60   57   25 1    
    61   27   26 ar   
    62   28   27 1    
    63   29   28 1    
    64   30   29 1    
    65   58   29 1    
    66   59   29 1    
    67   31   30 1    
    68   60   30 1    
    69   61   30 1    
    70   65   31 1    
    71   66   31 1    
    72   67   31 1    
@<TRIPOS>SUBSTRUCTURE
     1 HD11293     1 GROUP   
@<TRIPOS>SET

