#    Name: 2h7i_566_1_INTS_M
#    Modification time : Tue Mar 25 15:41:39 2014

@<TRIPOS>MOLECULE
2h7i_566_1_INTS_M
   58     0     6     0     0
SMALL
NO_CHARGES


@<TRIPOS>ATOM
      1 CA         44.1510   53.8980  -84.2905 C.3       2 GLC5        0.0000 
      2 CA         44.1920   53.6380  -82.0640 C.3       6 GLL5        0.0000 
      3 CA         44.1100   54.1580  -86.5170 C.3       4 GLP5        0.0000 
      4 CA         46.0230   53.0065  -82.9615 C.3       2 GLC5        0.0000 
      5 CA         47.8540   52.3750  -83.8590 C.3       4 GLP5        0.0000 
      6 CA         39.5635   54.4390  -80.4240 C.3       2 GLC5        0.0000 
      7 CA         41.2750   53.6480  -81.2930 C.3       6 GLL5        0.0000 
      8 CA         37.8520   55.2300  -79.5550 C.3       4 GLP5        0.0000 
      9 CA         39.5770   54.0835  -82.6060 C.3       2 GLC5        0.0000 
     10 CA         37.8790   54.5190  -83.9190 C.3       4 GLP5        0.0000 
     11 CA         40.2365   55.8715  -80.9605 C.3       2 GLC5        0.0000 
     12 CA         41.9630   54.9420  -81.7860 C.3       6 GLL5        0.0000 
     13 CA         38.5100   56.8010  -80.1350 C.3       4 GLP5        0.0000 
     14 CA         40.5100   55.1700  -83.3870 C.3       2 GLC5        0.0000 
     15 CA         39.0570   55.3980  -84.9880 C.3       4 GLP5        0.0000 
     16 CA         37.2970   49.1730  -81.7540 C.3       2 GLC5        0.0000 
     17 CA         39.2160   50.1280  -81.1230 C.3       6 GLL5        0.0000 
     18 CA         35.3780   48.2180  -82.3850 C.3       4 GLP5        0.0000 
     19 CA         41.3285   48.9600  -80.8025 C.3       2 GLC5        0.0000 
     20 CA         41.2600   50.9350  -79.8150 C.3       6 GLL5        0.0000 
     21 CA         41.3970   46.9850  -81.7900 C.3       4 GLP5        0.0000 
     22 CA         37.1195   53.7085  -78.5560 C.3       2 GLC5        0.0000 
     23 CA         36.3870   52.1870  -77.5570 C.3       6 GLL5        0.0000 
     24 N          38.7210   50.9625  -83.6415 N.am      1 SEC2        0.0000 
     25 N          40.0340   50.7380  -83.2950 N.am      5 SEL2        0.0000 
     26 N          37.4080   51.1870  -83.9880 N.am      3 SEP2        0.0000 
     27 N          40.8425   50.7135  -84.1875 N.am      1 SEC2        0.0000 
     28 N          41.6510   50.6890  -85.0800 N.am      3 SEP2        0.0000 
     29 CA         42.7407   51.1373  -83.2860 C.3       2 GLC5        0.0000 
     30 CA         41.9390   52.3930  -81.9000 C.3       6 GLL5        0.0000 
     31 CA         42.7820   49.9040  -84.8060 C.3       4 GLP5        0.0000 
     32 CA         43.1013   56.1882  -83.2060 C.3       2 GLC5        0.0000 
     33 CA         43.4710   57.4390  -84.7310 C.3       4 GLP5        0.0000 
     34 CA         38.0973   51.1990  -81.1947 C.3       2 GLC5        0.0000 
     35 CA         36.6950   52.2040  -81.9410 C.3       4 GLP5        0.0000 
     36 CA         40.4483   48.5895  -81.1193 C.3       2 GLC5        0.0000 
     37 CA         40.6968   50.6123  -78.1268 C.3       2 GLC5        0.0000 
     38 CA         39.7830   50.2600  -79.7740 C.3       6 GLL5        0.0000 
     39 CA         40.8720   50.6270  -76.4590 C.3       4 GLP5        0.0000 
     40 CA         34.6367   53.3792  -78.5943 C.3       2 GLC5        0.0000 
     41 CA         33.4880   54.3600  -79.9300 C.3       4 GLP5        0.0000 
     42 CA         37.9900   50.6185  -76.7630 C.3       2 GLC5        0.0000 
     43 CA         39.5490   49.6980  -75.6770 C.3       4 GLP5        0.0000 
     44 CA         33.7323   53.5497  -76.2135 C.3       2 GLC5        0.0000 
     45 CA         35.1840   52.6100  -76.9600 C.3       6 GLL5        0.0000 
     46 CA         32.8400   54.9190  -75.4770 C.3       4 GLP5        0.0000 
     47 CA         34.7705   51.1925  -75.3962 C.3       2 GLC5        0.0000 
     48 CA         34.0650   51.7510  -76.9400 C.3       6 GLL5        0.0000 
     49 CA         35.4350   51.2760  -73.5640 C.3       4 GLP5        0.0000 
     50 CA         33.1290   49.8942  -79.0515 C.3       2 GLC5        0.0000 
     51 CA         34.1470   50.4670  -77.5170 C.3       6 GLL5        0.0000 
     52 CA         31.5110   49.5360  -80.2860 C.3       4 GLP5        0.0000 
     53 CA         33.9718   51.7932  -79.1379 C.3       2 GLC5        0.0000 
     54 CA         35.3470   50.0380  -78.1170 C.3       6 GLL5        0.0000 
     55 CA         33.2170   53.0130  -80.6030 C.3       4 GLP5        0.0000 
     56 CA         36.4176   51.8389  -75.7629 C.3       2 GLC5        0.0000 
     57 CA         36.4750   50.8910  -78.1410 C.3       6 GLL5        0.0000 
     58 CA         36.7050   52.0330  -73.8260 C.3       4 GLP5        0.0000 
@<TRIPOS>BOND
@<TRIPOS>SUBSTRUCTURE
     1 SEC2       24 GROUP        1 X    SEC  0     ROOT SEC X 2
     2 GLC5        1 GROUP        1 X    GLC  0     **** GLC X 6
     3 SEP2       26 GROUP        1 Y    SEP  0     ROOT SEP Y 9
     4 GLP5        3 GROUP        1 Y    GLP  0     **** GLP Y 13
     5 SEL2       25 GROUP        1 Z    SEL  0     ROOT SEL Z 16
     6 GLL5        2 GROUP        1 Z    GLL  0     **** GLL Z 20
@<TRIPOS>SET

