#    Name: 2h7i_566_1_ligand
#    Modification time : Tue Mar 25 15:41:39 2014

@<TRIPOS>MOLECULE
2h7i_566_1_ligand
   43    45     1     0     0
SMALL
NO_CHARGES


@<TRIPOS>ATOM
      1 C1         44.1920   53.6380  -82.0640 C.3       1 566401      0.0000 
      2 C2         43.4600   52.3480  -81.6320 C.3       1 566401      0.0000 
      3 C3         41.9390   52.3930  -81.9000 C.3       1 566401      0.0000 
      4 C4         41.2750   53.6480  -81.2930 C.3       1 566401      0.0000 
      5 C5         41.9630   54.9420  -81.7860 C.3       1 566401      0.0000 
      6 C6         43.5000   54.9330  -81.5760 C.3       1 566401      0.0000 
      7 C15        40.2220   50.6950  -82.0960 C.2       1 566401      0.0000 
      8 C16        39.2160   50.1280  -81.1230 C.3       1 566401      0.0000 
      9 C17        39.7830   50.2600  -79.7740 C.3       1 566401      0.0000 
     10 C18        41.2600   50.9350  -79.8150 C.3       1 566401      0.0000 
     11 N19        41.3220   51.1150  -81.4570 N.am      1 566401      0.0000 
     12 C24        36.3870   52.1870  -77.5570 C.ar      1 566401      0.0000 
     13 C25        35.1840   52.6100  -76.9600 C.ar      1 566401      0.0000 
     14 C26        34.0650   51.7510  -76.9400 C.ar      1 566401      0.0000 
     15 C27        34.1470   50.4670  -77.5170 C.ar      1 566401      0.0000 
     16 C28        35.3470   50.0380  -78.1170 C.ar      1 566401      0.0000 
     17 C29        36.4750   50.8910  -78.1410 C.ar      1 566401      0.0000 
     18 C33        38.7790   51.1170  -79.0110 C.2       1 566401      0.0000 
     19 N35        37.6290   50.4100  -78.7680 N.am      1 566401      0.0000 
     20 O37        39.0100   52.2930  -78.7240 O.2       1 566401      0.0000 
     21 O38        40.0340   50.7380  -83.2950 O.2       1 566401      0.0000 
     22 H          44.2539   53.6615  -83.1584 H         1 566401      0.0000 
     23 H          45.2150   53.6144  -81.6704 H         1 566401      0.0000 
     24 H          43.6266   52.1873  -80.5616 H         1 566401      0.0000 
     25 H          43.8901   51.4982  -82.1727 H         1 566401      0.0000 
     26 H          41.8257   52.4649  -83.0037 H         1 566401      0.0000 
     27 H          41.3459   53.5995  -80.2094 H         1 566401      0.0000 
     28 H          40.2273   53.6714  -81.5818 H         1 566401      0.0000 
     29 H          41.5395   55.7964  -81.2495 H         1 566401      0.0000 
     30 H          41.7542   55.0717  -82.8522 H         1 566401      0.0000 
     31 H          43.9329   55.7890  -82.1093 H         1 566401      0.0000 
     32 H          43.7097   55.0660  -80.5070 H         1 566401      0.0000 
     33 H          39.0383   49.0865  -81.3641 H         1 566401      0.0000 
     34 H          38.2902   50.6851  -81.2061 H         1 566401      0.0000 
     35 H          39.8675   49.3115  -79.3029 H         1 566401      0.0000 
     36 H          41.9461   50.2458  -79.5512 H         1 566401      0.0000 
     37 H          41.2156   51.8533  -79.4025 H         1 566401      0.0000 
     38 H          37.1993   52.8033  -77.5749 H         1 566401      0.0000 
     39 H          35.1201   53.5401  -76.5404 H         1 566401      0.0000 
     40 H          33.1922   52.0607  -76.5058 H         1 566401      0.0000 
     41 H          33.3340   49.8470  -77.4995 H         1 566401      0.0000 
     42 H          35.4055   49.1075  -78.5372 H         1 566401      0.0000 
     43 H          37.6018   49.3831  -79.0874 H         1 566401      0.0000 
@<TRIPOS>BOND
     1    2    1 1    
     2    6    1 1    
     3   22    1 1    
     4   23    1 1    
     5    3    2 1    
     6   24    2 1    
     7   25    2 1    
     8    4    3 1    
     9   11    3 1    
    10   26    3 1    
    11    5    4 1    
    12   27    4 1    
    13   28    4 1    
    14    6    5 1    
    15   29    5 1    
    16   30    5 1    
    17   31    6 1    
    18   32    6 1    
    19    8    7 1    
    20   11    7 am   
    21   21    7 2    
    22    9    8 1    
    23   33    8 1    
    24   34    8 1    
    25   10    9 1    
    26   18    9 1    
    27   35    9 1    
    28   11   10 1    
    29   36   10 1    
    30   37   10 1    
    31   13   12 ar   
    32   17   12 ar   
    33   38   12 1    
    34   14   13 ar   
    35   39   13 1    
    36   15   14 ar   
    37   40   14 1    
    38   16   15 ar   
    39   41   15 1    
    40   17   16 ar   
    41   42   16 1    
    42   19   17 1    
    43   19   18 am   
    44   20   18 2    
    45   43   19 1    
@<TRIPOS>SUBSTRUCTURE
     1 566401      1 GROUP   
@<TRIPOS>SET

