#    Name: 3ay0_ADN_1_INTS_M
#    Modification time : Mon Mar 24 18:28:22 2014

@<TRIPOS>MOLECULE
3ay0_ADN_1_INTS_M
   46     0     9     0     0
SMALL
NO_CHARGES


@<TRIPOS>ATOM
      1 CA        -53.6450   -5.3465  -42.1000 C.3       3 GLC5        0.0000 
      2 CA        -53.9070   -4.7400  -39.9680 C.3       9 GLL5        0.0000 
      3 CA        -53.3830   -5.9530  -44.2320 C.3       6 GLP5        0.0000 
      4 O         -54.8265   -2.3225  -42.1640 O.2       1 ALC1        0.0000 
      5 O         -53.5710   -2.9250  -41.5540 O.2       7 ALL1        0.0000 
      6 O         -56.0820   -1.7200  -42.7740 O.2       4 ALP1        0.0000 
      7 O         -54.6400   -3.3970  -42.0945 O.2       1 ALC1        0.0000 
      8 O         -55.7090   -3.8690  -42.6350 O.2       4 ALP1        0.0000 
      9 CA        -54.3580   -0.8050  -40.8340 C.3       3 GLC5        0.0000 
     10 CA        -54.5550   -2.5080  -39.3820 C.3       9 GLL5        0.0000 
     11 CA        -54.1610    0.8980  -42.2860 C.3       6 GLP5        0.0000 
     12 O         -55.4630   -1.4800  -41.3750 O.2       1 ALC1        0.0000 
     13 O         -54.8440   -1.2400  -39.9760 O.2       7 ALL1        0.0000 
     14 CA        -56.5810   -5.4855  -39.4045 C.3       3 GLC5        0.0000 
     15 CA        -55.7270   -3.4850  -39.4370 C.3       9 GLL5        0.0000 
     16 CA        -57.4350   -7.4860  -39.3720 C.3       6 GLP5        0.0000 
     17 CA        -61.6220   -1.1595  -38.4380 C.3       3 GLC5        0.0000 
     18 CA        -60.0680   -2.3880  -37.5570 C.3       9 GLL5        0.0000 
     19 CA        -63.1760    0.0690  -39.3190 C.3       6 GLP5        0.0000 
     20 CA        -61.7470   -3.6765  -37.6075 C.3       3 GLC5        0.0000 
     21 CA        -63.4260   -4.9650  -37.6580 C.3       6 GLP5        0.0000 
     22 O         -62.2830   -1.4885  -36.5960 O.2       1 ALC1        0.0000 
     23 O         -60.7250   -2.1150  -36.4330 O.2       7 ALL1        0.0000 
     24 O         -63.8410   -0.8620  -36.7590 O.2       4 ALP1        0.0000 
     25 N         -62.1080   -2.4055  -39.0390 N.am      2 SEC2        0.0000 
     26 N         -60.7200   -2.4420  -38.7260 N.am      8 SEL2        0.0000 
     27 N         -63.4960   -2.3690  -39.3520 N.am      5 SEP2        0.0000 
     28 CA        -61.4695   -3.3465  -41.4895 C.3       3 GLC5        0.0000 
     29 CA        -60.0820   -2.7240  -39.8480 C.3       9 GLL5        0.0000 
     30 CA        -62.8570   -3.9690  -43.1310 C.3       6 GLP5        0.0000 
     31 CA        -59.4755   -2.7760  -41.6095 C.3       3 GLC5        0.0000 
     32 CA        -58.8690   -2.8280  -43.3710 C.3       6 GLP5        0.0000 
     33 CA        -59.6475   -1.0245  -39.9895 C.3       3 GLC5        0.0000 
     34 CA        -59.2130    0.6750  -40.1310 C.3       6 GLP5        0.0000 
     35 CA        -61.6290   -1.3275  -39.5835 C.3       3 GLC5        0.0000 
     36 CA        -61.8130   -3.7920  -39.5100 C.3       3 GLC5        0.0000 
     37 CA        -63.5440   -4.8600  -39.1720 C.3       6 GLP5        0.0000 
     38 N         -58.8105   -1.9140  -40.9345 N.am      2 SEC2        0.0000 
     39 N         -58.7830   -2.9630  -39.8670 N.am      8 SEL2        0.0000 
     40 N         -58.8380   -0.8650  -42.0020 N.am      5 SEP2        0.0000 
     41 CA        -51.4578   -4.2912  -39.8777 C.3       3 GLC5        0.0000 
     42 CA        -49.4990   -4.3860  -39.8570 C.3       6 GLP5        0.0000 
     43 CA        -56.5575   -1.3813  -39.3902 C.3       3 GLC5        0.0000 
     44 CA        -57.9740    0.2340  -39.3710 C.3       6 GLP5        0.0000 
     45 CA        -58.3500   -1.2421  -38.7560 C.3       3 GLC5        0.0000 
     46 CA        -58.7020   -2.6330  -37.5370 C.3       9 GLL5        0.0000 
@<TRIPOS>BOND
@<TRIPOS>SUBSTRUCTURE
     1 ALC1        4 GROUP        1 X    ALC  0     ROOT ALC X 1
     2 SEC2       25 GROUP        1 X    SEC  0     **** SEC X 2
     3 GLC5        1 GROUP        1 X    GLC  0     **** GLC X 6
     4 ALP1        6 GROUP        1 Y    ALP  0     ROOT ALP Y 8
     5 SEP2       27 GROUP        1 Y    SEP  0     **** SEP Y 9
     6 GLP5        3 GROUP        1 Y    GLP  0     **** GLP Y 13
     7 ALL1        5 GROUP        1 Z    ALL  0     ROOT ALL Z 15
     8 SEL2       26 GROUP        1 Z    SEL  0     **** SEL Z 16
     9 GLL5        2 GROUP        1 Z    GLL  0     **** GLL Z 20
@<TRIPOS>SET

