#    Name: 3ay0_ADN_1_ligand
#    Modification time : Mon Mar 24 18:28:22 2014

@<TRIPOS>MOLECULE
3ay0_ADN_1_ligand
   32    34     1     0     0
SMALL
NO_CHARGES


@<TRIPOS>ATOM
      1 O5'       -53.1560   -6.8460  -39.0590 O.3       1 ADN401      0.0000 
      2 C5'       -52.7630   -5.4900  -39.2840 C.3       1 ADN401      0.0000 
      3 C4'       -53.9070   -4.7400  -39.9680 C.3       1 ADN401      0.0000 
      4 O4'       -55.0600   -4.7130  -39.1090 O.3       1 ADN401      0.0000 
      5 C3'       -53.4980   -3.2780  -40.1710 C.3       1 ADN401      0.0000 
      6 O3'       -53.5710   -2.9250  -41.5540 O.3       1 ADN401      0.0000 
      7 C2'       -54.5550   -2.5080  -39.3820 C.3       1 ADN401      0.0000 
      8 O2'       -54.8440   -1.2400  -39.9760 O.3       1 ADN401      0.0000 
      9 C1'       -55.7270   -3.4850  -39.4370 C.3       1 ADN401      0.0000 
     10 N9        -56.7810   -3.1250  -38.4610 N.pl3     1 ADN401      0.0000 
     11 C8        -56.6160   -2.9630  -37.1490 C.2       1 ADN401      0.0000 
     12 N7        -57.7800   -2.6640  -36.5780 N.2       1 ADN401      0.0000 
     13 C5        -58.7020   -2.6330  -37.5370 C.ar      1 ADN401      0.0000 
     14 C6        -60.0680   -2.3880  -37.5570 C.ar      1 ADN401      0.0000 
     15 N6        -60.7250   -2.1150  -36.4330 N.pl3     1 ADN401      0.0000 
     16 N1        -60.7200   -2.4420  -38.7260 N.ar      1 ADN401      0.0000 
     17 C2        -60.0820   -2.7240  -39.8480 C.ar      1 ADN401      0.0000 
     18 N3        -58.7830   -2.9630  -39.8670 N.ar      1 ADN401      0.0000 
     19 C4        -58.0670   -2.9260  -38.7350 C.ar      1 ADN401      0.0000 
     20 H         -51.8848   -5.4235  -39.9327 H         1 ADN401      0.0000 
     21 H         -52.5362   -4.9717  -38.3479 H         1 ADN401      0.0000 
     22 H         -54.1148   -5.1711  -40.9050 H         1 ADN401      0.0000 
     23 H         -52.5626   -3.1214  -39.7293 H         1 ADN401      0.0000 
     24 H         -54.2226   -2.4549  -38.3724 H         1 ADN401      0.0000 
     25 H         -56.0836   -3.5030  -40.4330 H         1 ADN401      0.0000 
     26 H         -55.7605   -3.0515  -36.6740 H         1 ADN401      0.0000 
     27 H         -61.7056   -1.9431  -36.5272 H         1 ADN401      0.0000 
     28 H         -60.1790   -2.1063  -35.5952 H         1 ADN401      0.0000 
     29 H         -60.6283   -2.7595  -40.7591 H         1 ADN401      0.0000 
     30 H         -52.3322   -7.3861  -39.2313 H         1 ADN401      0.0000 
     31 H         -54.5488   -2.8628  -41.7539 H         1 ADN401      0.0000 
     32 H         -55.2281   -1.4563  -40.8736 H         1 ADN401      0.0000 
@<TRIPOS>BOND
     1    2    1 1    
     2   30    1 1    
     3    3    2 1    
     4   20    2 1    
     5   21    2 1    
     6    4    3 1    
     7    5    3 1    
     8   22    3 1    
     9    9    4 1    
    10    6    5 1    
    11    7    5 1    
    12   23    5 1    
    13   31    6 1    
    14    8    7 1    
    15    9    7 1    
    16   24    7 1    
    17   32    8 1    
    18   10    9 1    
    19   25    9 1    
    20   11   10 1    
    21   19   10 1    
    22   12   11 2    
    23   26   11 1    
    24   13   12 1    
    25   14   13 ar   
    26   19   13 ar   
    27   15   14 1    
    28   16   14 ar   
    29   27   15 1    
    30   28   15 1    
    31   17   16 ar   
    32   18   17 ar   
    33   29   17 1    
    34   19   18 ar   
@<TRIPOS>SUBSTRUCTURE
     1 ADN401      1 GROUP   
@<TRIPOS>SET

