#    Name: 3DBU_1_CAVITY_N1_ALL.mol2
#    Modification time : Tue Mar 11 15:53:10 2014

@<TRIPOS>MOLECULE
3DBU_1_CAVITY_N1_ALL.mol2
   74     0     6     0     0
SMALL
NO_CHARGES


@<TRIPOS>ATOM
      1 CZ         -2.1326   10.4771   14.4765 C.ar      4 PHE5        0.0000 
      2 CA         -2.1465    8.9972   16.6118 C.3       5 GLY6        0.0000 
      3 CA         -1.9272    8.4988   15.2141 C.3       5 GLY6        0.0000 
      4 CZ         -3.0741    9.3383   14.7348 C.ar      4 PHE5        0.0000 
      5 CA         -0.5609    7.1610   14.2957 C.3       5 GLY6        0.0000 
      6 DU         -1.7079    8.0005   13.8164 H         6 CUB7        0.0000 
      7 DU         -1.4885    7.5021   12.4187 H         6 CUB7        0.0000 
      8 CA         -2.8687    7.3600   15.4724 C.3       5 GLY6        0.0000 
      9 CZ         -4.0156    8.1995   14.9931 C.ar      4 PHE5        0.0000 
     10 CA         -1.5024    6.0222   14.5540 C.3       5 GLY6        0.0000 
     11 DU         -2.6493    6.8617   14.0747 H         6 CUB7        0.0000 
     12 CZ         -3.7963    7.7012   13.5954 C.ar      4 PHE5        0.0000 
     13 N          -1.2831    5.5238   13.1563 N.2       2 ALA2        0.0000 
     14 DU         -2.4300    6.3633   12.6770 H         6 CUB7        0.0000 
     15 DU         -3.5770    7.2028   12.1977 H         6 CUB7        0.0000 
     16 DU         -1.0638    5.0254   11.7586 H         6 CUB7        0.0000 
     17 N          -0.8445    4.5271   10.3609 N.2       2 ALA2        0.0000 
     18 DU         -1.9914    5.3666    9.8816 H         6 CUB7        0.0000 
     19 CA         -3.8101    6.2212   15.7307 C.3       5 GLY6        0.0000 
     20 CZ         -4.9571    7.0607   15.2514 C.ar      4 PHE5        0.0000 
     21 CA         -2.4439    4.8834   14.8123 C.3       5 GLY6        0.0000 
     22 CA         -3.5908    5.7229   14.3330 C.3       5 GLY6        0.0000 
     23 CZ         -4.7378    6.5624   13.8537 C.ar      4 PHE5        0.0000 
     24 CZ         -5.8847    7.4019   13.3744 C.ar      4 PHE5        0.0000 
     25 DU         -3.3715    5.2245   12.9354 H         6 CUB7        0.0000 
     26 DU         -4.5185    6.0640   12.4561 H         6 CUB7        0.0000 
     27 N          -5.6654    6.9035   11.9768 N.2       2 ALA2        0.0000 
     28 CZ         -6.8124    7.7430   11.4975 C.ar      4 PHE5        0.0000 
     29 N          -2.0053    3.8866   12.0170 N.2       2 ALA2        0.0000 
     30 DU         -3.1522    4.7261   11.5377 H         6 CUB7        0.0000 
     31 N          -4.2992    5.5656   11.0584 N.2       2 ALA2        0.0000 
     32 N          -2.9329    4.2278   10.1400 N.2       2 ALA2        0.0000 
     33 N          -4.0799    5.0673    9.6607 N.2       2 ALA2        0.0000 
     34 N          -5.2268    5.9068    9.1814 N.2       2 ALA2        0.0000 
     35 CA         -5.8986    5.9219   15.5098 C.3       5 GLY6        0.0000 
     36 CZ         -7.0455    6.7614   15.0305 C.ar      4 PHE5        0.0000 
     37 OG         -3.3854    3.7445   15.0707 O.2       1 SER1        0.0000 
     38 CA         -4.5323    4.5841   14.5914 C.3       5 GLY6        0.0000 
     39 N          -5.6793    5.4236   14.1121 N.2       2 ALA2        0.0000 
     40 CZ         -6.8262    6.2631   13.6328 C.ar      4 PHE5        0.0000 
     41 CZ         -7.9732    7.1026   13.1535 C.ar      4 PHE5        0.0000 
     42 OG         -3.1661    3.2462   13.6730 O.2       1 SER1        0.0000 
     43 DU         -4.3130    4.0857   13.1937 H         6 CUB7        0.0000 
     44 N          -5.4600    4.9252   12.7144 N.2       2 ALA2        0.0000 
     45 N          -7.7539    6.6042   11.7558 N.2       2 ALA2        0.0000 
     46 OG         -2.9467    2.7478   12.2753 O.2       1 SER1        0.0000 
     47 N          -4.0937    3.5873   11.7960 N.2       2 ALA2        0.0000 
     48 N          -5.2407    4.4268   11.3167 N.2       2 ALA2        0.0000 
     49 N          -3.8744    3.0890   10.3983 N.2       2 ALA2        0.0000 
     50 CA         -5.6931    3.9436   16.2474 C.3       5 GLY6        0.0000 
     51 CA         -6.8401    4.7831   15.7681 C.3       5 GLY6        0.0000 
     52 OG         -4.3268    2.6057   15.3290 O.2       1 SER1        0.0000 
     53 CA         -5.4738    3.4453   14.8497 C.3       5 GLY6        0.0000 
     54 CA         -6.6208    4.2848   14.3704 C.3       5 GLY6        0.0000 
     55 CA         -7.7677    5.1243   13.8911 C.3       5 GLY6        0.0000 
     56 OG         -4.1075    2.1074   13.9313 O.2       1 SER1        0.0000 
     57 N          -5.2545    2.9469   13.4520 N.2       2 ALA2        0.0000 
     58 OG         -3.8882    1.6090   12.5336 O.2       1 SER1        0.0000 
     59 N          -5.0352    2.4485   12.0543 N.2       2 ALA2        0.0000 
     60 O          -4.8159    1.9502   10.6566 O.2       2 ALA2        0.0000 
     61 CA         -5.7070    2.4637   18.3827 C.3       5 GLY6        0.0000 
     62 CA         -6.8539    3.3032   17.9034 C.3       5 GLY6        0.0000 
     63 O          -4.3407    1.1258   17.4643 O.2       2 ALA2        0.0000 
     64 CA         -5.4876    1.9653   16.9850 C.3       5 GLY6        0.0000 
     65 CA         -6.6346    2.8048   16.5057 C.3       5 GLY6        0.0000 
     66 OG         -4.1214    0.6274   16.0666 O.2       1 SER1        0.0000 
     67 OD1        -5.2683    1.4669   15.5873 O.3       3 ASP3        0.0000 
     68 N          -6.4153    2.3064   15.1080 N.2       2 ALA2        0.0000 
     69 N          -5.0490    0.9686   14.1896 N.2       2 ALA2        0.0000 
     70 N          -4.8297    0.4702   12.7919 N.2       2 ALA2        0.0000 
     71 O          -5.9767    1.3097   12.3126 O.2       2 ALA2        0.0000 
     72 CZ         -6.6484    1.3249   18.6410 C.ar      4 PHE5        0.0000 
     73 OD1        -6.4291    0.8265   17.2433 O.3       3 ASP3        0.0000 
     74 CA         -7.5761    1.6660   16.7640 C.3       5 GLY6        0.0000 
@<TRIPOS>BOND
@<TRIPOS>SUBSTRUCTURE
     1 SER1       37 GROUP   
     2 ALA2       13 GROUP   
     3 ASP3       67 GROUP   
     4 PHE5        1 GROUP   
     5 GLY6        2 GROUP   
     6 CUB7        6 GROUP   
@<TRIPOS>SET

