#    Name: 3dbu_D8W_1_INTS_M
#    Modification time : Mon Mar 24 23:03:35 2014

@<TRIPOS>MOLECULE
3dbu_D8W_1_INTS_M
   31     0    12     0     0
SMALL
NO_CHARGES


@<TRIPOS>ATOM
      1 CA         -0.1910    7.4340   14.9600 C.3       4 GLC5        0.0000 
      2 CA         -1.8840    8.6900   14.2660 C.3      12 GLL5        0.0000 
      3 CA          1.5020    6.1780   15.6540 C.3       8 GLP5        0.0000 
      4 N          -6.7545    5.2990   11.4825 N.am      2 SEC2        0.0000 
      5 N          -5.7080    6.4880   11.8610 N.am     10 SEL2        0.0000 
      6 N          -7.8010    4.1100   11.1040 N.am      6 SEP2        0.0000 
      7 Zn         -5.6780    1.5350   14.1985 Zn        3 ZIC7        0.0000 
      8 Zn         -4.5820    4.6730   13.0350 Zn       11 ZIL7        0.0000 
      9 Zn         -6.7740   -1.6030   15.3620 Zn        7 ZIP7        0.0000 
     10 CA         -7.8480    3.5020   15.0555 C.3       4 GLC5        0.0000 
     11 CA         -5.8540    3.4340   15.0680 C.3      12 GLL5        0.0000 
     12 CA         -9.8420    3.5700   15.0430 C.3       8 GLP5        0.0000 
     13 CA         -5.1355    4.1495   16.7195 C.3       4 GLC5        0.0000 
     14 CA         -4.4170    4.8650   18.3710 C.3       8 GLP5        0.0000 
     15 N          -2.5200    1.5580   14.8185 N.am      2 SEC2        0.0000 
     16 N          -3.9230    1.7500   15.0500 N.am     10 SEL2        0.0000 
     17 N          -1.1170    1.3660   14.5870 N.am      6 SEP2        0.0000 
     18 N          -3.9580    0.7705   18.5720 N.am      2 SEC2        0.0000 
     19 N          -5.2900    1.2210   18.0210 N.am     10 SEL2        0.0000 
     20 N          -2.6260    0.3200   19.1230 N.am      6 SEP2        0.0000 
     21 O          -4.5145   -1.3040   17.0135 O.2       1 ALC1        0.0000 
     22 O          -5.5030   -0.5170   16.2880 O.2       9 ALL1        0.0000 
     23 O          -3.5260   -2.0910   17.7390 O.2       5 ALP1        0.0000 
     24 Zn         -6.1385   -1.0600   15.8250 Zn        3 ZIC7        0.0000 
     25 Zn         -5.5030   -0.5170   16.2880 Zn       11 ZIL7        0.0000 
     26 CA         -3.8370    9.2350   16.3012 C.3       4 GLC5        0.0000 
     27 CA         -3.7420    7.3070   14.8980 C.3      12 GLL5        0.0000 
     28 CA         -4.4570   10.7410   17.5240 C.3       8 GLP5        0.0000 
     29 CA         -2.6835    6.7905   16.5312 C.3       4 GLC5        0.0000 
     30 CA         -2.6920    8.1510   15.2590 C.3      12 GLL5        0.0000 
     31 CA         -2.1500    5.8520   17.9840 C.3       8 GLP5        0.0000 
@<TRIPOS>BOND
@<TRIPOS>SUBSTRUCTURE
     1 ALC1       21 GROUP        1 X    ALC  0     ROOT ALC X 1
     2 SEC2        4 GROUP        1 X    SEC  0     **** SEC X 2
     3 ZIC7        7 GROUP        1 X    ZIC  0     **** ZIC X 5
     4 GLC5        1 GROUP        1 X    GLC  0     **** GLC X 6
     5 ALP1       23 GROUP        1 Y    ALP  0     ROOT ALP Y 8
     6 SEP2        6 GROUP        1 Y    SEP  0     **** SEP Y 9
     7 ZIP7        9 GROUP        1 Y    ZIP  0     **** ZIP Y 12
     8 GLP5        3 GROUP        1 Y    GLP  0     **** GLP Y 13
     9 ALL1       22 GROUP        1 Z    ALL  0     ROOT ALL Z 15
    10 SEL2        5 GROUP        1 Z    SEL  0     **** SEL Z 16
    11 ZIL7        8 GROUP        1 Z    ZIL  0     **** ZIL Z 19
    12 GLL5        2 GROUP        1 Z    GLL  0     **** GLL Z 20
@<TRIPOS>SET

