#    Name: 3dbu_D8W_1_ligand
#    Modification time : Mon Mar 24 23:03:35 2014

@<TRIPOS>MOLECULE
3dbu_D8W_1_ligand
   26    27     1     0     0
SMALL
NO_CHARGES


@<TRIPOS>ATOM
      1 C1         -3.7420    7.3070   14.8980 C.ar      1 D8W301      0.0000 
      2 C2         -2.6920    8.1510   15.2590 C.ar      1 D8W301      0.0000 
      3 C3         -1.8840    8.6900   14.2660 C.ar      1 D8W301      0.0000 
      4 C4         -2.1030    8.4210   12.9200 C.ar      1 D8W301      0.0000 
      5 C5         -3.1460    7.5680   12.5600 C.ar      1 D8W301      0.0000 
      6 C6         -3.9410    7.0250   13.5560 C.ar      1 D8W301      0.0000 
      7 S1         -5.1670    6.0530   13.1690 S.o2      1 D8W301      0.0000 
      8 O1         -6.1580    6.2660   14.2320 O.2       1 D8W301      0.0000 
      9 O2         -5.7080    6.4880   11.8610 O.2       1 D8W301      0.0000 
     10 N1         -4.5820    4.6730   13.0350 N.pl3     1 D8W301      0.0000 
     11 C7         -4.5930    3.6580   13.9330 C.2       1 D8W301      0.0000 
     12 S2         -5.8540    3.4340   15.0680 S.3       1 D8W301      0.0000 
     13 N2         -3.6410    2.6990   14.0260 N.2       1 D8W301      0.0000 
     14 N3         -3.9230    1.7500   15.0500 N.2       1 D8W301      0.0000 
     15 C8         -5.0860    2.0190   15.6820 C.2       1 D8W301      0.0000 
     16 S3         -5.8550    0.9830   16.7270 S.o2      1 D8W301      0.0000 
     17 O3         -5.2900    1.2210   18.0210 O.2       1 D8W301      0.0000 
     18 O4         -7.2460    1.2080   16.6850 O.2       1 D8W301      0.0000 
     19 N4         -5.5030   -0.5170   16.2880 N.pl3     1 D8W301      0.0000 
     20 H          -4.3503    6.9065   15.6123 H         1 D8W301      0.0000 
     21 H          -2.5212    8.3687   16.2430 H         1 D8W301      0.0000 
     22 H          -1.0942    9.3113   14.5363 H         1 D8W301      0.0000 
     23 H          -1.5095    8.8412   12.2029 H         1 D8W301      0.0000 
     24 H          -3.3172    7.3500   11.5775 H         1 D8W301      0.0000 
     25 H          -4.1018    4.5243   12.0784 H         1 D8W301      0.0000 
     26 H          -4.6875   -0.9178   16.7055 H         1 D8W301      0.0000 
@<TRIPOS>BOND
     1    2    1 ar   
     2    6    1 ar   
     3   20    1 1    
     4    3    2 ar   
     5   21    2 1    
     6    4    3 ar   
     7   22    3 1    
     8    5    4 ar   
     9   23    4 1    
    10    6    5 ar   
    11   24    5 1    
    12    7    6 1    
    13    8    7 2    
    14    9    7 2    
    15   10    7 1    
    16   11   10 1    
    17   25   10 1    
    18   12   11 1    
    19   13   11 2    
    20   15   12 1    
    21   14   13 1    
    22   15   14 2    
    23   16   15 1    
    24   17   16 2    
    25   18   16 2    
    26   19   16 1    
    27   26   19 1    
@<TRIPOS>SUBSTRUCTURE
     1 D8W301      1 GROUP   
@<TRIPOS>SET

