#    Name: 4i5h_G17_1_INTS_M
#    Modification time : Tue Mar 25 02:28:44 2014

@<TRIPOS>MOLECULE
4i5h_G17_1_INTS_M
  108     0     9     0     0
SMALL
NO_CHARGES


@<TRIPOS>ATOM
      1 CA        -10.5365   76.4135  134.0185 C.3       3 GLC5        0.0000 
      2 CA        -12.5520   75.7480  133.5100 C.3       9 GLL5        0.0000 
      3 CA         -8.5210   77.0790  134.5270 C.3       6 GLP5        0.0000 
      4 CA        -12.3310   76.8270  135.0035 C.3       3 GLC5        0.0000 
      5 CA        -12.1100   77.9060  136.4970 C.3       6 GLP5        0.0000 
      6 CA        -14.3080   76.0960  134.8335 C.3       3 GLC5        0.0000 
      7 CA        -16.0640   76.4440  136.1570 C.3       6 GLP5        0.0000 
      8 CA        -14.2855   76.5400  132.4945 C.3       3 GLC5        0.0000 
      9 CA        -16.0190   77.3320  131.4790 C.3       6 GLP5        0.0000 
     10 CA         -9.4765   74.3460  131.7610 C.3       3 GLC5        0.0000 
     11 CA        -11.2990   75.6620  131.7440 C.3       9 GLL5        0.0000 
     12 CA         -7.6540   73.0300  131.7780 C.3       6 GLP5        0.0000 
     13 CA         -9.9100   76.3705  133.1355 C.3       3 GLC5        0.0000 
     14 CA         -9.9000   73.0305  132.7280 C.3       3 GLC5        0.0000 
     15 CA        -11.5340   74.0510  132.9460 C.3       9 GLL5        0.0000 
     16 CA         -8.2660   72.0100  132.5100 C.3       6 GLP5        0.0000 
     17 CA        -15.1630   73.0840  134.2760 C.3       3 GLC5        0.0000 
     18 CA        -14.5430   74.1430  132.4710 C.3       9 GLL5        0.0000 
     19 CA        -15.7830   72.0250  136.0810 C.3       6 GLP5        0.0000 
     20 CA        -15.8110   71.6650  130.5995 C.3       3 GLC5        0.0000 
     21 CA        -15.7710   73.8570  130.4480 C.3       9 GLL5        0.0000 
     22 CA        -15.8510   69.4730  130.7510 C.3       6 GLP5        0.0000 
     23 N         -16.7545   75.2120  133.7860 N.am      2 SEC2        0.0000 
     24 N         -16.9800   73.7410  133.7720 N.am      8 SEL2        0.0000 
     25 N         -16.5290   76.6830  133.8000 N.am      5 SEP2        0.0000 
     26 O         -18.1685   72.3700  130.7160 O.2       1 ALC1        0.0000 
     27 O         -17.8560   72.5100  132.0500 O.2       7 ALL1        0.0000 
     28 O         -18.4810   72.2300  129.3820 O.2       4 ALP1        0.0000 
     29 CA        -17.6445   72.2480  134.9895 C.3       3 GLC5        0.0000 
     30 CA        -19.5060   72.4710  133.8980 C.3       9 GLL5        0.0000 
     31 CA        -22.9540   69.8430  136.2545 C.3       3 GLC5        0.0000 
     32 CA        -22.0650   69.9300  134.5950 C.3       9 GLL5        0.0000 
     33 CA        -23.8430   69.7560  137.9140 C.3       6 GLP5        0.0000 
     34 CA        -23.7235   68.7840  134.3965 C.3       3 GLC5        0.0000 
     35 CA        -25.3820   67.6380  134.1980 C.3       6 GLP5        0.0000 
     36 CA        -21.0900   72.4735  132.6790 C.3       3 GLC5        0.0000 
     37 CA        -20.5420   71.8340  134.5660 C.3       9 GLL5        0.0000 
     38 CA        -21.6380   73.1130  130.7920 C.3       6 GLP5        0.0000 
     39 CA        -19.0785   71.4350  137.4115 C.3       3 GLC5        0.0000 
     40 CA        -20.9630   71.8560  137.0060 C.3       9 GLL5        0.0000 
     41 CA        -17.1940   71.0140  137.8170 C.3       6 GLP5        0.0000 
     42 CA        -20.0405   69.8790  136.8425 C.3       3 GLC5        0.0000 
     43 CA        -19.1180   67.9020  136.6790 C.3       6 GLP5        0.0000 
     44 CA        -21.4295   74.7215  139.3640 C.3       3 GLC5        0.0000 
     45 CA        -22.4910   73.5140  137.9410 C.3       9 GLL5        0.0000 
     46 CA        -20.3680   75.9290  140.7870 C.3       6 GLP5        0.0000 
     47 CA        -19.4725   71.3465  139.3305 C.3       3 GLC5        0.0000 
     48 CA        -21.4620   71.9010  139.3830 C.3       9 GLL5        0.0000 
     49 CA        -17.4830   70.7920  139.2780 C.3       6 GLP5        0.0000 
     50 CA        -22.0425   70.5235  140.7810 C.3       3 GLC5        0.0000 
     51 CA        -22.6230   69.1460  142.1790 C.3       6 GLP5        0.0000 
     52 N         -21.8975   71.8365  141.7910 N.am      2 SEC2        0.0000 
     53 N         -22.1270   72.4780  140.4660 N.am      8 SEL2        0.0000 
     54 N         -21.6680   71.1950  143.1160 N.am      5 SEP2        0.0000 
     55 CA        -24.0995   72.0925  140.8615 C.3       3 GLC5        0.0000 
     56 CA        -22.9290   73.5320  140.2580 C.3       9 GLL5        0.0000 
     57 CA        -25.2700   70.6530  141.4650 C.3       6 GLP5        0.0000 
     58 CA        -21.6485   74.7305  140.5225 C.3       3 GLC5        0.0000 
     59 O         -23.3975   73.5545  142.6900 O.2       1 ALC1        0.0000 
     60 O         -23.5190   74.0200  141.3130 O.2       7 ALL1        0.0000 
     61 O         -23.2760   73.0890  144.0670 O.2       4 ALP1        0.0000 
     62 CA        -22.5635   78.1260  141.9420 C.3       3 GLC5        0.0000 
     63 CA        -23.9000   76.5000  141.3190 C.3       9 GLL5        0.0000 
     64 CA        -21.2270   79.7520  142.5650 C.3       6 GLP5        0.0000 
     65 CA        -23.9165   76.5610  144.1410 C.3       3 GLC5        0.0000 
     66 CA        -24.7250   75.8900  142.4450 C.3       9 GLL5        0.0000 
     67 CA        -23.1080   77.2320  145.8370 C.3       6 GLP5        0.0000 
     68 CA        -11.9832   77.4345  132.8618 C.3       3 GLC5        0.0000 
     69 CA        -12.1330   79.3580  133.3500 C.3       6 GLP5        0.0000 
     70 CA        -11.0074   73.3765  131.1655 C.3       3 GLC5        0.0000 
     71 CA        -10.3770   72.0690  129.7980 C.3       6 GLP5        0.0000 
     72 CA        -11.5315   73.7078  134.5613 C.3       3 GLC5        0.0000 
     73 CA        -11.1120   72.7100  136.1480 C.3       6 GLP5        0.0000 
     74 CA        -11.8998   73.3438  130.4437 C.3       3 GLC5        0.0000 
     75 CA        -13.3940   74.5770  131.7800 C.3       9 GLL5        0.0000 
     76 CA        -14.9937   75.8460  131.8023 C.3       3 GLC5        0.0000 
     77 CA        -14.5817   72.0062  132.2488 C.3       3 GLC5        0.0000 
     78 CA        -14.0100   70.0620  132.3330 C.3       6 GLP5        0.0000 
     79 CA        -15.0320   75.9055  130.7740 C.3       3 GLC5        0.0000 
     80 CA        -14.6390   74.2980  129.7390 C.3       9 GLL5        0.0000 
     81 CA        -16.0310   72.7912  128.9552 C.3       3 GLC5        0.0000 
     82 CA        -16.8570   71.5050  127.8170 C.3       6 GLP5        0.0000 
     83 CA        -15.8932   75.5697  131.3160 C.3       3 GLC5        0.0000 
     84 CA        -17.5033   70.4245  131.6175 C.3       3 GLC5        0.0000 
     85 CA        -18.9120   71.9790  132.7330 C.3       9 GLL5        0.0000 
     86 CA        -19.1995   73.7265  134.4918 C.3       3 GLC5        0.0000 
     87 CA        -19.1900   75.2280  135.6680 C.3       6 GLP5        0.0000 
     88 CA        -20.4710   72.3060  131.7836 C.3       3 GLC5        0.0000 
     89 CA        -19.5555   68.7295  131.6877 C.3       3 GLC5        0.0000 
     90 CA        -19.3990   70.7730  132.2350 C.3       9 GLL5        0.0000 
     91 CA        -19.1960   67.0130  130.8270 C.3       6 GLP5        0.0000 
     92 CA        -20.3265   69.0920  135.4930 C.3       3 GLC5        0.0000 
     93 CA        -21.0050   70.6340  134.0190 C.3       9 GLL5        0.0000 
     94 CA        -22.4502   70.3971  132.5364 C.3       3 GLC5        0.0000 
     95 CA        -23.5090   70.6410  131.0550 C.3       6 GLP5        0.0000 
     96 CA        -20.0188   73.6650  135.4040 C.3       3 GLC5        0.0000 
     97 CA        -22.4505   70.9345  137.1370 C.3       3 GLC5        0.0000 
     98 CA        -21.1530   72.3700  135.7140 C.3       9 GLL5        0.0000 
     99 CA        -24.1917   73.2160  135.6638 C.3       3 GLC5        0.0000 
    100 CA        -22.0150   73.4710  135.5650 C.3       9 GLL5        0.0000 
    101 CA        -26.0360   72.6840  135.2170 C.3       6 GLP5        0.0000 
    102 CA        -20.0832   73.2157  139.4382 C.3       3 GLC5        0.0000 
    103 CA        -21.6290   72.4220  138.0960 C.3       9 GLL5        0.0000 
    104 CA        -18.6210   74.2700  140.1370 C.3       6 GLP5        0.0000 
    105 CA        -22.8020   71.0952  138.3074 C.3       3 GLC5        0.0000 
    106 CA        -22.2772   75.8663  141.0185 C.3       3 GLC5        0.0000 
    107 CA        -24.4730   75.1070  141.1810 C.3       9 GLL5        0.0000 
    108 CA        -20.6553   74.2576  136.2981 C.3       3 GLC5        0.0000 
@<TRIPOS>BOND
@<TRIPOS>SUBSTRUCTURE
     1 ALC1       26 GROUP        1 X    ALC  0     ROOT ALC X 1
     2 SEC2       23 GROUP        1 X    SEC  0     **** SEC X 2
     3 GLC5        1 GROUP        1 X    GLC  0     **** GLC X 6
     4 ALP1       28 GROUP        1 Y    ALP  0     ROOT ALP Y 8
     5 SEP2       25 GROUP        1 Y    SEP  0     **** SEP Y 9
     6 GLP5        3 GROUP        1 Y    GLP  0     **** GLP Y 13
     7 ALL1       27 GROUP        1 Z    ALL  0     ROOT ALL Z 15
     8 SEL2       24 GROUP        1 Z    SEL  0     **** SEL Z 16
     9 GLL5        2 GROUP        1 Z    GLL  0     **** GLL Z 20
@<TRIPOS>SET

