#    Name: 4i5h_G17_1_ligand
#    Modification time : Tue Mar 25 02:28:44 2014

@<TRIPOS>MOLECULE
4i5h_G17_1_ligand
   55    59     1     0     0
SMALL
NO_CHARGES


@<TRIPOS>ATOM
      1 FBF       -12.5520   75.7480  133.5100 F         1 G17401      0.0000 
      2 CBE       -12.1840   74.9720  132.4960 C.3       1 G17401      0.0000 
      3 FBG       -11.2990   75.6620  131.7440 F         1 G17401      0.0000 
      4 FBH       -11.5340   74.0510  132.9460 F         1 G17401      0.0000 
      5 CAW       -13.3940   74.5770  131.7800 C.ar      1 G17401      0.0000 
      6 CAV       -14.5430   74.1430  132.4710 C.ar      1 G17401      0.0000 
      7 CAX       -13.4510   74.6600  130.3990 C.ar      1 G17401      0.0000 
      8 CAY       -14.6390   74.2980  129.7390 C.ar      1 G17401      0.0000 
      9 CAZ       -15.7710   73.8570  130.4480 C.ar      1 G17401      0.0000 
     10 CAU       -15.7640   73.7580  131.8580 C.ar      1 G17401      0.0000 
     11 CAT       -16.8820   73.3300  132.6260 C.2       1 G17401      0.0000 
     12 OBA       -16.9800   73.7410  133.7720 O.2       1 G17401      0.0000 
     13 NAS       -17.8560   72.5100  132.0500 N.am      1 G17401      0.0000 
     14 CAP       -18.9120   71.9790  132.7330 C.ar      1 G17401      0.0000 
     15 CAQ       -19.5060   72.4710  133.8980 C.ar      1 G17401      0.0000 
     16 CAO       -19.3990   70.7730  132.2350 C.ar      1 G17401      0.0000 
     17 CAN       -20.4310   70.1190  132.8620 C.ar      1 G17401      0.0000 
     18 CAM       -21.0050   70.6340  134.0190 C.ar      1 G17401      0.0000 
     19 CAR       -22.0650   69.9300  134.5950 C.3       1 G17401      0.0000 
     20 CAL       -20.5420   71.8340  134.5660 C.ar      1 G17401      0.0000 
     21 CAI       -21.1530   72.3700  135.7140 C.ar      1 G17401      0.0000 
     22 CAH       -20.9630   71.8560  137.0060 C.ar      1 G17401      0.0000 
     23 CAJ       -22.0150   73.4710  135.5650 C.ar      1 G17401      0.0000 
     24 CAK       -22.6800   74.0250  136.6560 C.ar      1 G17401      0.0000 
     25 C4        -22.4910   73.5140  137.9410 C.ar      1 G17401      0.0000 
     26 N3        -23.1230   74.0520  139.0170 N.ar      1 G17401      0.0000 
     27 C5        -21.6290   72.4220  138.0960 C.ar      1 G17401      0.0000 
     28 C6        -21.4620   71.9010  139.3830 C.ar      1 G17401      0.0000 
     29 N1        -22.1270   72.4780  140.4660 N.ar      1 G17401      0.0000 
     30 C2        -22.9290   73.5320  140.2580 C.ar      1 G17401      0.0000 
     31 NAG       -23.5190   74.0200  141.3130 N.pl3     1 G17401      0.0000 
     32 CBD       -24.4730   75.1070  141.1810 C.3       1 G17401      0.0000 
     33 CBC       -23.9000   76.5000  141.3190 C.3       1 G17401      0.0000 
     34 CBB       -24.7250   75.8900  142.4450 C.3       1 G17401      0.0000 
     35 H         -14.4961   74.0995  133.5252 H         1 G17401      0.0000 
     36 H         -12.6463   74.9787  129.8578 H         1 G17401      0.0000 
     37 H         -14.6815   74.3575  128.7073 H         1 G17401      0.0000 
     38 H         -16.6257   73.5997  129.9308 H         1 G17401      0.0000 
     39 H         -17.7570   72.2943  131.0164 H         1 G17401      0.0000 
     40 H         -19.1426   73.3807  134.2898 H         1 G17401      0.0000 
     41 H         -18.9717   70.3713  131.3805 H         1 G17401      0.0000 
     42 H         -20.7928   69.2278  132.4729 H         1 G17401      0.0000 
     43 H         -20.3301   71.0591  137.1482 H         1 G17401      0.0000 
     44 H         -22.1544   73.8742  134.6216 H         1 G17401      0.0000 
     45 H         -23.3200   74.8223  136.5142 H         1 G17401      0.0000 
     46 H         -20.8475   71.0907  139.5306 H         1 G17401      0.0000 
     47 H         -23.3522   73.6773  142.2769 H         1 G17401      0.0000 
     48 H         -25.2527   75.1726  140.6465 H         1 G17401      0.0000 
     49 H         -24.4617   77.0951  140.8437 H         1 G17401      0.0000 
     50 H         -22.9877   76.4181  141.5569 H         1 G17401      0.0000 
     51 H         -24.1215   75.5830  143.1076 H         1 G17401      0.0000 
     52 H         -25.5956   76.2600  142.3943 H         1 G17401      0.0000 
     53 H         -21.7949   69.0049  134.8619 H         1 G17401      0.0000 
     54 H         -22.4089   70.3836  135.4172 H         1 G17401      0.0000 
     55 H         -22.8367   69.8399  133.9654 H         1 G17401      0.0000 
@<TRIPOS>BOND
     1    2    1 1    
     2    3    2 1    
     3    4    2 1    
     4    5    2 1    
     5    6    5 ar   
     6    7    5 ar   
     7   10    6 ar   
     8   35    6 1    
     9    8    7 ar   
    10   36    7 1    
    11    9    8 ar   
    12   37    8 1    
    13   10    9 ar   
    14   38    9 1    
    15   11   10 1    
    16   12   11 2    
    17   13   11 am   
    18   14   13 1    
    19   39   13 1    
    20   15   14 ar   
    21   16   14 ar   
    22   20   15 ar   
    23   40   15 1    
    24   17   16 ar   
    25   41   16 1    
    26   18   17 ar   
    27   42   17 1    
    28   19   18 1    
    29   20   18 ar   
    30   53   19 1    
    31   54   19 1    
    32   55   19 1    
    33   21   20 1    
    34   22   21 ar   
    35   23   21 ar   
    36   27   22 ar   
    37   43   22 1    
    38   24   23 ar   
    39   44   23 1    
    40   25   24 ar   
    41   45   24 1    
    42   26   25 ar   
    43   27   25 ar   
    44   30   26 ar   
    45   28   27 ar   
    46   29   28 ar   
    47   46   28 1    
    48   30   29 ar   
    49   31   30 1    
    50   32   31 1    
    51   47   31 1    
    52   33   32 1    
    53   34   32 1    
    54   48   32 1    
    55   34   33 1    
    56   49   33 1    
    57   50   33 1    
    58   51   34 1    
    59   52   34 1    
@<TRIPOS>SUBSTRUCTURE
     1 G17401      1 GROUP   
@<TRIPOS>SET

