#    Name: 4cd2_FOL_1_INTS_M
#    Modification time : Tue Mar 25 09:12:17 2014

@<TRIPOS>MOLECULE
4cd2_FOL_1_INTS_M
   54     0    12     0     0
SMALL
NO_CHARGES


@<TRIPOS>ATOM
      1 O          10.7230   56.2410   27.1910 O.2       1 ALC1        0.0000 
      2 O          10.7520   57.2220   28.2850 O.2       9 ALL1        0.0000 
      3 O          10.6940   55.2600   26.0970 O.2       5 ALP1        0.0000 
      4 N           8.9620   55.2720   28.1590 N.am      2 SEC2        0.0000 
      5 N           8.9780   56.0900   29.2360 N.am     10 SEL2        0.0000 
      6 N           8.9460   54.4540   27.0820 N.am      6 SEP2        0.0000 
      7 CA          8.6400   54.7780   31.6620 C.3       4 GLC5        0.0000 
      8 CA          8.2420   56.9320   31.4110 C.3      12 GLL5        0.0000 
      9 CA          9.0380   52.6240   31.9130 C.3       8 GLP5        0.0000 
     10 CA          9.7090   59.3195   34.7960 C.3       4 GLC5        0.0000 
     11 CA          8.5110   58.7510   33.2550 C.3      12 GLL5        0.0000 
     12 CA         10.9070   59.8880   36.3370 C.3       8 GLP5        0.0000 
     13 CA          9.4780   59.7980   30.3310 C.3       4 GLC5        0.0000 
     14 CA          9.1730   57.9600   31.3000 C.3      12 GLL5        0.0000 
     15 CA          9.7830   61.6360   29.3620 C.3       8 GLP5        0.0000 
     16 CA          6.4575   58.2015   36.4805 C.3       4 GLC5        0.0000 
     17 CA          6.6870   57.7000   34.6370 C.3      12 GLL5        0.0000 
     18 CA          6.2280   58.7030   38.3240 C.3       8 GLP5        0.0000 
     19 CA          9.2420   48.9045   37.5945 C.3       4 GLC5        0.0000 
     20 CA         10.2990   49.8670   35.8820 C.3      12 GLL5        0.0000 
     21 CA          8.1850   47.9420   39.3070 C.3       8 GLP5        0.0000 
     22 CA         10.3720   51.1155   37.5800 C.3       4 GLC5        0.0000 
     23 CA         10.4450   52.3640   39.2780 C.3       8 GLP5        0.0000 
     24 CA         12.3940   48.2925   34.4560 C.3       4 GLC5        0.0000 
     25 CA         10.3080   48.9000   34.6850 C.3      12 GLL5        0.0000 
     26 CA         14.4800   47.6850   34.2270 C.3       8 GLP5        0.0000 
     27 CA          9.7265   47.4820   36.3185 C.3       4 GLC5        0.0000 
     28 CA          9.1450   46.0640   37.9520 C.3       8 GLP5        0.0000 
     29 CA          8.9640   46.6605   35.7785 C.3       4 GLC5        0.0000 
     30 CA          8.9660   48.2470   34.5390 C.3      12 GLL5        0.0000 
     31 CA          8.9620   45.0740   37.0180 C.3       8 GLP5        0.0000 
     32 NZ         13.0500   48.1070   36.7290 N.4       3 LYC4        0.0000 
     33 NZ         12.2510   49.3340   36.9530 N.4      11 LYL4        0.0000 
     34 NZ         13.8490   46.8800   36.5050 N.4       7 LYP4        0.0000 
     35 NZ         13.3855   50.8910   36.9270 N.4       3 LYC4        0.0000 
     36 NZ         14.9620   51.7590   37.7850 N.4       7 LYP4        0.0000 
     37 N          13.0500   48.1070   36.7290 N.am      2 SEC2        0.0000 
     38 N          12.2510   49.3340   36.9530 N.am     10 SEL2        0.0000 
     39 N          13.8490   46.8800   36.5050 N.am      6 SEP2        0.0000 
     40 N          13.4115   49.9500   37.5395 N.am      2 SEC2        0.0000 
     41 N          14.5720   50.5660   38.1260 N.am      6 SEP2        0.0000 
     42 NZ         12.1990   51.2160   35.7280 N.4      11 LYL4        0.0000 
     43 N          13.3185   51.8515   36.2635 N.am      2 SEC2        0.0000 
     44 N          12.1990   51.2160   35.7280 N.am     10 SEL2        0.0000 
     45 N          14.4380   52.4870   36.7990 N.am      6 SEP2        0.0000 
     46 N          13.3855   50.8910   36.9270 N.am      2 SEC2        0.0000 
     47 CA          8.0440   52.6803   33.6770 C.3       4 GLC5        0.0000 
     48 CA          7.7340   52.6350   35.4050 C.3      12 GLL5        0.0000 
     49 CA          6.3338   53.6489   37.3798 C.3       4 GLC5        0.0000 
     50 CA          6.2310   53.8690   39.3780 C.3       8 GLP5        0.0000 
     51 CA          8.6455   53.5040   33.5162 C.3       4 GLC5        0.0000 
     52 CA          8.5010   53.7580   35.2200 C.3      12 GLL5        0.0000 
     53 CA          9.1530   49.8548   33.1320 C.3       4 GLC5        0.0000 
     54 CA          8.6690   51.1360   31.6520 C.3       8 GLP5        0.0000 
@<TRIPOS>BOND
@<TRIPOS>SUBSTRUCTURE
     1 ALC1        1 GROUP        1 X    ALC  0     ROOT ALC X 1
     2 SEC2        4 GROUP        1 X    SEC  0     **** SEC X 2
     3 LYC4       32 GROUP        1 X    LYC  0     **** LYC X 4
     4 GLC5        7 GROUP        1 X    GLC  0     **** GLC X 6
     5 ALP1        3 GROUP        1 Y    ALP  0     ROOT ALP Y 8
     6 SEP2        6 GROUP        1 Y    SEP  0     **** SEP Y 9
     7 LYP4       34 GROUP        1 Y    LYP  0     **** LYP Y 11
     8 GLP5        9 GROUP        1 Y    GLP  0     **** GLP Y 13
     9 ALL1        2 GROUP        1 Z    ALL  0     ROOT ALL Z 15
    10 SEL2        5 GROUP        1 Z    SEL  0     **** SEL Z 16
    11 LYL4       33 GROUP        1 Z    LYL  0     **** LYL Z 18
    12 GLL5        8 GROUP        1 Z    GLL  0     **** GLL Z 20
@<TRIPOS>SET

