#    Name: 4cd2_FOL_1_ligand
#    Modification time : Tue Mar 25 09:12:17 2014

@<TRIPOS>MOLECULE
4cd2_FOL_1_ligand
   49    51     1     0     0
SMALL
NO_CHARGES


@<TRIPOS>ATOM
      1 N1          9.9550   57.9950   30.2000 N.pl3     1 FOL207      0.0000 
      2 C2          9.9060   57.0550   29.2240 C.2       1 FOL207      0.0000 
      3 NA2        10.7520   57.2220   28.2850 N.pl3     1 FOL207      0.0000 
      4 N3          8.9780   56.0900   29.2360 N.2       1 FOL207      0.0000 
      5 C4          8.1770   55.9920   30.2770 C.2       1 FOL207      0.0000 
      6 O4          7.2840   55.0480   30.3960 O.2       1 FOL207      0.0000 
      7 C4A         8.2420   56.9320   31.4110 C.ar      1 FOL207      0.0000 
      8 N5          7.4390   56.7840   32.4780 N.ar      1 FOL207      0.0000 
      9 C6          7.5780   57.7330   33.3950 C.ar      1 FOL207      0.0000 
     10 C7          8.5110   58.7510   33.2550 C.ar      1 FOL207      0.0000 
     11 N8          9.3450   58.8640   32.2440 N.ar      1 FOL207      0.0000 
     12 C8A         9.1730   57.9600   31.3000 C.ar      1 FOL207      0.0000 
     13 C9          6.6870   57.7000   34.6370 C.3       1 FOL207      0.0000 
     14 N10         6.0220   56.4710   34.8310 N.pl3     1 FOL207      0.0000 
     15 C11         7.7340   52.6350   35.4050 C.ar      1 FOL207      0.0000 
     16 C12         6.3660   52.8380   35.4770 C.ar      1 FOL207      0.0000 
     17 C13         5.8230   54.1210   35.3220 C.ar      1 FOL207      0.0000 
     18 C14         6.6300   55.2430   35.0590 C.ar      1 FOL207      0.0000 
     19 C15         8.0050   55.0100   35.0190 C.ar      1 FOL207      0.0000 
     20 C16         8.5010   53.7580   35.2200 C.ar      1 FOL207      0.0000 
     21 C           8.3250   51.3020   35.5800 C.2       1 FOL207      0.0000 
     22 O           7.7100   50.2380   35.7750 O.2       1 FOL207      0.0000 
     23 N           9.6080   51.0940   35.6120 N.am      1 FOL207      0.0000 
     24 CA         10.2990   49.8670   35.8820 C.3       1 FOL207      0.0000 
     25 CB         10.3080   48.9000   34.6850 C.3       1 FOL207      0.0000 
     26 CG          8.9660   48.2470   34.5390 C.3       1 FOL207      0.0000 
     27 CD          9.1660   47.1060   33.6290 C.2       1 FOL207      0.0000 
     28 OE1        10.2120   46.5580   33.1080 O.co2     1 FOL207      0.0000 
     29 OE2         8.1660   46.3930   33.2070 O.co2     1 FOL207      0.0000 
     30 CT         11.7470   50.2160   36.2450 C.2       1 FOL207      0.0000 
     31 O1         12.2510   49.3340   36.9530 O.co2     1 FOL207      0.0000 
     32 O2         12.1990   51.2160   35.7280 O.co2     1 FOL207      0.0000 
     33 H          10.6434   58.7974   30.0916 H         1 FOL207      0.0000 
     34 H          11.3661   58.0055   28.3802 H         1 FOL207      0.0000 
     35 H          10.7219   56.5538   27.5416 H         1 FOL207      0.0000 
     36 H           8.5303   59.4814   34.0405 H         1 FOL207      0.0000 
     37 H           5.9672   58.5476   34.5443 H         1 FOL207      0.0000 
     38 H           7.3331   57.9607   35.5086 H         1 FOL207      0.0000 
     39 H           4.9554   56.4957   34.7981 H         1 FOL207      0.0000 
     40 H           5.7327   52.0403   35.6465 H         1 FOL207      0.0000 
     41 H           4.7970   54.2491   35.4031 H         1 FOL207      0.0000 
     42 H           8.6418   55.8063   34.8337 H         1 FOL207      0.0000 
     43 H           9.5626   53.6366   35.2356 H         1 FOL207      0.0000 
     44 H          10.2873   51.9292   35.4146 H         1 FOL207      0.0000 
     45 H           9.8737   49.3523   36.7315 H         1 FOL207      0.0000 
     46 H          11.0754   48.1474   34.8524 H         1 FOL207      0.0000 
     47 H          10.5516   49.4623   33.7862 H         1 FOL207      0.0000 
     48 H           8.2667   48.9511   34.1167 H         1 FOL207      0.0000 
     49 H           8.6236   47.9075   35.5036 H         1 FOL207      0.0000 
@<TRIPOS>BOND
     1    2    1 1    
     2   12    1 1    
     3   33    1 1    
     4    3    2 1    
     5    4    2 2    
     6   34    3 1    
     7   35    3 1    
     8    5    4 1    
     9    6    5 2    
    10    7    5 1    
    11    8    7 ar   
    12   12    7 ar   
    13    9    8 ar   
    14   10    9 ar   
    15   13    9 1    
    16   11   10 ar   
    17   36   10 1    
    18   12   11 ar   
    19   14   13 1    
    20   37   13 1    
    21   38   13 1    
    22   18   14 1    
    23   39   14 1    
    24   16   15 ar   
    25   20   15 ar   
    26   21   15 1    
    27   17   16 ar   
    28   40   16 1    
    29   18   17 ar   
    30   41   17 1    
    31   19   18 ar   
    32   20   19 ar   
    33   42   19 1    
    34   43   20 1    
    35   22   21 2    
    36   23   21 am   
    37   24   23 1    
    38   44   23 1    
    39   25   24 1    
    40   30   24 1    
    41   45   24 1    
    42   26   25 1    
    43   46   25 1    
    44   47   25 1    
    45   27   26 1    
    46   48   26 1    
    47   49   26 1    
    48   28   27 ar   
    49   29   27 ar   
    50   31   30 ar   
    51   32   30 ar   
@<TRIPOS>SUBSTRUCTURE
     1 FOL207      1 GROUP   
@<TRIPOS>SET

