#    Name: 1brp_RTL_1_INTS_M
#    Modification time : Mon Mar 24 19:47:32 2014

@<TRIPOS>MOLECULE
1brp_RTL_1_INTS_M
   80     0     6     0     0
SMALL
NO_CHARGES


@<TRIPOS>ATOM
      1 CA         20.6100   52.3655  -37.1360 C.3       2 GLC5        0.0000 
      2 CA         19.4040   51.4900  -35.4680 C.3       6 GLL5        0.0000 
      3 CA         21.8160   53.2410  -38.8040 C.3       4 GLP5        0.0000 
      4 CA         20.3375   52.9555  -32.8475 C.3       2 GLC5        0.0000 
      5 CA         19.5150   52.7700  -34.6520 C.3       6 GLL5        0.0000 
      6 CA         21.1600   53.1410  -31.0430 C.3       4 GLP5        0.0000 
      7 CA         12.4590   52.7560  -34.2985 C.3       2 GLC5        0.0000 
      8 CA         13.2190   51.5970  -35.9720 C.3       6 GLL5        0.0000 
      9 CA         11.6990   53.9150  -32.6250 C.3       4 GLP5        0.0000 
     10 CA         10.8690   52.4055  -34.8560 C.3       2 GLC5        0.0000 
     11 CA         11.0910   51.8110  -36.9740 C.3       6 GLL5        0.0000 
     12 CA         10.6470   53.0000  -32.7380 C.3       4 GLP5        0.0000 
     13 CA         10.8360   54.5035  -37.5325 C.3       2 GLC5        0.0000 
     14 CA         10.3710   52.6370  -37.8070 C.3       6 GLL5        0.0000 
     15 CA         11.3010   56.3700  -37.2580 C.3       4 GLP5        0.0000 
     16 CA          8.8365   53.2630  -40.4255 C.3       2 GLC5        0.0000 
     17 CA          8.3500   53.4960  -38.4770 C.3       6 GLL5        0.0000 
     18 CA          9.3230   53.0300  -42.3740 C.3       4 GLP5        0.0000 
     19 CA          9.8255   54.9330  -37.8675 C.3       2 GLC5        0.0000 
     20 CA          5.7200   51.4610  -38.8680 C.3       2 GLC5        0.0000 
     21 CA          7.0200   53.1960  -38.9920 C.3       6 GLL5        0.0000 
     22 CA          4.4200   49.7260  -38.7440 C.3       4 GLP5        0.0000 
     23 CA          7.0405   52.6115  -40.6085 C.3       2 GLC5        0.0000 
     24 CA          7.0610   52.0270  -42.2250 C.3       4 GLP5        0.0000 
     25 N           6.1660   54.9285  -36.9305 N.am      1 SEC2        0.0000 
     26 N           6.1050   54.0160  -38.3970 N.am      5 SEL2        0.0000 
     27 N           6.2270   55.8410  -35.4640 N.am      3 SEP2        0.0000 
     28 CA         17.0370   50.4900  -33.2125 C.3       2 GLC5        0.0000 
     29 CA         17.9050   49.9510  -34.9670 C.3       6 GLL5        0.0000 
     30 CA         16.1690   51.0290  -31.4580 C.3       4 GLP5        0.0000 
     31 CA         16.7295   48.1275  -34.3820 C.3       2 GLC5        0.0000 
     32 CA         15.5540   46.3040  -33.7970 C.3       4 GLP5        0.0000 
     33 CA         16.0750   51.0140  -38.5220 C.3       2 GLC5        0.0000 
     34 CA         17.8890   50.7280  -37.3240 C.3       6 GLL5        0.0000 
     35 CA         14.2610   51.3000  -39.7200 C.3       4 GLP5        0.0000 
     36 CA         17.7165   52.7940  -37.8865 C.3       2 GLC5        0.0000 
     37 CA         17.5440   54.8600  -38.4490 C.3       4 GLP5        0.0000 
     38 CA         19.7355   49.7410  -37.8355 C.3       2 GLC5        0.0000 
     39 CA         21.5820   48.7540  -38.3470 C.3       4 GLP5        0.0000 
     40 CA         15.1470   55.4100  -35.2675 C.3       2 GLC5        0.0000 
     41 CA         16.4060   54.1400  -33.9110 C.3       6 GLL5        0.0000 
     42 CA         13.8880   56.6800  -36.6240 C.3       4 GLP5        0.0000 
     43 CA         16.8605   55.4280  -32.5645 C.3       2 GLC5        0.0000 
     44 CA         17.3150   56.7160  -31.2180 C.3       4 GLP5        0.0000 
     45 CA         15.0860   54.4805  -32.6655 C.3       2 GLC5        0.0000 
     46 CA         13.7660   54.8210  -31.4200 C.3       4 GLP5        0.0000 
     47 CA         11.8400   51.6835  -33.9140 C.3       2 GLC5        0.0000 
     48 CA         13.0330   50.3670  -35.0900 C.3       6 GLL5        0.0000 
     49 CA          6.7040   49.9150  -37.9265 C.3       2 GLC5        0.0000 
     50 CA          8.5230   51.0540  -38.2010 C.3       6 GLL5        0.0000 
     51 CA          4.8850   48.7760  -37.6520 C.3       4 GLP5        0.0000 
     52 CA          8.7815   49.4440  -38.7150 C.3       2 GLC5        0.0000 
     53 CA          9.0400   47.8340  -39.2290 C.3       4 GLP5        0.0000 
     54 CA          7.7920   51.5405  -40.2130 C.3       2 GLC5        0.0000 
     55 CA         21.3792   52.1725  -34.7725 C.3       2 GLC5        0.0000 
     56 CA         23.2990   52.2150  -34.4850 C.3       4 GLP5        0.0000 
     57 CA         20.4052   54.8033  -34.4770 C.3       2 GLC5        0.0000 
     58 CA         21.8210   56.3410  -34.0660 C.3       4 GLP5        0.0000 
     59 CA         18.2632   52.7242  -33.0605 C.3       2 GLC5        0.0000 
     60 CA         17.5370   52.1830  -31.2330 C.3       4 GLP5        0.0000 
     61 CA         17.6560   54.1680  -36.7285 C.3       2 GLC5        0.0000 
     62 CA         17.0720   53.1910  -34.8920 C.3       6 GLL5        0.0000 
     63 CA         17.1380   52.9243  -32.8173 C.3       2 GLC5        0.0000 
     64 CA         16.1465   51.3455  -33.2760 C.3       2 GLC5        0.0000 
     65 CA         16.8260   51.8640  -35.1370 C.3       6 GLL5        0.0000 
     66 CA         12.7470   49.1295  -35.9825 C.3       2 GLC5        0.0000 
     67 CA         12.3680   47.2770  -36.4340 C.3       4 GLP5        0.0000 
     68 CA         13.7275   51.6833  -38.0751 C.3       2 GLC5        0.0000 
     69 CA         12.4820   52.2710  -36.9120 C.3       6 GLL5        0.0000 
     70 CA         11.6372   53.9110  -36.2535 C.3       2 GLC5        0.0000 
     71 CA         11.4880   55.7810  -35.5640 C.3       4 GLP5        0.0000 
     72 CA         11.7860   51.6415  -38.7993 C.3       2 GLC5        0.0000 
     73 CA         12.8410   51.0590  -40.2080 C.3       4 GLP5        0.0000 
     74 CA          7.4755   55.4405  -39.3102 C.3       2 GLC5        0.0000 
     75 CA          7.2660   57.5350  -39.8860 C.3       4 GLP5        0.0000 
     76 CA          7.2261   53.3364  -36.6576 C.3       2 GLC5        0.0000 
     77 CA          6.6270   53.5850  -34.7580 C.3       4 GLP5        0.0000 
     78 CA         17.4109   48.9745  -36.9379 C.3       2 GLC5        0.0000 
     79 CA         17.9640   51.1690  -35.8800 C.3       6 GLL5        0.0000 
     80 CA         16.9100   47.3050  -37.5020 C.3       4 GLP5        0.0000 
@<TRIPOS>BOND
@<TRIPOS>SUBSTRUCTURE
     1 SEC2       25 GROUP        1 X    SEC  0     ROOT SEC X 2
     2 GLC5        1 GROUP        1 X    GLC  0     **** GLC X 6
     3 SEP2       27 GROUP        1 Y    SEP  0     ROOT SEP Y 9
     4 GLP5        3 GROUP        1 Y    GLP  0     **** GLP Y 13
     5 SEL2       26 GROUP        1 Z    SEL  0     ROOT SEL Z 16
     6 GLL5        2 GROUP        1 Z    GLL  0     **** GLL Z 20
@<TRIPOS>SET

