#    Name: 1brp_RTL_1_ligand
#    Modification time : Mon Mar 24 19:47:32 2014

@<TRIPOS>MOLECULE
1brp_RTL_1_ligand
   51    51     1     0     0
SMALL
NO_CHARGES


@<TRIPOS>ATOM
      1 C1         17.9640   51.1690  -35.8800 C.3       1 RTL183      0.0000 
      2 C2         19.4040   51.4900  -35.4680 C.3       1 RTL183      0.0000 
      3 C3         19.5150   52.7700  -34.6520 C.3       1 RTL183      0.0000 
      4 C4         18.4640   53.7610  -35.1240 C.3       1 RTL183      0.0000 
      5 C5         17.0720   53.1910  -34.8920 C.2       1 RTL183      0.0000 
      6 C6         16.8260   51.8640  -35.1370 C.2       1 RTL183      0.0000 
      7 C7         15.4220   51.4600  -35.0510 C.2       1 RTL183      0.0000 
      8 C8         14.5930   52.1270  -35.9250 C.2       1 RTL183      0.0000 
      9 C9         13.2190   51.5970  -35.9720 C.2       1 RTL183      0.0000 
     10 C10        12.4820   52.2710  -36.9120 C.2       1 RTL183      0.0000 
     11 C11        11.0910   51.8110  -36.9740 C.2       1 RTL183      0.0000 
     12 C12        10.3710   52.6370  -37.8070 C.2       1 RTL183      0.0000 
     13 C13         8.9110   52.4630  -37.7680 C.2       1 RTL183      0.0000 
     14 C14         8.3500   53.4960  -38.4770 C.2       1 RTL183      0.0000 
     15 C15         7.0200   53.1960  -38.9920 C.3       1 RTL183      0.0000 
     16 O1          6.1050   54.0160  -38.3970 O.3       1 RTL183      0.0000 
     17 C16        17.9050   49.9510  -34.9670 C.3       1 RTL183      0.0000 
     18 C17        17.8890   50.7280  -37.3240 C.3       1 RTL183      0.0000 
     19 C18        16.4060   54.1400  -33.9110 C.3       1 RTL183      0.0000 
     20 C19        13.0330   50.3670  -35.0900 C.3       1 RTL183      0.0000 
     21 C20         8.5230   51.0540  -38.2010 C.3       1 RTL183      0.0000 
     22 H          20.0195   51.5829  -36.3723 H         1 RTL183      0.0000 
     23 H          19.8005   50.6512  -34.8810 H         1 RTL183      0.0000 
     24 H          20.5020   53.1980  -34.7855 H         1 RTL183      0.0000 
     25 H          19.3548   52.5442  -33.6039 H         1 RTL183      0.0000 
     26 H          18.6011   53.9565  -36.1840 H         1 RTL183      0.0000 
     27 H          18.5692   54.6906  -34.5715 H         1 RTL183      0.0000 
     28 H          15.1416   50.7735  -34.4151 H         1 RTL183      0.0000 
     29 H          14.8454   52.8861  -36.4835 H         1 RTL183      0.0000 
     30 H          12.7981   52.9777  -37.4931 H         1 RTL183      0.0000 
     31 H          10.7842   51.0553  -36.4953 H         1 RTL183      0.0000 
     32 H          10.7643   53.3148  -38.4072 H         1 RTL183      0.0000 
     33 H           8.7657   54.3632  -38.6441 H         1 RTL183      0.0000 
     34 H           6.8050   52.1227  -38.8059 H         1 RTL183      0.0000 
     35 H           7.0354   53.3157  -40.0957 H         1 RTL183      0.0000 
     36 H          18.6954   49.3520  -35.0954 H         1 RTL183      0.0000 
     37 H          17.8880   50.2110  -34.0015 H         1 RTL183      0.0000 
     38 H          17.0884   49.3991  -35.1363 H         1 RTL183      0.0000 
     39 H          18.2231   51.4358  -37.9463 H         1 RTL183      0.0000 
     40 H          18.4371   49.9084  -37.4910 H         1 RTL183      0.0000 
     41 H          16.9515   50.5147  -37.5990 H         1 RTL183      0.0000 
     42 H          16.9070   54.1930  -33.0472 H         1 RTL183      0.0000 
     43 H          16.3490   55.0699  -34.2743 H         1 RTL183      0.0000 
     44 H          15.4734   53.8533  -33.6918 H         1 RTL183      0.0000 
     45 H          13.6358   49.6181  -35.3652 H         1 RTL183      0.0000 
     46 H          13.2310   50.5650  -34.1300 H         1 RTL183      0.0000 
     47 H          12.0963   50.0193  -35.1304 H         1 RTL183      0.0000 
     48 H           8.8271   50.8548  -39.1326 H         1 RTL183      0.0000 
     49 H           8.9259   50.3585  -37.6061 H         1 RTL183      0.0000 
     50 H           7.5324   50.9188  -38.1808 H         1 RTL183      0.0000 
     51 H           6.6824   54.5934  -37.8196 H         1 RTL183      0.0000 
@<TRIPOS>BOND
     1    2    1 1    
     2    6    1 1    
     3   17    1 1    
     4   18    1 1    
     5    3    2 1    
     6   22    2 1    
     7   23    2 1    
     8    4    3 1    
     9   24    3 1    
    10   25    3 1    
    11    5    4 1    
    12   26    4 1    
    13   27    4 1    
    14    6    5 2    
    15   19    5 1    
    16    7    6 1    
    17    8    7 2    
    18   28    7 1    
    19    9    8 1    
    20   29    8 1    
    21   10    9 2    
    22   20    9 1    
    23   11   10 1    
    24   30   10 1    
    25   12   11 2    
    26   31   11 1    
    27   13   12 1    
    28   32   12 1    
    29   14   13 2    
    30   21   13 1    
    31   15   14 1    
    32   33   14 1    
    33   16   15 1    
    34   34   15 1    
    35   35   15 1    
    36   51   16 1    
    37   36   17 1    
    38   37   17 1    
    39   38   17 1    
    40   39   18 1    
    41   40   18 1    
    42   41   18 1    
    43   42   19 1    
    44   43   19 1    
    45   44   19 1    
    46   45   20 1    
    47   46   20 1    
    48   47   20 1    
    49   48   21 1    
    50   49   21 1    
    51   50   21 1    
@<TRIPOS>SUBSTRUCTURE
     1 RTL183      1 GROUP   
@<TRIPOS>SET

