#    Name: 2zx8_ZX8_2_INTS_M
#    Modification time : Tue Mar 25 11:16:15 2014

@<TRIPOS>MOLECULE
2zx8_ZX8_2_INTS_M
   76     0    12     0     0
SMALL
NO_CHARGES


@<TRIPOS>ATOM
      1 CA         28.2295    9.0245   50.1410 C.3       4 GLC5        0.0000 
      2 CA         27.1430    7.4000   50.0700 C.3      12 GLL5        0.0000 
      3 CA         29.3160   10.6490   50.2120 C.3       8 GLP5        0.0000 
      4 CA         23.8250    7.7505   52.8400 C.3       4 GLC5        0.0000 
      5 CA         25.0050    6.4940   51.5930 C.3      12 GLL5        0.0000 
      6 CA         22.6450    9.0070   54.0870 C.3       8 GLP5        0.0000 
      7 CA         23.8095    7.1430   53.7440 C.3       4 GLC5        0.0000 
      8 CA         24.9740    5.2790   53.4010 C.3      12 GLL5        0.0000 
      9 N          21.8575    5.0790   55.5780 N.am      2 SEC2        0.0000 
     10 N          23.2860    4.6080   54.9590 N.am     10 SEL2        0.0000 
     11 N          20.4290    5.5500   56.1970 N.am      6 SEP2        0.0000 
     12 O          26.6245    5.9780   55.6420 O.2       1 ALC1        0.0000 
     13 O          25.4120    4.7350   55.7270 O.2       9 ALL1        0.0000 
     14 O          27.8370    7.2210   55.5570 O.2       5 ALP1        0.0000 
     15 CA         23.3080    3.5730   57.2795 C.3       4 GLC5        0.0000 
     16 CA         25.1100    4.3250   57.0990 C.3      12 GLL5        0.0000 
     17 CA         21.5060    2.8210   57.4600 C.3       8 GLP5        0.0000 
     18 CA         28.2835    4.1500   58.4855 C.3       4 GLC5        0.0000 
     19 CA         26.2100    4.8370   58.0340 C.3      12 GLL5        0.0000 
     20 CA         30.3570    3.4630   58.9370 C.3       8 GLP5        0.0000 
     21 OD1        24.9550    6.5505   58.2985 O.co2     3 ASC3        0.0000 
     22 OD1        26.2310    6.3090   58.0310 O.co2    11 ASL3        0.0000 
     23 OD1        23.6790    6.7920   58.5660 O.co2     7 ASP3        0.0000 
     24 OD1        24.5500    6.6740   57.3020 O.co2     3 ASC3        0.0000 
     25 OD1        22.8690    7.0390   56.5730 O.co2     7 ASP3        0.0000 
     26 OD1        27.7045    5.9945   57.2110 O.co2     3 ASC3        0.0000 
     27 OD1        29.1780    5.6800   56.3910 O.co2     7 ASP3        0.0000 
     28 OD1        27.0340    6.7650   56.7940 O.co2     3 ASC3        0.0000 
     29 OD1        27.8370    7.2210   55.5570 O.co2     7 ASP3        0.0000 
     30 CA         29.2050    7.0035   59.1175 C.3       4 GLC5        0.0000 
     31 CA         27.3390    6.8270   58.8490 C.3      12 GLL5        0.0000 
     32 CA         31.0710    7.1800   59.3860 C.3       8 GLP5        0.0000 
     33 CA         27.1840   10.3450   59.1925 C.3       4 GLC5        0.0000 
     34 CA         27.3230    8.3550   58.7930 C.3      12 GLL5        0.0000 
     35 CA         27.0450   12.3350   59.5920 C.3       8 GLP5        0.0000 
     36 CA         26.0525    9.7750   57.6705 C.3       4 GLC5        0.0000 
     37 CA         24.7820   11.1950   56.5480 C.3       8 GLP5        0.0000 
     38 CA         29.1300    8.4120   58.8220 C.3       4 GLC5        0.0000 
     39 CA         30.9370    8.4690   58.8510 C.3       8 GLP5        0.0000 
     40 CA         27.2970    7.2780   62.1120 C.3       4 GLC5        0.0000 
     41 CA         27.2480    6.3270   60.2970 C.3      12 GLL5        0.0000 
     42 CA         27.3460    8.2290   63.9270 C.3       8 GLP5        0.0000 
     43 CA         28.8025    4.8950   59.6170 C.3       4 GLC5        0.0000 
     44 N          26.4765    7.7750   61.8490 N.am      2 SEC2        0.0000 
     45 N          26.0800    6.8210   60.9610 N.am     10 SEL2        0.0000 
     46 N          26.8730    8.7290   62.7370 N.am      6 SEP2        0.0000 
     47 O          25.5045    6.2780   62.1450 O.2       1 ALC1        0.0000 
     48 O          26.0800    6.8210   60.9610 O.2       9 ALL1        0.0000 
     49 O          24.9290    5.7350   63.3290 O.2       5 ALP1        0.0000 
     50 CA         28.6870    3.7965   60.2400 C.3       4 GLC5        0.0000 
     51 CA         27.1680    4.8000   60.3220 C.3      12 GLL5        0.0000 
     52 CA         30.2060    2.7930   60.1580 C.3       8 GLP5        0.0000 
     53 CA         27.3930    2.9015   61.4060 C.3       4 GLC5        0.0000 
     54 CA         27.6180    1.0030   62.4900 C.3       8 GLP5        0.0000 
     55 N          26.8565    2.7865   61.5375 N.am      2 SEC2        0.0000 
     56 N          26.9460    4.3710   61.6640 N.am     10 SEL2        0.0000 
     57 N          26.7670    1.2020   61.4110 N.am      6 SEP2        0.0000 
     58 O          28.1495    4.5485   62.2520 O.2       1 ALC1        0.0000 
     59 O          26.9460    4.3710   61.6640 O.2       9 ALL1        0.0000 
     60 O          29.3530    4.7260   62.8400 O.2       5 ALP1        0.0000 
     61 CA         24.7145    3.1215   60.7075 C.3       4 GLC5        0.0000 
     62 CA         25.9760    4.3630   59.4700 C.3      12 GLL5        0.0000 
     63 CA         23.4530    1.8800   61.9450 C.3       8 GLP5        0.0000 
     64 N          26.2925    2.0715   60.4700 N.am      2 SEC2        0.0000 
     65 N          25.8180    2.9410   59.5290 N.am     10 SEL2        0.0000 
     66 N          24.6495    2.8690   60.2220 N.am      2 SEC2        0.0000 
     67 N          23.4810    2.7970   60.9150 N.am      6 SEP2        0.0000 
     68 CA         28.3604    6.9192   52.7484 C.3       4 GLC5        0.0000 
     69 CA         27.3710    6.5920   51.1720 C.3      12 GLL5        0.0000 
     70 CA         29.8980    7.6610   53.6640 C.3       8 GLP5        0.0000 
     71 CA         28.3805    5.7780   49.7595 C.3       4 GLC5        0.0000 
     72 CA         29.5040    4.5600   48.8980 C.3       8 GLP5        0.0000 
     73 CA         27.6658    8.0175   48.2112 C.3       4 GLC5        0.0000 
     74 CA         28.8410    8.4540   46.5240 C.3       8 GLP5        0.0000 
     75 CA         29.0975    6.2728   60.5457 C.3       4 GLC5        0.0000 
     76 CA         30.9870    6.9820   60.7820 C.3       8 GLP5        0.0000 
@<TRIPOS>BOND
@<TRIPOS>SUBSTRUCTURE
     1 ALC1       12 GROUP        1 X    ALC  0     ROOT ALC X 1
     2 SEC2        9 GROUP        1 X    SEC  0     **** SEC X 2
     3 ASC3       21 GROUP        1 X    ASC  0     **** ASC X 3
     4 GLC5        1 GROUP        1 X    GLC  0     **** GLC X 6
     5 ALP1       14 GROUP        1 Y    ALP  0     ROOT ALP Y 8
     6 SEP2       11 GROUP        1 Y    SEP  0     **** SEP Y 9
     7 ASP3       23 GROUP        1 Y    ASP  0     **** ASP Y 10
     8 GLP5        3 GROUP        1 Y    GLP  0     **** GLP Y 13
     9 ALL1       13 GROUP        1 Z    ALL  0     ROOT ALL Z 15
    10 SEL2       10 GROUP        1 Z    SEL  0     **** SEL Z 16
    11 ASL3       22 GROUP        1 Z    ASL  0     **** ASL Z 17
    12 GLL5        2 GROUP        1 Z    GLL  0     **** GLL Z 20
@<TRIPOS>SET

