#    Name: 2zx8_ZX8_2_ligand
#    Modification time : Tue Mar 25 11:16:15 2014

@<TRIPOS>MOLECULE
2zx8_ZX8_2_ligand
   42    44     1     0     0
SMALL
NO_CHARGES


@<TRIPOS>ATOM
      1 CAJ        26.2490    5.3910   53.0450 C.2       1 ZX8902      0.0000 
      2 CAQ        26.3000    6.1350   51.9420 C.ar      1 ZX8902      0.0000 
      3 CAH        27.3710    6.5920   51.1720 C.ar      1 ZX8902      0.0000 
      4 CAF        27.1430    7.4000   50.0700 C.ar      1 ZX8902      0.0000 
      5 CAG        25.8380    7.7620   49.7270 C.ar      1 ZX8902      0.0000 
      6 CAI        24.7700    7.3120   50.4870 C.ar      1 ZX8902      0.0000 
      7 CAR        25.0050    6.4940   51.5930 C.ar      1 ZX8902      0.0000 
      8 OAN        24.1680    5.9350   52.5140 O.3       1 ZX8902      0.0000 
      9 CAP        24.9740    5.2790   53.4010 C.2       1 ZX8902      0.0000 
     10 CAO        24.4690    4.8220   54.7750 C.2       1 ZX8902      0.0000 
     11 OAB        23.2860    4.6080   54.9590 O.2       1 ZX8902      0.0000 
     12 NAL        25.4120    4.7350   55.7270 N.am      1 ZX8902      0.0000 
     13 CAK        25.1100    4.3250   57.0990 C.3       1 ZX8902      0.0000 
     14 CAT        26.2100    4.8370   58.0340 C.3       1 ZX8902      0.0000 
     15 NAM        26.2310    6.3090   58.0310 N.4       1 ZX8902      0.0000 
     16 CAS        27.3390    6.8270   58.8490 C.3       1 ZX8902      0.0000 
     17 CAA        27.3230    8.3550   58.7930 C.3       1 ZX8902      0.0000 
     18 CAU        27.2480    6.3270   60.2970 C.3       1 ZX8902      0.0000 
     19 OAC        26.0800    6.8210   60.9610 O.3       1 ZX8902      0.0000 
     20 CAW        27.1680    4.8000   60.3220 C.3       1 ZX8902      0.0000 
     21 OAE        26.9460    4.3710   61.6640 O.3       1 ZX8902      0.0000 
     22 CAV        25.9760    4.3630   59.4700 C.3       1 ZX8902      0.0000 
     23 OAD        25.8180    2.9410   59.5290 O.3       1 ZX8902      0.0000 
     24 H          27.0081    5.0012   53.5051 H         1 ZX8902      0.0000 
     25 H          28.3321    6.3250   51.4279 H         1 ZX8902      0.0000 
     26 H          27.9308    7.7360   49.5012 H         1 ZX8902      0.0000 
     27 H          25.6748    8.3633   48.9087 H         1 ZX8902      0.0000 
     28 H          23.8096    7.5765   50.2413 H         1 ZX8902      0.0000 
     29 H          26.4127    4.9574   55.5318 H         1 ZX8902      0.0000 
     30 H          25.0684    3.2396   57.1826 H         1 ZX8902      0.0000 
     31 H          24.1590    4.7401   57.4308 H         1 ZX8902      0.0000 
     32 H          27.1574    4.4546   57.6993 H         1 ZX8902      0.0000 
     33 H          28.2861    6.4914   58.4331 H         1 ZX8902      0.0000 
     34 H          28.1451    6.6152   60.8193 H         1 ZX8902      0.0000 
     35 H          28.0549    4.3989   59.9072 H         1 ZX8902      0.0000 
     36 H          25.0998    4.8749   59.8479 H         1 ZX8902      0.0000 
     37 H          28.0634    8.7542   59.3338 H         1 ZX8902      0.0000 
     38 H          27.4277    8.6935   57.8579 H         1 ZX8902      0.0000 
     39 H          26.4663    8.7306   59.1465 H         1 ZX8902      0.0000 
     40 H          25.9309    6.1923   61.7242 H         1 ZX8902      0.0000 
     41 H          27.8350    4.4577   62.1137 H         1 ZX8902      0.0000 
     42 H          26.0295    2.6187   58.6063 H         1 ZX8902      0.0000 
@<TRIPOS>BOND
     1    2    1 1    
     2    9    1 2    
     3   24    1 1    
     4    3    2 ar   
     5    7    2 ar   
     6    4    3 ar   
     7   25    3 1    
     8    5    4 ar   
     9   26    4 1    
    10    6    5 ar   
    11   27    5 1    
    12    7    6 ar   
    13   28    6 1    
    14    8    7 1    
    15    9    8 1    
    16   10    9 1    
    17   11   10 2    
    18   12   10 am   
    19   13   12 1    
    20   29   12 1    
    21   14   13 1    
    22   30   13 1    
    23   31   13 1    
    24   15   14 1    
    25   22   14 1    
    26   32   14 1    
    27   16   15 1    
    28   17   16 1    
    29   18   16 1    
    30   33   16 1    
    31   37   17 1    
    32   38   17 1    
    33   39   17 1    
    34   19   18 1    
    35   20   18 1    
    36   34   18 1    
    37   40   19 1    
    38   21   20 1    
    39   22   20 1    
    40   35   20 1    
    41   41   21 1    
    42   23   22 1    
    43   36   22 1    
    44   42   23 1    
@<TRIPOS>SUBSTRUCTURE
     1 ZX8902      1 GROUP   
@<TRIPOS>SET

