#    Name: 3fyv_XCF_1_INTS_M
#    Modification time : Tue Mar 25 06:47:02 2014

@<TRIPOS>MOLECULE
3fyv_XCF_1_INTS_M
   67     0     6     0     0
SMALL
NO_CHARGES


@<TRIPOS>ATOM
      1 O          27.5815    6.4710   41.7035 O.2       1 ALC1        0.0000 
      2 O          26.7290    7.1450   40.6360 O.2       5 ALL1        0.0000 
      3 O          28.4340    5.7970   42.7710 O.2       3 ALP1        0.0000 
      4 O          27.2575    5.7555   40.9360 O.2       1 ALC1        0.0000 
      5 O          27.7860    4.3660   41.2360 O.2       3 ALP1        0.0000 
      6 CA         25.2795    8.7915   40.2910 C.3       2 GLC5        0.0000 
      7 CA         27.2330    8.3950   40.7570 C.3       6 GLL5        0.0000 
      8 CA         23.3260    9.1880   39.8250 C.3       4 GLP5        0.0000 
      9 CA         26.2285    7.7105   42.1920 C.3       2 GLC5        0.0000 
     10 CA         25.2240    7.0260   43.6270 C.3       4 GLP5        0.0000 
     11 CA         28.5635    7.8910   39.7940 C.3       2 GLC5        0.0000 
     12 CA         29.8940    7.3870   38.8310 C.3       4 GLP5        0.0000 
     13 CA         28.3210   10.3800   43.8840 C.3       2 GLC5        0.0000 
     14 CA         28.6850    9.8910   41.7920 C.3       6 GLL5        0.0000 
     15 CA         27.9570   10.8690   45.9760 C.3       4 GLP5        0.0000 
     16 CA         30.6535    9.0115   42.3910 C.3       2 GLC5        0.0000 
     17 CA         32.6220    8.1320   42.9900 C.3       4 GLP5        0.0000 
     18 CA         25.2845    9.8940   39.9265 C.3       2 GLC5        0.0000 
     19 CA         27.2430   10.6000   40.0280 C.3       6 GLL5        0.0000 
     20 O          25.5035   11.2560   38.5295 O.2       1 ALC1        0.0000 
     21 O          26.7460   11.5360   39.1850 O.2       5 ALL1        0.0000 
     22 O          24.2610   10.9760   37.8740 O.2       3 ALP1        0.0000 
     23 O          26.4400   12.9925   39.1105 O.2       1 ALC1        0.0000 
     24 O          26.1340   14.4490   39.0360 O.2       3 ALP1        0.0000 
     25 CA         29.5915   12.7295   39.6445 C.3       2 GLC5        0.0000 
     26 CA         28.7620   12.3290   41.0510 C.3       6 GLL5        0.0000 
     27 CA         30.4210   13.1300   38.2380 C.3       4 GLP5        0.0000 
     28 CA         27.3615   12.8730   41.6000 C.3       2 GLC5        0.0000 
     29 CA         25.9610   13.4170   42.1490 C.3       4 GLP5        0.0000 
     30 CA         33.4765   12.0715   38.9485 C.3       2 GLC5        0.0000 
     31 CA         32.7930   11.0360   40.5770 C.3       6 GLL5        0.0000 
     32 CA         34.1600   13.1070   37.3200 C.3       4 GLP5        0.0000 
     33 CA         36.2180   12.2580   39.5480 C.3       2 GLC5        0.0000 
     34 CA         36.1720   10.5630   40.7250 C.3       6 GLL5        0.0000 
     35 CA         36.2640   13.9530   38.3710 C.3       4 GLP5        0.0000 
     36 CA         35.4795    9.0920   43.2475 C.3       2 GLC5        0.0000 
     37 CA         36.3420   10.8570   42.2140 C.3       6 GLL5        0.0000 
     38 CA         34.6170    7.3270   44.2810 C.3       4 GLP5        0.0000 
     39 CA         34.3210   15.5285   43.7125 C.3       2 GLC5        0.0000 
     40 CA         34.1110   13.5040   44.6590 C.3       6 GLL5        0.0000 
     41 CA         34.5310   17.5530   42.7660 C.3       4 GLP5        0.0000 
     42 CA         29.9095   12.3040   45.4125 C.3       2 GLC5        0.0000 
     43 CA         30.4920   13.6410   44.1880 C.3       6 GLL5        0.0000 
     44 CA         29.3270   10.9670   46.6370 C.3       4 GLP5        0.0000 
     45 CA         28.7400   12.1200   44.5970 C.3       2 GLC5        0.0000 
     46 CA         29.5230   13.3710   43.2180 C.3       6 GLL5        0.0000 
     47 CA         29.2910   15.1260   47.5030 C.3       2 GLC5        0.0000 
     48 CA         28.8690   14.9390   45.4040 C.3       6 GLL5        0.0000 
     49 CA         29.7130   15.3130   49.6020 C.3       4 GLP5        0.0000 
     50 CA         29.0980   12.9530   46.0205 C.3       2 GLC5        0.0000 
     51 CA         30.0265   16.7260   45.4905 C.3       2 GLC5        0.0000 
     52 CA         31.1840   18.5130   45.5770 C.3       4 GLP5        0.0000 
     53 CA         27.6140   15.7355   45.8195 C.3       2 GLC5        0.0000 
     54 CA         26.3590   16.5320   46.2350 C.3       4 GLP5        0.0000 
     55 CA         28.8716    8.9432   39.7669 C.3       2 GLC5        0.0000 
     56 CA         28.2260   10.9070   40.9630 C.3       6 GLL5        0.0000 
     57 CA         31.6615   10.0113   38.9355 C.3       2 GLC5        0.0000 
     58 CA         31.5110   11.3230   40.7870 C.3       6 GLL5        0.0000 
     59 CA         31.1710    8.8430   37.1890 C.3       4 GLP5        0.0000 
     60 CA         31.2865   12.1547   39.4600 C.3       2 GLC5        0.0000 
     61 CA         33.3899    9.4891   42.1756 C.3       2 GLC5        0.0000 
     62 CA         31.1270   11.3835   44.7312 C.3       2 GLC5        0.0000 
     63 CA         32.0870   12.3770   42.9340 C.3       6 GLL5        0.0000 
     64 CA         30.3240   10.0070   45.9740 C.3       4 GLP5        0.0000 
     65 CA         32.1621   10.0888   42.5736 C.3       2 GLC5        0.0000 
     66 CA         32.3395   14.5690   42.4457 C.3       2 GLC5        0.0000 
     67 CA         32.7490   16.3780   41.4030 C.3       4 GLP5        0.0000 
@<TRIPOS>BOND
@<TRIPOS>SUBSTRUCTURE
     1 ALC1        1 GROUP        1 X    ALC  0     ROOT ALC X 1
     2 GLC5        6 GROUP        1 X    GLC  0     **** GLC X 6
     3 ALP1        3 GROUP        1 Y    ALP  0     ROOT ALP Y 8
     4 GLP5        8 GROUP        1 Y    GLP  0     **** GLP Y 13
     5 ALL1        2 GROUP        1 Z    ALL  0     ROOT ALL Z 15
     6 GLL5        7 GROUP        1 Z    GLL  0     **** GLL Z 20
@<TRIPOS>SET

