#    Name: 3fyv_XCF_1_ligand
#    Modification time : Tue Mar 25 06:47:02 2014

@<TRIPOS>MOLECULE
3fyv_XCF_1_ligand
   48    51     1     0     0
SMALL
NO_CHARGES


@<TRIPOS>ATOM
      1 N4         26.7290    7.1450   40.6360 N.pl3     1 XCF300      0.0000 
      2 C3         27.2330    8.3950   40.7570 C.ar      1 XCF300      0.0000 
      3 N5         26.7760    9.3550   39.9470 N.ar      1 XCF300      0.0000 
      4 N2         28.1760    8.6590   41.6740 N.ar      1 XCF300      0.0000 
      5 C1         28.6850    9.8910   41.7920 C.ar      1 XCF300      0.0000 
      6 C8         28.2260   10.9070   40.9630 C.ar      1 XCF300      0.0000 
      7 C6         27.2430   10.6000   40.0280 C.ar      1 XCF300      0.0000 
      8 N7         26.7460   11.5360   39.1850 N.pl3     1 XCF300      0.0000 
      9 C9         28.7620   12.3290   41.0510 C.3       1 XCF300      0.0000 
     10 C10        29.8320   12.5910   42.1070 C.ar      1 XCF300      0.0000 
     11 C11        31.1240   12.1050   41.9740 C.ar      1 XCF300      0.0000 
     12 C27        31.5110   11.3230   40.7870 C.2       1 XCF300      0.0000 
     13 C28        32.7930   11.0360   40.5770 C.2       1 XCF300      0.0000 
     14 C14        33.8860   11.4970   41.5320 C.3       1 XCF300      0.0000 
     15 C24        34.9760   10.4260   41.6680 C.3       1 XCF300      0.0000 
     16 C25        36.1720   10.5630   40.7250 C.3       1 XCF300      0.0000 
     17 C26        36.3420   10.8570   42.2140 C.3       1 XCF300      0.0000 
     18 O13        33.3610   11.8790   42.8110 O.3       1 XCF300      0.0000 
     19 C12        32.0870   12.3770   42.9340 C.ar      1 XCF300      0.0000 
     20 C15        31.7730   13.1430   44.0430 C.ar      1 XCF300      0.0000 
     21 O16        32.7260   13.4070   45.0010 O.3       1 XCF300      0.0000 
     22 C17        34.1110   13.5040   44.6590 C.3       1 XCF300      0.0000 
     23 C18        30.4920   13.6410   44.1880 C.ar      1 XCF300      0.0000 
     24 C21        29.5230   13.3710   43.2180 C.ar      1 XCF300      0.0000 
     25 O19        30.1860   14.4060   45.2850 O.3       1 XCF300      0.0000 
     26 C20        28.8690   14.9390   45.4040 C.3       1 XCF300      0.0000 
     27 H          27.3309    6.3985   40.9197 H         1 XCF300      0.0000 
     28 H          25.7994    7.0786   40.2736 H         1 XCF300      0.0000 
     29 H          29.4176   10.1094   42.4900 H         1 XCF300      0.0000 
     30 H          26.3970   11.1995   38.3103 H         1 XCF300      0.0000 
     31 H          26.7720   12.4807   39.5118 H         1 XCF300      0.0000 
     32 H          27.9078   13.0221   41.2325 H         1 XCF300      0.0000 
     33 H          29.1689   12.6196   40.0545 H         1 XCF300      0.0000 
     34 H          30.7504   11.0319   40.1660 H         1 XCF300      0.0000 
     35 H          33.1390   10.4917   39.7702 H         1 XCF300      0.0000 
     36 H          34.3741   12.3746   41.0553 H         1 XCF300      0.0000 
     37 H          34.8709    9.5070   41.8552 H         1 XCF300      0.0000 
     38 H          36.0883   11.3917   40.2779 H         1 XCF300      0.0000 
     39 H          36.5091    9.6945   40.5650 H         1 XCF300      0.0000 
     40 H          36.7391   10.0976   42.6112 H         1 XCF300      0.0000 
     41 H          36.3184   11.7948   42.3241 H         1 XCF300      0.0000 
     42 H          28.5723   13.7536   43.3281 H         1 XCF300      0.0000 
     43 H          34.6785   13.6975   45.4593 H         1 XCF300      0.0000 
     44 H          34.4539   12.6562   44.2546 H         1 XCF300      0.0000 
     45 H          34.2797   14.2339   43.9966 H         1 XCF300      0.0000 
     46 H          28.7604   15.4777   46.2395 H         1 XCF300      0.0000 
     47 H          28.6402   15.5384   44.6370 H         1 XCF300      0.0000 
     48 H          28.1771   14.2174   45.4285 H         1 XCF300      0.0000 
@<TRIPOS>BOND
     1    2    1 1    
     2   27    1 1    
     3   28    1 1    
     4    3    2 ar   
     5    4    2 ar   
     6    7    3 ar   
     7    5    4 ar   
     8    6    5 ar   
     9   29    5 1    
    10    7    6 ar   
    11    9    6 1    
    12    8    7 1    
    13   30    8 1    
    14   31    8 1    
    15   10    9 1    
    16   32    9 1    
    17   33    9 1    
    18   11   10 ar   
    19   24   10 ar   
    20   12   11 1    
    21   19   11 ar   
    22   13   12 2    
    23   34   12 1    
    24   14   13 1    
    25   35   13 1    
    26   15   14 1    
    27   18   14 1    
    28   36   14 1    
    29   16   15 1    
    30   17   15 1    
    31   37   15 1    
    32   17   16 1    
    33   38   16 1    
    34   39   16 1    
    35   40   17 1    
    36   41   17 1    
    37   19   18 1    
    38   20   19 ar   
    39   21   20 1    
    40   23   20 ar   
    41   22   21 1    
    42   43   22 1    
    43   44   22 1    
    44   45   22 1    
    45   24   23 ar   
    46   25   23 1    
    47   42   24 1    
    48   26   25 1    
    49   46   26 1    
    50   47   26 1    
    51   48   26 1    
@<TRIPOS>SUBSTRUCTURE
     1 XCF300      1 GROUP   
@<TRIPOS>SET

