#    Name: 4ifb_PPS_1_INTS_M
#    Modification time : Tue Mar 25 03:54:16 2014

@<TRIPOS>MOLECULE
4ifb_PPS_1_INTS_M
   89     0    12     0     0
SMALL
NO_CHARGES


@<TRIPOS>ATOM
      1 NZ         -7.3340  -10.3095   53.5380 N.4       3 LYC4        0.0000 
      2 NZ         -6.2770  -10.0280   54.7880 N.4      11 LYL4        0.0000 
      3 NZ         -8.3910  -10.5910   52.2880 N.4       7 LYP4        0.0000 
      4 N          -7.3340  -10.3095   53.5380 N.am      2 SEC2        0.0000 
      5 N          -6.2770  -10.0280   54.7880 N.am     10 SEL2        0.0000 
      6 N          -8.3910  -10.5910   52.2880 N.am      6 SEP2        0.0000 
      7 N          -4.9130  -13.1490   53.1820 N.am      2 SEC2        0.0000 
      8 N          -4.8300  -12.0380   54.1990 N.am     10 SEL2        0.0000 
      9 N          -4.9960  -14.2600   52.1650 N.am      6 SEP2        0.0000 
     10 N          -7.8270  -11.5430   53.4175 N.am      2 SEC2        0.0000 
     11 N          -7.2630  -12.4950   54.5470 N.am     10 SEL2        0.0000 
     12 N          -7.8770  -14.2835   57.9265 N.am      2 SEC2        0.0000 
     13 N          -8.0950  -13.7660   56.5910 N.am     10 SEL2        0.0000 
     14 N          -7.6590  -14.8010   59.2620 N.am      6 SEP2        0.0000 
     15 N          -7.9665  -12.7270   57.4615 N.am      2 SEC2        0.0000 
     16 N          -7.8380  -11.6880   58.3320 N.am      6 SEP2        0.0000 
     17 N          -5.6555  -14.5640   53.6575 N.am      2 SEC2        0.0000 
     18 N          -6.3150  -14.8680   55.1500 N.am     10 SEL2        0.0000 
     19 N          -6.7645  -16.2605   54.9960 N.am      2 SEC2        0.0000 
     20 N          -7.2140  -17.6530   54.8420 N.am      6 SEP2        0.0000 
     21 N          -6.4280  -15.6755   56.2150 N.am      2 SEC2        0.0000 
     22 N          -6.5410  -16.4830   57.2800 N.am      6 SEP2        0.0000 
     23 N          -5.3285  -14.9000   55.9840 N.am      2 SEC2        0.0000 
     24 N          -4.3420  -14.9320   56.8180 N.am      6 SEP2        0.0000 
     25 N          -7.9140  -16.1420   54.5225 N.am      2 SEC2        0.0000 
     26 N          -8.6140  -14.6310   54.2030 N.am     10 SEL2        0.0000 
     27 CA         -9.0120  -12.8650   52.5960 C.3       4 GLC5        0.0000 
     28 CA         -9.9110  -14.1210   53.9840 C.3      12 GLL5        0.0000 
     29 CA         -8.1130  -11.6090   51.2080 C.3       8 GLP5        0.0000 
     30 CA         -9.9640  -12.1605   54.8720 C.3       4 GLC5        0.0000 
     31 CA        -10.0170  -10.2000   55.7600 C.3       8 GLP5        0.0000 
     32 CA        -11.8980  -18.2610   54.2975 C.3       4 GLC5        0.0000 
     33 CA        -12.4620  -16.2960   54.5230 C.3      12 GLL5        0.0000 
     34 CA        -11.3340  -20.2260   54.0720 C.3       8 GLP5        0.0000 
     35 CA        -15.0805  -17.8235   54.6010 C.3       4 GLC5        0.0000 
     36 CA        -13.8050  -17.5000   56.2470 C.3      12 GLL5        0.0000 
     37 CA        -16.3560  -18.1470   52.9550 C.3       8 GLP5        0.0000 
     38 N         -13.9415  -19.3395   54.4770 N.am      2 SEC2        0.0000 
     39 N         -14.2930  -18.6280   55.6570 N.am     10 SEL2        0.0000 
     40 N         -13.5900  -20.0510   53.2970 N.am      6 SEP2        0.0000 
     41 CA        -17.0140  -18.8090   56.8275 C.3       4 GLC5        0.0000 
     42 CA        -15.0640  -19.5030   56.3550 C.3      12 GLL5        0.0000 
     43 CA        -18.9640  -18.1150   57.3000 C.3       8 GLP5        0.0000 
     44 CA        -15.7100  -18.8250   54.6550 C.3       4 GLC5        0.0000 
     45 CA        -16.9265  -17.9220   58.5460 C.3       4 GLC5        0.0000 
     46 CA        -15.0240  -18.1990   58.3420 C.3      12 GLL5        0.0000 
     47 CA        -18.8290  -17.6450   58.7500 C.3       8 GLP5        0.0000 
     48 CA        -14.7115  -16.9950   60.1540 C.3       4 GLC5        0.0000 
     49 CA        -14.3990  -15.7910   61.9660 C.3       8 GLP5        0.0000 
     50 O         -15.6805  -18.6195   60.8925 O.2       1 ALC1        0.0000 
     51 O         -15.4040  -17.9790   59.6410 O.2       9 ALL1        0.0000 
     52 O         -15.9570  -19.2600   62.1440 O.2       5 ALP1        0.0000 
     53 CA        -15.3335  -15.5870   57.9850 C.3       4 GLC5        0.0000 
     54 CA        -14.1490  -17.2290   57.6470 C.3      12 GLL5        0.0000 
     55 CA        -16.5180  -13.9450   58.3230 C.3       8 GLP5        0.0000 
     56 CA        -14.3380  -13.5125   54.4750 C.3       4 GLC5        0.0000 
     57 CA        -12.9440  -14.9340   53.9890 C.3      12 GLL5        0.0000 
     58 CA        -15.7320  -12.0910   54.9610 C.3       8 GLP5        0.0000 
     59 N         -15.2660  -13.7205   53.1480 N.am      2 SEC2        0.0000 
     60 N         -14.3470  -14.9300   53.6710 N.am     10 SEL2        0.0000 
     61 N         -16.1850  -12.5110   52.6250 N.am      6 SEP2        0.0000 
     62 N         -11.3050  -16.7675   51.1960 N.am      2 SEC2        0.0000 
     63 N         -12.3270  -15.7250   51.7350 N.am     10 SEL2        0.0000 
     64 N         -10.2830  -17.8100   50.6570 N.am      6 SEP2        0.0000 
     65 NZ        -13.7330  -14.8165   48.5095 N.4       3 LYC4        0.0000 
     66 NZ        -12.9040  -14.1560   49.8870 N.4      11 LYL4        0.0000 
     67 NZ        -15.1760  -14.3120   47.0020 N.4       7 LYP4        0.0000 
     68 N         -11.5940  -14.1170   49.8260 N.am      2 SEC2        0.0000 
     69 N         -12.9040  -14.1560   49.8870 N.am     10 SEL2        0.0000 
     70 N         -10.2840  -14.0780   49.7650 N.am      6 SEP2        0.0000 
     71 N         -13.8740  -13.7315   48.8460 N.am      2 SEC2        0.0000 
     72 N         -14.8440  -13.3070   47.8050 N.am      6 SEP2        0.0000 
     73 N         -13.7330  -14.8165   48.5095 N.am      2 SEC2        0.0000 
     74 N         -14.5620  -15.4770   47.1320 N.am      6 SEP2        0.0000 
     75 N         -16.1280  -15.0400   51.1585 N.am      2 SEC2        0.0000 
     76 N         -14.7470  -15.4940   51.1020 N.am     10 SEL2        0.0000 
     77 N         -17.5090  -14.5860   51.2150 N.am      6 SEP2        0.0000 
     78 N         -15.7480  -16.3145   51.5520 N.am      2 SEC2        0.0000 
     79 N         -16.7490  -17.1350   52.0020 N.am      6 SEP2        0.0000 
     80 NZ        -12.6030  -17.9325   49.9975 N.4       3 LYC4        0.0000 
     81 NZ        -13.1030  -16.7060   49.6330 N.4      11 LYL4        0.0000 
     82 NZ        -10.7980  -19.0200   50.4740 N.4       7 LYP4        0.0000 
     83 N         -11.6930  -17.2580   50.1450 N.am      2 SEC2        0.0000 
     84 N         -13.1030  -16.7060   49.6330 N.am     10 SEL2        0.0000 
     85 N         -12.6030  -17.9325   49.9975 N.am      2 SEC2        0.0000 
     86 N         -12.1030  -19.1590   50.3620 N.am      6 SEP2        0.0000 
     87 N         -13.8325  -16.0915   48.3825 N.am      2 SEC2        0.0000 
     88 CA        -12.7772  -18.0229   58.5367 C.3       4 GLC5        0.0000 
     89 CA        -11.0540  -18.2640   59.4290 C.3       8 GLP5        0.0000 
@<TRIPOS>BOND
@<TRIPOS>SUBSTRUCTURE
     1 ALC1       50 GROUP        1 X    ALC  0     ROOT ALC X 1
     2 SEC2        4 GROUP        1 X    SEC  0     **** SEC X 2
     3 LYC4        1 GROUP        1 X    LYC  0     **** LYC X 4
     4 GLC5       27 GROUP        1 X    GLC  0     **** GLC X 6
     5 ALP1       52 GROUP        1 Y    ALP  0     ROOT ALP Y 8
     6 SEP2        6 GROUP        1 Y    SEP  0     **** SEP Y 9
     7 LYP4        3 GROUP        1 Y    LYP  0     **** LYP Y 11
     8 GLP5       29 GROUP        1 Y    GLP  0     **** GLP Y 13
     9 ALL1       51 GROUP        1 Z    ALL  0     ROOT ALL Z 15
    10 SEL2        5 GROUP        1 Z    SEL  0     **** SEL Z 16
    11 LYL4        2 GROUP        1 Z    LYL  0     **** LYL Z 18
    12 GLL5       28 GROUP        1 Z    GLL  0     **** GLL Z 20
@<TRIPOS>SET

