#    Name: 4ifb_PPS_1_ligand
#    Modification time : Tue Mar 25 03:54:16 2014

@<TRIPOS>MOLECULE
4ifb_PPS_1_ligand
   42    44     1     0     0
SMALL
NO_CHARGES


@<TRIPOS>ATOM
      1 S2         -6.0020  -11.6570   54.9780 S.o2      1 PPS302      0.0000 
      2 OS1        -6.2770  -10.0280   54.7880 O.co2     1 PPS302      0.0000 
      3 OS2        -4.8300  -12.0380   54.1990 O.co2     1 PPS302      0.0000 
      4 OS3        -5.7090  -11.8860   56.3800 O.co2     1 PPS302      0.0000 
      5 O6P        -7.2630  -12.4950   54.5470 O.3       1 PPS302      0.0000 
      6 P2         -7.5230  -13.9520   55.1740 P.3       1 PPS302      0.0000 
      7 O4P        -8.0950  -13.7660   56.5910 O.co2     1 PPS302      0.0000 
      8 O5P        -6.3150  -14.8680   55.1500 O.co2     1 PPS302      0.0000 
      9 O5'        -8.6140  -14.6310   54.2030 O.3       1 PPS302      0.0000 
     10 C5'        -9.9110  -14.1210   53.9840 C.3       1 PPS302      0.0000 
     11 C4'       -10.7150  -15.2680   53.3840 C.3       1 PPS302      0.0000 
     12 O4'       -11.0560  -16.2240   54.4110 O.3       1 PPS302      0.0000 
     13 C1'       -12.4620  -16.2960   54.5230 C.3       1 PPS302      0.0000 
     14 N9        -12.9780  -16.5060   55.8820 N.pl3     1 PPS302      0.0000 
     15 C4        -13.8050  -17.5000   56.2470 C.ar      1 PPS302      0.0000 
     16 N3        -14.2930  -18.6280   55.6570 N.ar      1 PPS302      0.0000 
     17 C2        -15.0640  -19.5030   56.3550 C.ar      1 PPS302      0.0000 
     18 N1        -15.4400  -19.2760   57.6350 N.ar      1 PPS302      0.0000 
     19 C6        -15.0240  -18.1990   58.3420 C.ar      1 PPS302      0.0000 
     20 N6        -15.4040  -17.9790   59.6410 N.pl3     1 PPS302      0.0000 
     21 C5        -14.1490  -17.2290   57.6470 C.ar      1 PPS302      0.0000 
     22 N7        -13.5530  -16.0660   57.9890 N.2       1 PPS302      0.0000 
     23 C8        -12.8510  -15.6400   56.9170 C.2       1 PPS302      0.0000 
     24 C2'       -12.9440  -14.9340   53.9890 C.3       1 PPS302      0.0000 
     25 O2'       -14.3470  -14.9300   53.6710 O.3       1 PPS302      0.0000 
     26 C3'       -12.0270  -14.7710   52.7750 C.3       1 PPS302      0.0000 
     27 O3'       -12.3270  -15.7250   51.7350 O.3       1 PPS302      0.0000 
     28 P1        -13.3610  -15.4950   50.4710 P.3       1 PPS302      0.0000 
     29 O1P       -12.9040  -14.1560   49.8870 O.co2     1 PPS302      0.0000 
     30 O2P       -14.7470  -15.4940   51.1020 O.co2     1 PPS302      0.0000 
     31 O3P       -13.1030  -16.7060   49.6330 O.co2     1 PPS302      0.0000 
     32 H          -9.9209  -13.3009   53.2761 H         1 PPS302      0.0000 
     33 H         -10.3984  -13.8170   54.9026 H         1 PPS302      0.0000 
     34 H         -10.1392  -15.7354   52.6079 H         1 PPS302      0.0000 
     35 H         -12.8674  -17.0354   53.8400 H         1 PPS302      0.0000 
     36 H         -15.3797  -20.3913   55.8791 H         1 PPS302      0.0000 
     37 H         -15.6275  -18.7925   60.1779 H         1 PPS302      0.0000 
     38 H         -15.4244  -17.0243   59.9378 H         1 PPS302      0.0000 
     39 H         -12.3206  -14.8165   56.8884 H         1 PPS302      0.0000 
     40 H         -12.6557  -14.2000   54.7100 H         1 PPS302      0.0000 
     41 H         -11.9330  -13.8083   52.5010 H         1 PPS302      0.0000 
     42 H         -14.3913  -15.1372   52.6937 H         1 PPS302      0.0000 
@<TRIPOS>BOND
     1    2    1 ar   
     2    3    1 ar   
     3    4    1 ar   
     4    5    1 1    
     5    6    5 1    
     6    7    6 ar   
     7    8    6 ar   
     8    9    6 1    
     9   10    9 1    
    10   11   10 1    
    11   32   10 1    
    12   33   10 1    
    13   12   11 1    
    14   26   11 1    
    15   34   11 1    
    16   13   12 1    
    17   14   13 1    
    18   24   13 1    
    19   35   13 1    
    20   15   14 1    
    21   23   14 1    
    22   16   15 ar   
    23   21   15 ar   
    24   17   16 ar   
    25   18   17 ar   
    26   36   17 1    
    27   19   18 ar   
    28   20   19 1    
    29   21   19 ar   
    30   37   20 1    
    31   38   20 1    
    32   22   21 1    
    33   23   22 2    
    34   39   23 1    
    35   25   24 1    
    36   26   24 1    
    37   40   24 1    
    38   42   25 1    
    39   27   26 1    
    40   41   26 1    
    41   28   27 1    
    42   29   28 ar   
    43   30   28 ar   
    44   31   28 ar   
@<TRIPOS>SUBSTRUCTURE
     1 PPS302      1 GROUP   
@<TRIPOS>SET

