#    Name: 3am4_FT1_2_INTS_M
#    Modification time : Mon Mar 24 17:46:44 2014

@<TRIPOS>MOLECULE
3am4_FT1_2_INTS_M
   47     0     9     0     0
SMALL
NO_CHARGES


@<TRIPOS>ATOM
      1 CA          9.6270  103.3770   25.9480 C.3       3 GLC5        0.0000 
      2 CA          9.8280  101.1870   25.9420 C.3       9 GLL5        0.0000 
      3 CA          9.4260  105.5670   25.9540 C.3       6 GLP5        0.0000 
      4 CA          9.8465  100.4350   21.9450 C.3       3 GLC5        0.0000 
      5 CA         10.4760  100.1780   23.8400 C.3       9 GLL5        0.0000 
      6 CA          9.2170  100.6920   20.0500 C.3       6 GLP5        0.0000 
      7 CA          9.2015  104.0560   24.8630 C.3       3 GLC5        0.0000 
      8 CA          8.9770  102.5450   23.7720 C.3       9 GLL5        0.0000 
      9 CA          9.4775  104.0570   22.6455 C.3       3 GLC5        0.0000 
     10 CA          9.9780  105.5690   21.5190 C.3       6 GLP5        0.0000 
     11 CA          8.6515  102.2460   21.8525 C.3       3 GLC5        0.0000 
     12 CA          8.3260  101.9470   19.9330 C.3       6 GLP5        0.0000 
     13 CA         10.6865  102.6575   22.7695 C.3       3 GLC5        0.0000 
     14 CA         12.3960  102.7700   21.7670 C.3       6 GLP5        0.0000 
     15 CA         11.5005  101.6350   27.9860 C.3       3 GLC5        0.0000 
     16 CA         10.3840  100.2760   28.3940 C.3       9 GLL5        0.0000 
     17 CA         12.6170  102.9940   27.5780 C.3       6 GLP5        0.0000 
     18 CA          8.7920   99.5535   28.1640 C.3       3 GLC5        0.0000 
     19 CA          7.2000   98.8310   27.9340 C.3       6 GLP5        0.0000 
     20 CA         11.0880   99.7275   29.7095 C.3       3 GLC5        0.0000 
     21 CA         11.7920   99.1790   31.0250 C.3       6 GLP5        0.0000 
     22 N          14.4805   98.9420   26.6470 N.am      2 SEC2        0.0000 
     23 N          14.2550   98.1800   25.7420 N.am      8 SEL2        0.0000 
     24 N          14.7060   99.7040   27.5520 N.am      5 SEP2        0.0000 
     25 O          14.7895   98.8280   24.7845 O.2       1 ALC1        0.0000 
     26 O          14.2550   98.1800   25.7420 O.2       7 ALL1        0.0000 
     27 O          15.3240   99.4760   23.8270 O.2       4 ALP1        0.0000 
     28 CA         13.3942   98.0927   27.2152 C.3       3 GLC5        0.0000 
     29 CA         13.5170   97.0390   25.5910 C.3       9 GLL5        0.0000 
     30 CA         13.9230   99.1530   28.6130 C.3       6 GLP5        0.0000 
     31 CA         15.7575   96.6465   24.9657 C.3       3 GLC5        0.0000 
     32 CA         17.7390   96.8260   24.6470 C.3       6 GLP5        0.0000 
     33 CA         10.0185   94.5285   25.9802 C.3       3 GLC5        0.0000 
     34 CA         11.9250   94.7410   25.2720 C.3       9 GLL5        0.0000 
     35 CA          8.3710   93.7430   26.3790 C.3       6 GLP5        0.0000 
     36 CA         10.5515   95.9850   24.0367 C.3       3 GLC5        0.0000 
     37 CA         11.4070   95.8870   25.8910 C.3       9 GLL5        0.0000 
     38 CA          9.4370   96.6560   22.4920 C.3       6 GLP5        0.0000 
     39 CA         11.7008  101.3273   26.9265 C.3       3 GLC5        0.0000 
     40 CA         11.1080   99.1500   25.9300 C.3       9 GLL5        0.0000 
     41 CA         12.3537   99.4068   27.4440 C.3       3 GLC5        0.0000 
     42 CA         10.4610  100.1710   26.6200 C.3       9 GLL5        0.0000 
     43 CA         11.2245  102.0915   26.4142 C.3       3 GLC5        0.0000 
     44 CA          8.7531   99.6274   27.0213 C.3       3 GLC5        0.0000 
     45 CA         11.2760  101.7272   22.9832 C.3       3 GLC5        0.0000 
     46 CA          9.8360  101.1910   24.5590 C.3       9 GLL5        0.0000 
     47 CA         10.1165   98.1605   23.3400 C.3       3 GLC5        0.0000 
@<TRIPOS>BOND
@<TRIPOS>SUBSTRUCTURE
     1 ALC1       25 GROUP        1 X    ALC  0     ROOT ALC X 1
     2 SEC2       22 GROUP        1 X    SEC  0     **** SEC X 2
     3 GLC5        1 GROUP        1 X    GLC  0     **** GLC X 6
     4 ALP1       27 GROUP        1 Y    ALP  0     ROOT ALP Y 8
     5 SEP2       24 GROUP        1 Y    SEP  0     **** SEP Y 9
     6 GLP5        3 GROUP        1 Y    GLP  0     **** GLP Y 13
     7 ALL1       26 GROUP        1 Z    ALL  0     ROOT ALL Z 15
     8 SEL2       23 GROUP        1 Z    SEL  0     **** SEL Z 16
     9 GLL5        2 GROUP        1 Z    GLL  0     **** GLL Z 20
@<TRIPOS>SET

