#    Name: 3am4_FT1_2_ligand
#    Modification time : Mon Mar 24 17:46:44 2014

@<TRIPOS>MOLECULE
3am4_FT1_2_ligand
   26    27     1     0     0
SMALL
NO_CHARGES


@<TRIPOS>ATOM
      1 C1         12.2140   97.0260   26.0440 C.ar      1 FT1902      0.0000 
      2 C2         13.5170   97.0390   25.5910 C.ar      1 FT1902      0.0000 
      3 C3         14.0350   95.8950   24.9780 C.ar      1 FT1902      0.0000 
      4 C4         13.2420   94.7440   24.8170 C.ar      1 FT1902      0.0000 
      5 C5         11.9250   94.7410   25.2720 C.ar      1 FT1902      0.0000 
      6 C6         11.4070   95.8870   25.8910 C.ar      1 FT1902      0.0000 
      7 O7         11.7380   98.1630   26.6350 O.3       1 FT1902      0.0000 
      8 C8         11.1080   99.1500   25.9300 C.ar      1 FT1902      0.0000 
      9 C9         10.4610  100.1710   26.6200 C.ar      1 FT1902      0.0000 
     10 C10         9.8280  101.1870   25.9420 C.ar      1 FT1902      0.0000 
     11 C11         9.8360  101.1910   24.5590 C.ar      1 FT1902      0.0000 
     12 C12        10.4760  100.1780   23.8400 C.ar      1 FT1902      0.0000 
     13 C13        11.1160   99.1520   24.5360 C.ar      1 FT1902      0.0000 
     14 C14        13.8360   93.5540   24.1620 C.2       1 FT1902      0.0000 
     15 O15        13.1630   92.6160   23.7800 O.2       1 FT1902      0.0000 
     16 CL1         8.9770  102.5450   23.7720 Cl        1 FT1902      0.0000 
     17 CL9        10.3840  100.2760   28.3940 Cl        1 FT1902      0.0000 
     18 O18        14.2550   98.1800   25.7420 O.3       1 FT1902      0.0000 
     19 H          15.0072   95.8902   24.6390 H         1 FT1902      0.0000 
     20 H          11.3384   93.9119   25.1571 H         1 FT1902      0.0000 
     21 H          10.4417   95.8947   26.2315 H         1 FT1902      0.0000 
     22 H           9.3516  101.9393   26.4566 H         1 FT1902      0.0000 
     23 H          10.4747  100.1894   22.8199 H         1 FT1902      0.0000 
     24 H          11.5909   98.4016   24.0229 H         1 FT1902      0.0000 
     25 H          14.8949   93.6322   24.0759 H         1 FT1902      0.0000 
     26 H          14.5094   98.4484   24.8129 H         1 FT1902      0.0000 
@<TRIPOS>BOND
     1    2    1 ar   
     2    6    1 ar   
     3    7    1 1    
     4    3    2 ar   
     5   18    2 1    
     6    4    3 ar   
     7   19    3 1    
     8    5    4 ar   
     9   14    4 1    
    10    6    5 ar   
    11   20    5 1    
    12   21    6 1    
    13    8    7 1    
    14    9    8 ar   
    15   13    8 ar   
    16   10    9 ar   
    17   17    9 1    
    18   11   10 ar   
    19   22   10 1    
    20   12   11 ar   
    21   16   11 1    
    22   13   12 ar   
    23   23   12 1    
    24   24   13 1    
    25   15   14 2    
    26   25   14 1    
    27   26   18 1    
@<TRIPOS>SUBSTRUCTURE
     1 FT1902      1 GROUP   
@<TRIPOS>SET

