#    Name: 3ab1_FAD_1_INTS_M
#    Modification time : Tue Mar 25 11:39:44 2014

@<TRIPOS>MOLECULE
3ab1_FAD_1_INTS_M
  131     0     9     0     0
SMALL
NO_CHARGES


@<TRIPOS>ATOM
      1 N          67.5100   40.1320   78.8285 N.am      2 SEC2        0.0000 
      2 N          66.4320   39.2790   78.3160 N.am      8 SEL2        0.0000 
      3 N          68.5880   40.9850   79.3410 N.am      5 SEP2        0.0000 
      4 N          67.6985   38.6915   75.6650 N.am      2 SEC2        0.0000 
      5 N          67.7080   37.6810   76.9150 N.am      8 SEL2        0.0000 
      6 N          67.6890   39.7020   74.4150 N.am      5 SEP2        0.0000 
      7 CA         67.0170   35.2320   77.2545 C.3       3 GLC5        0.0000 
      8 CA         67.3470   35.6450   79.1080 C.3       9 GLL5        0.0000 
      9 CA         66.6870   34.8190   75.4010 C.3       6 GLP5        0.0000 
     10 CA         67.5675   33.8215   81.3370 C.3       3 GLC5        0.0000 
     11 CA         68.2180   35.2760   80.3070 C.3       9 GLL5        0.0000 
     12 CA         66.9170   32.3670   82.3670 C.3       6 GLP5        0.0000 
     13 N          69.8920   37.5345   82.9855 N.am      2 SEC2        0.0000 
     14 N          69.3910   36.7260   81.6930 N.am      8 SEL2        0.0000 
     15 N          70.3930   38.3430   84.2780 N.am      5 SEP2        0.0000 
     16 O          69.3445   35.8115   82.7935 O.2       1 ALC1        0.0000 
     17 O          69.3910   36.7260   81.6930 O.2       7 ALL1        0.0000 
     18 O          69.2980   34.8970   83.8940 O.2       4 ALP1        0.0000 
     19 CA         72.5150   34.7090   79.3390 C.3       3 GLC5        0.0000 
     20 CA         70.6320   35.1350   80.3310 C.3       9 GLL5        0.0000 
     21 CA         74.3980   34.2830   78.3470 C.3       6 GLP5        0.0000 
     22 O          71.4580   35.6800   82.5915 O.2       1 ALC1        0.0000 
     23 O          71.6730   35.4700   81.2160 O.2       7 ALL1        0.0000 
     24 O          71.2430   35.8900   83.9670 O.2       4 ALP1        0.0000 
     25 CA         68.4515   33.0965   81.5465 C.3       3 GLC5        0.0000 
     26 CA         69.9860   33.8260   80.7260 C.3       9 GLL5        0.0000 
     27 CA         68.5795   32.8950   79.3070 C.3       3 GLC5        0.0000 
     28 CA         67.1730   31.9640   77.8880 C.3       6 GLP5        0.0000 
     29 CA         71.9430   27.2020   81.3440 C.3       3 GLC5        0.0000 
     30 CA         71.5970   29.2070   80.4390 C.3       9 GLL5        0.0000 
     31 CA         72.2890   25.1970   82.2490 C.3       6 GLP5        0.0000 
     32 O          72.2780   26.7960   79.7535 O.2       1 ALC1        0.0000 
     33 O          71.7650   28.1760   79.5990 O.2       7 ALL1        0.0000 
     34 O          72.7910   25.4160   79.9080 O.2       4 ALP1        0.0000 
     35 N          72.1230   27.7340   82.1775 N.am      2 SEC2        0.0000 
     36 N          71.4540   28.9370   81.7860 N.am      8 SEL2        0.0000 
     37 N          72.7920   26.5310   82.5690 N.am      5 SEP2        0.0000 
     38 CA         69.5890   28.9295   81.8410 C.3       3 GLC5        0.0000 
     39 CA         70.9760   29.8940   82.6610 C.3       9 GLL5        0.0000 
     40 CA         68.2020   27.9650   81.0210 C.3       6 GLP5        0.0000 
     41 CA         70.6095   31.1025   84.2475 C.3       3 GLC5        0.0000 
     42 CA         70.2430   32.3110   85.8340 C.3       6 GLP5        0.0000 
     43 CA         72.4265   31.1345   82.6745 C.3       3 GLC5        0.0000 
     44 CA         73.8770   32.3750   82.6880 C.3       6 GLP5        0.0000 
     45 CA         72.7310   29.0285   82.9290 C.3       3 GLC5        0.0000 
     46 CA         74.4860   28.1630   83.1970 C.3       6 GLP5        0.0000 
     47 CA         70.5565   27.8030   83.0560 C.3       3 GLC5        0.0000 
     48 CA         70.1370   25.7120   83.4510 C.3       6 GLP5        0.0000 
     49 N          71.4535   31.8315   83.3480 N.am      2 SEC2        0.0000 
     50 N          70.6480   31.1420   82.1780 N.am      8 SEL2        0.0000 
     51 N          72.2590   32.5210   84.5180 N.am      5 SEP2        0.0000 
     52 CA         68.8485   31.9015   81.6120 C.3       3 GLC5        0.0000 
     53 CA         70.7800   31.4360   80.8570 C.3       9 GLL5        0.0000 
     54 N          59.6405   44.0290   74.4160 N.am      2 SEC2        0.0000 
     55 N          59.7650   45.4560   74.1130 N.am      8 SEL2        0.0000 
     56 N          59.5160   42.6020   74.7190 N.am      5 SEP2        0.0000 
     57 O          59.7520   48.1825   74.3440 O.2       1 ALC1        0.0000 
     58 O          60.8870   47.4150   74.2150 O.2       7 ALL1        0.0000 
     59 O          58.6170   48.9500   74.4730 O.2       4 ALP1        0.0000 
     60 N          61.1525   50.2845   73.9685 N.am      2 SEC2        0.0000 
     61 N          62.1340   49.3020   74.2770 N.am      8 SEL2        0.0000 
     62 N          60.1710   51.2670   73.6600 N.am      5 SEP2        0.0000 
     63 N          62.4470   50.7215   73.6435 N.am      2 SEC2        0.0000 
     64 N          62.7600   52.1410   73.0100 N.am      5 SEP2        0.0000 
     65 N          64.7555   49.3415   73.8475 N.am      2 SEC2        0.0000 
     66 N          64.4850   47.9980   73.8820 N.am      8 SEL2        0.0000 
     67 N          65.0260   50.6850   73.8130 N.am      5 SEP2        0.0000 
     68 CA         67.2390   49.7285   72.2700 C.3       3 GLC5        0.0000 
     69 CA         66.8640   47.9780   73.6070 C.3       9 GLL5        0.0000 
     70 CA         67.6140   51.4790   70.9330 C.3       6 GLP5        0.0000 
     71 CA         68.8660   47.6340   75.1410 C.3       3 GLC5        0.0000 
     72 CA         69.3430   48.0880   73.3520 C.3       9 GLL5        0.0000 
     73 CA         68.3890   47.1800   76.9300 C.3       6 GLP5        0.0000 
     74 CA         70.5630   44.3005   74.1880 C.3       3 GLC5        0.0000 
     75 CA         69.3040   45.1220   73.0210 C.3       9 GLL5        0.0000 
     76 CA         71.8220   43.4790   75.3550 C.3       6 GLP5        0.0000 
     77 CA         68.3015   45.7345   74.8640 C.3       3 GLC5        0.0000 
     78 CA         67.2990   46.3470   76.7070 C.3       6 GLP5        0.0000 
     79 CA         67.7740   45.4420   71.4175 C.3       3 GLC5        0.0000 
     80 CA         66.2440   45.7620   69.8140 C.3       6 GLP5        0.0000 
     81 CA         64.1450   44.3810   71.7620 C.3       3 GLC5        0.0000 
     82 CA         64.3290   43.7310   73.4730 C.3       9 GLL5        0.0000 
     83 CA         63.9610   45.0310   70.0510 C.3       6 GLP5        0.0000 
     84 CA         64.3205   43.3580   77.0490 C.3       3 GLC5        0.0000 
     85 CA         64.1500   43.1200   74.8600 C.3       9 GLL5        0.0000 
     86 CA         64.4910   43.5960   79.2380 C.3       6 GLP5        0.0000 
     87 N          65.0830   44.7450   76.2335 N.am      2 SEC2        0.0000 
     88 N          65.2260   43.5130   75.6960 N.am      8 SEL2        0.0000 
     89 N          64.9400   45.9770   76.7710 N.am      5 SEP2        0.0000 
     90 O          63.0235   40.0275   73.3580 O.2       1 ALC1        0.0000 
     91 O          62.9280   41.2350   73.9970 O.2       7 ALL1        0.0000 
     92 O          63.1190   38.8200   72.7190 O.2       4 ALP1        0.0000 
     93 O          64.1060   40.2175   73.4290 O.2       1 ALC1        0.0000 
     94 O          65.2840   39.2000   72.8610 O.2       4 ALP1        0.0000 
     95 CA         64.1530   42.3075   77.7285 C.3       3 GLC5        0.0000 
     96 CA         63.8150   41.0190   76.2190 C.3       9 GLL5        0.0000 
     97 CA         64.0635   38.2295   74.5595 C.3       3 GLC5        0.0000 
     98 CA         63.5380   39.5240   76.1630 C.3       9 GLL5        0.0000 
     99 CA         64.5890   36.9350   72.9560 C.3       6 GLP5        0.0000 
    100 N          61.7050   36.7475   77.4115 N.am      2 SEC2        0.0000 
    101 N          62.8910   36.6710   76.6410 N.am      8 SEL2        0.0000 
    102 N          60.5190   36.8240   78.1820 N.am      5 SEP2        0.0000 
    103 N          62.6890   36.2905   75.2060 N.am      2 SEC2        0.0000 
    104 N          62.4870   35.9100   73.7710 N.am      5 SEP2        0.0000 
    105 N          63.2035   35.1300   76.4590 N.am      2 SEC2        0.0000 
    106 N          63.5160   33.5890   76.2770 N.am      5 SEP2        0.0000 
    107 N          62.3075   37.2410   79.9485 N.am      2 SEC2        0.0000 
    108 N          63.5580   36.9100   79.0240 N.am      8 SEL2        0.0000 
    109 N          61.0570   37.5720   80.8730 N.am      5 SEP2        0.0000 
    110 CA         66.4838   36.7128   80.8877 C.3       3 GLC5        0.0000 
    111 CA         65.1850   37.9650   82.0680 C.3       6 GLP5        0.0000 
    112 CA         67.4778   33.7123   78.7978 C.3       3 GLC5        0.0000 
    113 CA         68.6552   37.6378   80.8370 C.3       3 GLC5        0.0000 
    114 CA         68.4670   39.5770   81.3090 C.3       6 GLP5        0.0000 
    115 CA         71.1043   37.1300   80.0405 C.3       3 GLC5        0.0000 
    116 CA         69.4690   36.1210   80.4230 C.3       9 GLL5        0.0000 
    117 CA         72.1580   38.6320   79.7040 C.3       6 GLP5        0.0000 
    118 CA         72.4470   31.6670   81.5503 C.3       3 GLC5        0.0000 
    119 CA         71.2540   30.4820   79.9680 C.3       9 GLL5        0.0000 
    120 CA         73.2632   29.1408   80.4787 C.3       3 GLC5        0.0000 
    121 CA         75.1010   28.4370   80.7540 C.3       6 GLP5        0.0000 
    122 CA         69.5135   30.8445   79.0263 C.3       3 GLC5        0.0000 
    123 CA         68.0100   30.7300   77.6400 C.3       6 GLP5        0.0000 
    124 CA         69.6524   29.3026   80.7756 C.3       3 GLC5        0.0000 
    125 CA         65.0168   47.7764   72.1188 C.3       3 GLC5        0.0000 
    126 CA         65.6520   47.2870   73.6650 C.3       9 GLL5        0.0000 
    127 CA         64.0970   48.7880   70.6610 C.3       6 GLP5        0.0000 
    128 CA         63.0657   40.4933   78.1305 C.3       3 GLC5        0.0000 
    129 CA         62.4550   40.7150   80.0700 C.3       6 GLP5        0.0000 
    130 CA         62.4360   42.7031   76.3372 C.3       3 GLC5        0.0000 
    131 CA         60.9220   43.7160   77.1450 C.3       6 GLP5        0.0000 
@<TRIPOS>BOND
@<TRIPOS>SUBSTRUCTURE
     1 ALC1       16 GROUP        1 X    ALC  0     ROOT ALC X 1
     2 SEC2        1 GROUP        1 X    SEC  0     **** SEC X 2
     3 GLC5        7 GROUP        1 X    GLC  0     **** GLC X 6
     4 ALP1       18 GROUP        1 Y    ALP  0     ROOT ALP Y 8
     5 SEP2        3 GROUP        1 Y    SEP  0     **** SEP Y 9
     6 GLP5        9 GROUP        1 Y    GLP  0     **** GLP Y 13
     7 ALL1       17 GROUP        1 Z    ALL  0     ROOT ALL Z 15
     8 SEL2        2 GROUP        1 Z    SEL  0     **** SEL Z 16
     9 GLL5        8 GROUP        1 Z    GLL  0     **** GLL Z 20
@<TRIPOS>SET

