#    Name: 3ab1_FAD_1_ligand
#    Modification time : Tue Mar 25 11:39:44 2014

@<TRIPOS>MOLECULE
3ab1_FAD_1_ligand
   84    89     1     0     0
SMALL
NO_CHARGES


@<TRIPOS>ATOM
      1 PA         66.6050   37.8400   77.9240 P.3       1 FAD361      0.0000 
      2 O1A        66.4320   39.2790   78.3160 O.co2     1 FAD361      0.0000 
      3 O2A        67.7080   37.6810   76.9150 O.co2     1 FAD361      0.0000 
      4 O5B        66.8790   36.9730   79.2420 O.3       1 FAD361      0.0000 
      5 C5B        67.3470   35.6450   79.1080 C.3       1 FAD361      0.0000 
      6 C4B        68.2180   35.2760   80.3070 C.3       1 FAD361      0.0000 
      7 O4B        68.6640   33.9380   80.2240 O.3       1 FAD361      0.0000 
      8 C3B        69.4690   36.1210   80.4230 C.3       1 FAD361      0.0000 
      9 O3B        69.3910   36.7260   81.6930 O.3       1 FAD361      0.0000 
     10 C2B        70.6320   35.1350   80.3310 C.3       1 FAD361      0.0000 
     11 O2B        71.6730   35.4700   81.2160 O.3       1 FAD361      0.0000 
     12 C1B        69.9860   33.8260   80.7260 C.3       1 FAD361      0.0000 
     13 N9A        70.5430   32.5910   80.1440 N.pl3     1 FAD361      0.0000 
     14 C8A        70.8420   32.3380   78.8340 C.2       1 FAD361      0.0000 
     15 N7A        71.2700   31.0560   78.7430 N.2       1 FAD361      0.0000 
     16 C5A        71.2540   30.4820   79.9680 C.ar      1 FAD361      0.0000 
     17 C6A        71.5970   29.2070   80.4390 C.ar      1 FAD361      0.0000 
     18 N6A        71.7650   28.1760   79.5990 N.pl3     1 FAD361      0.0000 
     19 N1A        71.4540   28.9370   81.7860 N.ar      1 FAD361      0.0000 
     20 C2A        70.9760   29.8940   82.6610 C.ar      1 FAD361      0.0000 
     21 N3A        70.6480   31.1420   82.1780 N.ar      1 FAD361      0.0000 
     22 C4A        70.7800   31.4360   80.8570 C.ar      1 FAD361      0.0000 
     23 N1         62.0010   45.3240   73.8500 N.2       1 FAD361      0.0000 
     24 C2         60.8410   46.0420   74.0630 C.2       1 FAD361      0.0000 
     25 O2         59.7650   45.4560   74.1130 O.2       1 FAD361      0.0000 
     26 N3         60.8870   47.4150   74.2150 N.am      1 FAD361      0.0000 
     27 C4         62.0970   48.0760   74.1520 C.2       1 FAD361      0.0000 
     28 O4         62.1340   49.3020   74.2770 O.2       1 FAD361      0.0000 
     29 C4X        63.2700   47.3470   73.9390 C.2       1 FAD361      0.0000 
     30 N5         64.4850   47.9980   73.8820 N.2       1 FAD361      0.0000 
     31 C5X        65.6520   47.2870   73.6650 C.ar      1 FAD361      0.0000 
     32 C6         66.8640   47.9780   73.6070 C.ar      1 FAD361      0.0000 
     33 C7         68.0600   47.2930   73.4010 C.ar      1 FAD361      0.0000 
     34 C7M        69.3430   48.0880   73.3520 C.3       1 FAD361      0.0000 
     35 C8         68.0380   45.9020   73.2530 C.ar      1 FAD361      0.0000 
     36 C8M        69.3040   45.1220   73.0210 C.3       1 FAD361      0.0000 
     37 C9         66.8190   45.2130   73.3090 C.ar      1 FAD361      0.0000 
     38 C9A        65.6150   45.8970   73.5170 C.ar      1 FAD361      0.0000 
     39 N10        64.3910   45.2330   73.5760 N.pl3     1 FAD361      0.0000 
     40 C10        63.2230   45.9580   73.7860 C.2       1 FAD361      0.0000 
     41 C1'        64.3290   43.7310   73.4730 C.3       1 FAD361      0.0000 
     42 C2'        64.1500   43.1200   74.8600 C.3       1 FAD361      0.0000 
     43 O2'        65.2260   43.5130   75.6960 O.3       1 FAD361      0.0000 
     44 C3'        64.0200   41.6030   74.8200 C.3       1 FAD361      0.0000 
     45 O3'        62.9280   41.2350   73.9970 O.3       1 FAD361      0.0000 
     46 C4'        63.8150   41.0190   76.2190 C.3       1 FAD361      0.0000 
     47 O4'        64.9590   41.2380   77.0160 O.3       1 FAD361      0.0000 
     48 C5'        63.5380   39.5240   76.1630 C.3       1 FAD361      0.0000 
     49 O5'        63.5570   38.9820   77.4630 O.3       1 FAD361      0.0000 
     50 P          63.7670   37.4060   77.6220 P.3       1 FAD361      0.0000 
     51 O1P        62.8910   36.6710   76.6410 O.co2     1 FAD361      0.0000 
     52 O2P        63.5580   36.9100   79.0240 O.co2     1 FAD361      0.0000 
     53 O3P        65.3130   37.2150   77.1850 O.3       1 FAD361      0.0000 
     54 H          67.9558   35.5110   78.2031 H         1 FAD361      0.0000 
     55 H          66.5230   34.9195   79.0618 H         1 FAD361      0.0000 
     56 H          67.6371   35.4220   81.2158 H         1 FAD361      0.0000 
     57 H          69.4997   36.7916   79.6245 H         1 FAD361      0.0000 
     58 H          70.9231   35.0670   79.3125 H         1 FAD361      0.0000 
     59 H          69.9495   33.7631   81.7985 H         1 FAD361      0.0000 
     60 H          70.7605   32.9631   78.1122 H         1 FAD361      0.0000 
     61 H          71.5712   28.3578   78.6349 H         1 FAD361      0.0000 
     62 H          72.0691   27.3173   80.0116 H         1 FAD361      0.0000 
     63 H          70.8674   29.6759   83.6578 H         1 FAD361      0.0000 
     64 H          60.0168   47.9448   74.3754 H         1 FAD361      0.0000 
     65 H          66.8729   49.0025   73.7175 H         1 FAD361      0.0000 
     66 H          66.8090   44.1880   73.1954 H         1 FAD361      0.0000 
     67 H          65.2499   43.3529   73.0347 H         1 FAD361      0.0000 
     68 H          63.4902   43.4386   72.8453 H         1 FAD361      0.0000 
     69 H          63.2024   43.5184   75.2643 H         1 FAD361      0.0000 
     70 H          64.9507   41.1970   74.4278 H         1 FAD361      0.0000 
     71 H          62.9416   41.5000   76.6558 H         1 FAD361      0.0000 
     72 H          64.3006   39.0691   75.5133 H         1 FAD361      0.0000 
     73 H          62.5641   39.3850   75.6704 H         1 FAD361      0.0000 
     74 H          70.1386   47.5005   73.2041 H         1 FAD361      0.0000 
     75 H          69.3346   48.7615   72.6129 H         1 FAD361      0.0000 
     76 H          69.5024   48.5886   74.2029 H         1 FAD361      0.0000 
     77 H          69.7696   45.4100   72.1842 H         1 FAD361      0.0000 
     78 H          69.9539   45.2368   73.7723 H         1 FAD361      0.0000 
     79 H          69.1258   44.1418   72.9348 H         1 FAD361      0.0000 
     80 H          69.3767   35.9650   82.3416 H         1 FAD361      0.0000 
     81 H          71.2414   35.5180   82.1168 H         1 FAD361      0.0000 
     82 H          65.3700   42.7394   76.3131 H         1 FAD361      0.0000 
     83 H          63.1871   40.3535   73.6023 H         1 FAD361      0.0000 
     84 H          65.2252   40.3306   77.3414 H         1 FAD361      0.0000 
@<TRIPOS>BOND
     1    2    1 ar   
     2    3    1 ar   
     3    4    1 1    
     4   53    1 1    
     5    5    4 1    
     6    6    5 1    
     7   54    5 1    
     8   55    5 1    
     9    7    6 1    
    10    8    6 1    
    11   56    6 1    
    12   12    7 1    
    13    9    8 1    
    14   10    8 1    
    15   57    8 1    
    16   80    9 1    
    17   11   10 1    
    18   12   10 1    
    19   58   10 1    
    20   81   11 1    
    21   13   12 1    
    22   59   12 1    
    23   14   13 1    
    24   22   13 1    
    25   15   14 2    
    26   60   14 1    
    27   16   15 1    
    28   17   16 ar   
    29   22   16 ar   
    30   18   17 1    
    31   19   17 ar   
    32   61   18 1    
    33   62   18 1    
    34   20   19 ar   
    35   21   20 ar   
    36   63   20 1    
    37   22   21 ar   
    38   24   23 1    
    39   40   23 2    
    40   25   24 2    
    41   26   24 am   
    42   27   26 am   
    43   64   26 1    
    44   28   27 2    
    45   29   27 1    
    46   30   29 2    
    47   40   29 1    
    48   31   30 1    
    49   32   31 ar   
    50   38   31 ar   
    51   33   32 ar   
    52   65   32 1    
    53   34   33 1    
    54   35   33 ar   
    55   74   34 1    
    56   75   34 1    
    57   76   34 1    
    58   36   35 1    
    59   37   35 ar   
    60   77   36 1    
    61   78   36 1    
    62   79   36 1    
    63   38   37 ar   
    64   66   37 1    
    65   39   38 1    
    66   40   39 1    
    67   41   39 1    
    68   42   41 1    
    69   67   41 1    
    70   68   41 1    
    71   43   42 1    
    72   44   42 1    
    73   69   42 1    
    74   82   43 1    
    75   45   44 1    
    76   46   44 1    
    77   70   44 1    
    78   83   45 1    
    79   47   46 1    
    80   48   46 1    
    81   71   46 1    
    82   84   47 1    
    83   49   48 1    
    84   72   48 1    
    85   73   48 1    
    86   50   49 1    
    87   51   50 ar   
    88   52   50 ar   
    89   53   50 1    
@<TRIPOS>SUBSTRUCTURE
     1 FAD361      1 GROUP   
@<TRIPOS>SET

