#    Name: 1sui_SAH_1_INTS_M
#    Modification time : Tue Mar 25 02:44:35 2014

@<TRIPOS>MOLECULE
1sui_SAH_1_INTS_M
   76     0    12     0     0
SMALL
NO_CHARGES


@<TRIPOS>ATOM
      1 OD1        26.0795   35.1925   20.8580 O.co2     3 ASC3        0.0000 
      2 OD1        27.1050   36.1250   21.5610 O.co2    11 ASL3        0.0000 
      3 OD1        25.0540   34.2600   20.1550 O.co2     7 ASP3        0.0000 
      4 O          26.7090   36.7225   20.2520 O.2       1 ALC1        0.0000 
      5 O          27.1050   36.1250   21.5610 O.2       9 ALL1        0.0000 
      6 O          26.3130   37.3200   18.9430 O.2       5 ALP1        0.0000 
      7 O          26.2205   35.7220   22.5665 O.2       1 ALC1        0.0000 
      8 O          25.3360   35.3190   23.5720 O.2       5 ALP1        0.0000 
      9 CA         28.2295   36.3380   19.9445 C.3       4 GLC5        0.0000 
     10 CA         28.2170   37.0970   21.9050 C.3      12 GLL5        0.0000 
     11 CA         28.2420   35.5790   17.9840 C.3       8 GLP5        0.0000 
     12 CA         30.0110   37.2835   20.9625 C.3       4 GLC5        0.0000 
     13 CA         31.8050   37.4700   20.0200 C.3       8 GLP5        0.0000 
     14 CA         30.3925   40.6615   22.8985 C.3       4 GLC5        0.0000 
     15 CA         28.5470   39.8480   22.0530 C.3      12 GLL5        0.0000 
     16 CA         32.2380   41.4750   23.7440 C.3       8 GLP5        0.0000 
     17 CA         31.6285   40.8010   20.8825 C.3       4 GLC5        0.0000 
     18 CA         29.7950   40.3260   20.7640 C.3      12 GLL5        0.0000 
     19 CA         33.4620   41.2760   21.0010 C.3       8 GLP5        0.0000 
     20 N          29.4050   36.9425   25.1925 N.am      2 SEC2        0.0000 
     21 N          29.8940   36.6050   23.5690 N.am     10 SEL2        0.0000 
     22 N          28.9160   37.2800   26.8160 N.am      6 SEP2        0.0000 
     23 N          28.3385   36.7960   25.4920 N.am      2 SEC2        0.0000 
     24 N          27.7610   36.3120   24.1680 N.am     10 SEL2        0.0000 
     25 N          26.5485   35.8155   23.8700 N.am      2 SEC2        0.0000 
     26 N          25.3360   35.3190   23.5720 N.am      6 SEP2        0.0000 
     27 CA         27.3320   41.7635   18.6175 C.3       4 GLC5        0.0000 
     28 CA         28.8360   40.3500   19.2600 C.3      12 GLL5        0.0000 
     29 CA         25.8280   43.1770   17.9750 C.3       8 GLP5        0.0000 
     30 CA         32.2035   41.2775   19.4465 C.3       4 GLC5        0.0000 
     31 CA         30.9450   41.2790   17.8920 C.3      12 GLL5        0.0000 
     32 O          31.7495   39.6475   15.0890 O.2       1 ALC1        0.0000 
     33 O          32.1240   40.7820   15.6450 O.2       9 ALL1        0.0000 
     34 O          31.3750   38.5130   14.5330 O.2       5 ALP1        0.0000 
     35 O          31.0170   39.4880   15.8900 O.2       1 ALC1        0.0000 
     36 O          29.9100   38.1940   16.1350 O.2       5 ALP1        0.0000 
     37 CA         28.1995   40.2230   16.5640 C.3       4 GLC5        0.0000 
     38 CA         29.7410   41.4810   15.8970 C.3      12 GLL5        0.0000 
     39 CA         26.6580   38.9650   17.2310 C.3       8 GLP5        0.0000 
     40 CA         27.3215   42.8045   10.2345 C.3       4 GLC5        0.0000 
     41 CA         27.3550   43.4750   12.1350 C.3      12 GLL5        0.0000 
     42 CA         27.2880   42.1340    8.3340 C.3       8 GLP5        0.0000 
     43 O          26.9760   45.8080   12.4870 O.2       1 ALC1        0.0000 
     44 O          27.0750   44.6050   11.5090 O.2       9 ALL1        0.0000 
     45 O          26.8770   47.0110   13.4650 O.2       5 ALP1        0.0000 
     46 N          26.0310   42.0515   10.5750 N.am      2 SEC2        0.0000 
     47 N          26.9260   42.2810   11.7320 N.am     10 SEL2        0.0000 
     48 N          25.1360   41.8220    9.4180 N.am      6 SEP2        0.0000 
     49 CA         25.2480   40.8795   13.4045 C.3       4 GLC5        0.0000 
     50 CA         27.1940   41.1000   12.3500 C.3      12 GLL5        0.0000 
     51 CA         23.3020   40.6590   14.4590 C.3       8 GLP5        0.0000 
     52 CA         28.0470   39.4230   12.6300 C.3       4 GLC5        0.0000 
     53 CA         28.9000   37.7460   12.9100 C.3       8 GLP5        0.0000 
     54 CA         28.7530   41.6125   11.4365 C.3       4 GLC5        0.0000 
     55 CA         30.3120   42.1250   10.5230 C.3       8 GLP5        0.0000 
     56 CA         27.2410   41.6170   10.3420 C.3       4 GLC5        0.0000 
     57 CA         25.2720   41.2250   11.6750 C.3       4 GLC5        0.0000 
     58 CA         23.3500   41.3500   11.0000 C.3       8 GLP5        0.0000 
     59 N          29.1810   40.2150   12.6805 N.am      2 SEC2        0.0000 
     60 N          27.9560   41.0200   13.4320 N.am     10 SEL2        0.0000 
     61 N          30.4060   39.4100   11.9290 N.am      6 SEP2        0.0000 
     62 CA         30.1355   42.0120   13.1860 C.3       4 GLC5        0.0000 
     63 CA         28.4050   42.2160   13.8800 C.3      12 GLL5        0.0000 
     64 CA         31.8660   41.8080   12.4920 C.3       8 GLP5        0.0000 
     65 CA         26.2600   39.7000   21.7892 C.3       4 GLC5        0.0000 
     66 CA         24.3760   40.2060   21.6580 C.3       8 GLP5        0.0000 
     67 CA         30.5602   38.9040   20.0160 C.3       4 GLC5        0.0000 
     68 CA         27.9237   39.7272   17.9127 C.3       4 GLC5        0.0000 
     69 CA         31.0245   39.2120   18.9652 C.3       4 GLC5        0.0000 
     70 CA         29.5430   40.6290   17.9290 C.3      12 GLL5        0.0000 
     71 CA         31.1620   41.6470   14.3095 C.3       4 GLC5        0.0000 
     72 CA         31.1750   41.4910   16.3570 C.3      12 GLL5        0.0000 
     73 CA         29.0493   42.7880   11.6283 C.3       4 GLC5        0.0000 
     74 CA         28.2180   43.4270   13.3320 C.3      12 GLL5        0.0000 
     75 CA         26.8738   42.7943   15.0870 C.3       4 GLC5        0.0000 
     76 CA         25.4360   42.7670   16.5680 C.3       8 GLP5        0.0000 
@<TRIPOS>BOND
@<TRIPOS>SUBSTRUCTURE
     1 ALC1        4 GROUP        1 X    ALC  0     ROOT ALC X 1
     2 SEC2       20 GROUP        1 X    SEC  0     **** SEC X 2
     3 ASC3        1 GROUP        1 X    ASC  0     **** ASC X 3
     4 GLC5        9 GROUP        1 X    GLC  0     **** GLC X 6
     5 ALP1        6 GROUP        1 Y    ALP  0     ROOT ALP Y 8
     6 SEP2       22 GROUP        1 Y    SEP  0     **** SEP Y 9
     7 ASP3        3 GROUP        1 Y    ASP  0     **** ASP Y 10
     8 GLP5       11 GROUP        1 Y    GLP  0     **** GLP Y 13
     9 ALL1        5 GROUP        1 Z    ALL  0     ROOT ALL Z 15
    10 SEL2       21 GROUP        1 Z    SEL  0     **** SEL Z 16
    11 ASL3        2 GROUP        1 Z    ASL  0     **** ASL Z 17
    12 GLL5       10 GROUP        1 Z    GLL  0     **** GLL Z 20
@<TRIPOS>SET

