#    Name: 1sui_SAH_1_ligand
#    Modification time : Tue Mar 25 02:44:35 2014

@<TRIPOS>MOLECULE
1sui_SAH_1_ligand
   46    48     1     0     0
SMALL
NO_CHARGES


@<TRIPOS>ATOM
      1 N          27.1050   36.1250   21.5610 N.4       1 SAH301      0.0000 
      2 CA         28.2170   37.0970   21.9050 C.3       1 SAH301      0.0000 
      3 CB         27.7410   38.5400   21.7880 C.3       1 SAH301      0.0000 
      4 CG         28.5470   39.8480   22.0530 C.3       1 SAH301      0.0000 
      5 SD         29.7950   40.3260   20.7640 S.3       1 SAH301      0.0000 
      6 C          28.6540   36.6460   23.3400 C.2       1 SAH301      0.0000 
      7 O          29.8940   36.6050   23.5690 O.co2     1 SAH301      0.0000 
      8 OXT        27.7610   36.3120   24.1680 O.co2     1 SAH301      0.0000 
      9 C5'        28.8360   40.3500   19.2600 C.3       1 SAH301      0.0000 
     10 C4'        29.5430   40.6290   17.9290 C.3       1 SAH301      0.0000 
     11 O4'        28.8250   41.4850   17.0410 O.3       1 SAH301      0.0000 
     12 C3'        30.9450   41.2790   17.8920 C.3       1 SAH301      0.0000 
     13 O3'        31.8370   40.3230   18.4470 O.3       1 SAH301      0.0000 
     14 C2'        31.1750   41.4910   16.3570 C.3       1 SAH301      0.0000 
     15 O2'        32.1240   40.7820   15.6450 O.3       1 SAH301      0.0000 
     16 C1'        29.7410   41.4810   15.8970 C.3       1 SAH301      0.0000 
     17 N9         29.2240   42.4900   14.9630 N.pl3     1 SAH301      0.0000 
     18 C8         29.4420   43.8390   15.0180 C.2       1 SAH301      0.0000 
     19 N7         28.8440   44.4300   14.0580 N.2       1 SAH301      0.0000 
     20 C5         28.2180   43.4270   13.3320 C.ar      1 SAH301      0.0000 
     21 C6         27.3550   43.4750   12.1350 C.ar      1 SAH301      0.0000 
     22 N6         27.0750   44.6050   11.5090 N.pl3     1 SAH301      0.0000 
     23 N1         26.9260   42.2810   11.7320 N.ar      1 SAH301      0.0000 
     24 C2         27.1940   41.1000   12.3500 C.ar      1 SAH301      0.0000 
     25 N3         27.9560   41.0200   13.4320 N.ar      1 SAH301      0.0000 
     26 C4         28.4050   42.2160   13.8800 C.ar      1 SAH301      0.0000 
     27 H          29.0387   36.9044   21.2418 H         1 SAH301      0.0000 
     28 H          26.7626   38.6330   22.4214 H         1 SAH301      0.0000 
     29 H          27.2714   38.6633   20.7243 H         1 SAH301      0.0000 
     30 H          29.1615   39.7953   22.9431 H         1 SAH301      0.0000 
     31 H          27.9222   40.7317   22.0905 H         1 SAH301      0.0000 
     32 H          28.0556   41.0981   19.4829 H         1 SAH301      0.0000 
     33 H          28.3431   39.3624   19.2718 H         1 SAH301      0.0000 
     34 H          29.6718   39.6496   17.3827 H         1 SAH301      0.0000 
     35 H          30.8989   42.1907   18.3657 H         1 SAH301      0.0000 
     36 H          31.4130   42.6387   16.3354 H         1 SAH301      0.0000 
     37 H          29.5624   40.4624   15.4041 H         1 SAH301      0.0000 
     38 H          29.9971   44.2518   15.7278 H         1 SAH301      0.0000 
     39 H          27.0561   45.4289   12.0755 H         1 SAH301      0.0000 
     40 H          26.9075   44.5334   10.5258 H         1 SAH301      0.0000 
     41 H          26.7708   40.2176   11.9400 H         1 SAH301      0.0000 
     42 H          26.3181   36.2306   22.1690 H         1 SAH301      0.0000 
     43 H          26.7732   36.2558   20.6268 H         1 SAH301      0.0000 
     44 H          27.4067   35.1745   21.6345 H         1 SAH301      0.0000 
     45 H          32.5683   40.2289   17.7715 H         1 SAH301      0.0000 
     46 H          31.6333   39.9936   15.2740 H         1 SAH301      0.0000 
@<TRIPOS>BOND
     1    2    1 1    
     2   42    1 1    
     3   43    1 1    
     4   44    1 1    
     5    3    2 1    
     6    6    2 1    
     7   27    2 1    
     8    4    3 1    
     9   28    3 1    
    10   29    3 1    
    11    5    4 1    
    12   30    4 1    
    13   31    4 1    
    14    9    5 1    
    15    7    6 ar   
    16    8    6 ar   
    17   10    9 1    
    18   32    9 1    
    19   33    9 1    
    20   11   10 1    
    21   12   10 1    
    22   34   10 1    
    23   16   11 1    
    24   13   12 1    
    25   14   12 1    
    26   35   12 1    
    27   45   13 1    
    28   15   14 1    
    29   16   14 1    
    30   36   14 1    
    31   46   15 1    
    32   17   16 1    
    33   37   16 1    
    34   18   17 1    
    35   26   17 1    
    36   19   18 2    
    37   38   18 1    
    38   20   19 1    
    39   21   20 ar   
    40   26   20 ar   
    41   22   21 1    
    42   23   21 ar   
    43   39   22 1    
    44   40   22 1    
    45   24   23 ar   
    46   25   24 ar   
    47   41   24 1    
    48   26   25 ar   
@<TRIPOS>SUBSTRUCTURE
     1 SAH301      1 GROUP   
@<TRIPOS>SET

