#    Name: 3cjq_SAH_1_INTS_M
#    Modification time : Mon Mar 24 21:43:54 2014

@<TRIPOS>MOLECULE
3cjq_SAH_1_INTS_M
   73     0     9     0     0
SMALL
NO_CHARGES


@<TRIPOS>ATOM
      1 O           0.8395   -6.6205  -34.1360 O.2       1 ALC1        0.0000 
      2 O           1.3530   -5.3390  -33.6860 O.2       7 ALL1        0.0000 
      3 O           0.3260   -7.9020  -34.5860 O.2       4 ALP1        0.0000 
      4 O          -0.2920   -5.0555  -34.0860 O.2       1 ALC1        0.0000 
      5 O          -1.9370   -4.7720  -34.4860 O.2       4 ALP1        0.0000 
      6 O           0.7505   -4.3215  -34.4020 O.2       1 ALC1        0.0000 
      7 O           0.1480   -3.3040  -35.1180 O.2       4 ALP1        0.0000 
      8 CA          0.7080   -2.8025  -32.4715 C.3       3 GLC5        0.0000 
      9 CA          1.0000   -4.9650  -32.3040 C.3       9 GLL5        0.0000 
     10 CA          0.4160   -0.6400  -32.6390 C.3       6 GLP5        0.0000 
     11 CA         -1.3975   -6.3760  -32.1600 C.3       3 GLC5        0.0000 
     12 CA          0.5540   -6.1960  -31.5030 C.3       9 GLL5        0.0000 
     13 CA         -3.3490   -6.5560  -32.8170 C.3       6 GLP5        0.0000 
     14 CA          3.4615   -6.9890  -32.0675 C.3       3 GLC5        0.0000 
     15 CA          1.6190   -7.2950  -31.3940 C.3       9 GLL5        0.0000 
     16 CA          5.3040   -6.6830  -32.7410 C.3       6 GLP5        0.0000 
     17 CA          1.0920   -7.4110  -28.9875 C.3       3 GLC5        0.0000 
     18 CA          1.0330   -8.6160  -30.3010 C.3       9 GLL5        0.0000 
     19 CA          1.1510   -6.2060  -27.6740 C.3       6 GLP5        0.0000 
     20 CA          0.2740   -9.7100  -28.6450 C.3       3 GLC5        0.0000 
     21 CA         -0.4850  -10.8040  -26.9890 C.3       6 GLP5        0.0000 
     22 N           4.1995   -4.8945  -31.5000 N.am      2 SEC2        0.0000 
     23 N           3.2670   -4.2720  -32.3670 N.am      8 SEL2        0.0000 
     24 N           5.1320   -5.5170  -30.6330 N.am      5 SEP2        0.0000 
     25 N           3.0660   -3.3265  -29.6890 N.am      2 SEC2        0.0000 
     26 N           2.2740   -3.8840  -30.4960 N.am      8 SEL2        0.0000 
     27 N           3.8580   -2.7690  -28.8820 N.am      5 SEP2        0.0000 
     28 N           3.7030   -4.7005  -30.5645 N.am      2 SEC2        0.0000 
     29 CA         -0.0125  -10.0330  -34.0190 C.3       3 GLC5        0.0000 
     30 CA         -0.1020  -10.2140  -32.0890 C.3       9 GLL5        0.0000 
     31 CA          0.0770   -9.8520  -35.9490 C.3       6 GLP5        0.0000 
     32 O          -2.7520   -9.9150  -32.8520 O.2       1 ALC1        0.0000 
     33 O          -2.3870   -9.9510  -31.4170 O.2       7 ALL1        0.0000 
     34 O          -3.1170   -9.8790  -34.2870 O.2       4 ALP1        0.0000 
     35 O          -3.5790  -12.1605  -32.9200 O.2       1 ALC1        0.0000 
     36 O          -2.9180  -12.5230  -31.8940 O.2       7 ALL1        0.0000 
     37 O          -4.2400  -11.7980  -33.9460 O.2       4 ALP1        0.0000 
     38 CA         -0.4905  -10.9615  -34.5670 C.3       3 GLC5        0.0000 
     39 CA         -1.0580  -12.0710  -33.1850 C.3       9 GLL5        0.0000 
     40 CA          1.1065  -12.0625  -33.7990 C.3       3 GLC5        0.0000 
     41 CA          3.2710  -12.0540  -34.4130 C.3       6 GLP5        0.0000 
     42 CA         -1.4145  -16.2660  -36.4690 C.3       3 GLC5        0.0000 
     43 CA          0.3070  -15.7300  -36.1280 C.3       9 GLL5        0.0000 
     44 CA         -3.1360  -16.8020  -36.8100 C.3       6 GLP5        0.0000 
     45 CA         -0.3195  -16.0940  -38.2415 C.3       3 GLC5        0.0000 
     46 CA         -0.9460  -16.4580  -40.3550 C.3       6 GLP5        0.0000 
     47 N           0.0660  -15.5820  -38.4845 N.am      2 SEC2        0.0000 
     48 N          -0.1080  -15.1230  -37.2580 N.am      8 SEL2        0.0000 
     49 N           0.2400  -16.0410  -39.7110 N.am      5 SEP2        0.0000 
     50 CA          0.5235  -13.3150  -38.7030 C.3       3 GLC5        0.0000 
     51 CA         -0.6730  -13.8840  -37.2500 C.3       9 GLL5        0.0000 
     52 CA          1.7200  -12.7460  -40.1560 C.3       6 GLP5        0.0000 
     53 CA         -0.2980  -11.8680  -36.5995 C.3       3 GLC5        0.0000 
     54 CA         -2.3600  -12.7170  -37.1430 C.3       3 GLC5        0.0000 
     55 CA         -4.0470  -11.5500  -37.0360 C.3       6 GLP5        0.0000 
     56 CA         -1.9045  -15.3430  -37.0300 C.3       3 GLC5        0.0000 
     57 CA         -0.8095  -15.1710  -38.8025 C.3       3 GLC5        0.0000 
     58 CA         -0.1920  -11.8250  -35.4270 C.3       3 GLC5        0.0000 
     59 CA         -0.4610  -13.7980  -34.9050 C.3       9 GLL5        0.0000 
     60 CA          0.1420   -4.1547  -30.5557 C.3       3 GLC5        0.0000 
     61 CA         -0.4930   -2.7290  -29.2080 C.3       6 GLP5        0.0000 
     62 CA          1.1187   -6.4758  -29.5613 C.3       3 GLC5        0.0000 
     63 CA          1.9210  -11.0958  -33.0682 C.3       3 GLC5        0.0000 
     64 CA          1.2440  -10.0610  -31.3580 C.3       9 GLL5        0.0000 
     65 CA         -1.4670  -11.5585  -29.5523 C.3       3 GLC5        0.0000 
     66 CA         -1.2330  -10.7770  -31.2430 C.3       9 GLL5        0.0000 
     67 CA         -1.5550  -11.6370  -27.5940 C.3       6 GLP5        0.0000 
     68 CA         -1.7335  -15.1510  -34.7520 C.3       3 GLC5        0.0000 
     69 CA         -3.3130  -15.8710  -34.6060 C.3       6 GLP5        0.0000 
     70 CA          1.5585  -13.2425  -34.6555 C.3       3 GLC5        0.0000 
     71 CA          2.0965  -15.8465  -34.9177 C.3       3 GLC5        0.0000 
     72 CA          0.1530  -15.0640  -34.8910 C.3       9 GLL5        0.0000 
     73 CA          3.9630  -16.2960  -34.3260 C.3       6 GLP5        0.0000 
@<TRIPOS>BOND
@<TRIPOS>SUBSTRUCTURE
     1 ALC1        1 GROUP        1 X    ALC  0     ROOT ALC X 1
     2 SEC2       22 GROUP        1 X    SEC  0     **** SEC X 2
     3 GLC5        8 GROUP        1 X    GLC  0     **** GLC X 6
     4 ALP1        3 GROUP        1 Y    ALP  0     ROOT ALP Y 8
     5 SEP2       24 GROUP        1 Y    SEP  0     **** SEP Y 9
     6 GLP5       10 GROUP        1 Y    GLP  0     **** GLP Y 13
     7 ALL1        2 GROUP        1 Z    ALL  0     ROOT ALL Z 15
     8 SEL2       23 GROUP        1 Z    SEL  0     **** SEL Z 16
     9 GLL5        9 GROUP        1 Z    GLL  0     **** GLL Z 20
@<TRIPOS>SET

