#    Name: 3cjq_SAH_1_ligand
#    Modification time : Mon Mar 24 21:43:54 2014

@<TRIPOS>MOLECULE
3cjq_SAH_1_ligand
   45    47     1     0     0
SMALL
NO_CHARGES


@<TRIPOS>ATOM
      1 N           1.3530   -5.3390  -33.6860 N.4       1 SAH303      0.0000 
      2 CA          1.0000   -4.9650  -32.3040 C.3       1 SAH303      0.0000 
      3 CB          0.5540   -6.1960  -31.5030 C.3       1 SAH303      0.0000 
      4 CG          1.6190   -7.2950  -31.3940 C.3       1 SAH303      0.0000 
      5 SD          1.0330   -8.6160  -30.3010 S.3       1 SAH303      0.0000 
      6 C           2.2490   -4.3480  -31.6660 C.2       1 SAH303      0.0000 
      7 O           3.2670   -4.2720  -32.3670 O.co2     1 SAH303      0.0000 
      8 OXT         2.2740   -3.8840  -30.4960 O.co2     1 SAH303      0.0000 
      9 C5'         1.2440  -10.0610  -31.3580 C.3       1 SAH303      0.0000 
     10 C4'        -0.1020  -10.2140  -32.0890 C.3       1 SAH303      0.0000 
     11 O4'         0.0600  -11.2380  -33.0540 O.3       1 SAH303      0.0000 
     12 C3'        -1.2330  -10.7770  -31.2430 C.3       1 SAH303      0.0000 
     13 O3'        -2.3870   -9.9510  -31.4170 O.3       1 SAH303      0.0000 
     14 C2'        -1.5250  -12.1830  -31.7780 C.3       1 SAH303      0.0000 
     15 O2'        -2.9180  -12.5230  -31.8940 O.3       1 SAH303      0.0000 
     16 C1'        -1.0580  -12.0710  -33.1850 C.3       1 SAH303      0.0000 
     17 N9         -0.5440  -13.3620  -33.6030 N.pl3     1 SAH303      0.0000 
     18 C8          0.0450  -14.3640  -32.8210 C.2       1 SAH303      0.0000 
     19 N7          0.4530  -15.3920  -33.6060 N.2       1 SAH303      0.0000 
     20 C5          0.1530  -15.0640  -34.8910 C.ar      1 SAH303      0.0000 
     21 C6          0.3070  -15.7300  -36.1280 C.ar      1 SAH303      0.0000 
     22 N6          0.8500  -16.9340  -36.3130 N.pl3     1 SAH303      0.0000 
     23 N1         -0.1080  -15.1230  -37.2580 N.ar      1 SAH303      0.0000 
     24 C2         -0.6730  -13.8840  -37.2500 C.ar      1 SAH303      0.0000 
     25 N3         -0.8470  -13.2210  -36.0810 N.ar      1 SAH303      0.0000 
     26 C4         -0.4610  -13.7980  -34.9050 C.ar      1 SAH303      0.0000 
     27 H           0.2210   -4.2366  -32.2989 H         1 SAH303      0.0000 
     28 H          -0.3477   -6.6194  -31.9741 H         1 SAH303      0.0000 
     29 H           0.2678   -5.8755  -30.4883 H         1 SAH303      0.0000 
     30 H           2.5088   -6.9762  -30.9144 H         1 SAH303      0.0000 
     31 H           1.7921   -7.8087  -32.3048 H         1 SAH303      0.0000 
     32 H           1.4343  -10.8222  -30.6769 H         1 SAH303      0.0000 
     33 H           2.0252   -9.7805  -31.9830 H         1 SAH303      0.0000 
     34 H          -0.3963   -9.3134  -32.5324 H         1 SAH303      0.0000 
     35 H          -0.9179  -10.8464  -30.2415 H         1 SAH303      0.0000 
     36 H          -0.9448  -12.8874  -31.2843 H         1 SAH303      0.0000 
     37 H          -1.7852  -11.6970  -33.7927 H         1 SAH303      0.0000 
     38 H           0.1359  -14.3074  -31.8607 H         1 SAH303      0.0000 
     39 H          -0.9712  -13.4473  -38.1462 H         1 SAH303      0.0000 
     40 H           1.2364   -6.3191  -33.8468 H         1 SAH303      0.0000 
     41 H           0.7845   -4.8623  -34.3565 H         1 SAH303      0.0000 
     42 H           2.3048   -5.1183  -33.8988 H         1 SAH303      0.0000 
     43 H          -2.5958  -10.0007  -32.3937 H         1 SAH303      0.0000 
     44 H          -3.0879  -12.5857  -32.8775 H         1 SAH303      0.0000 
     45 H           0.5649  -17.4711  -35.5191 H         1 SAH303      0.0000 
@<TRIPOS>BOND
     1    2    1 1    
     2   40    1 1    
     3   41    1 1    
     4   42    1 1    
     5    3    2 1    
     6    6    2 1    
     7   27    2 1    
     8    4    3 1    
     9   28    3 1    
    10   29    3 1    
    11    5    4 1    
    12   30    4 1    
    13   31    4 1    
    14    9    5 1    
    15    7    6 ar   
    16    8    6 ar   
    17   10    9 1    
    18   32    9 1    
    19   33    9 1    
    20   11   10 1    
    21   12   10 1    
    22   34   10 1    
    23   16   11 1    
    24   13   12 1    
    25   14   12 1    
    26   35   12 1    
    27   43   13 1    
    28   15   14 1    
    29   16   14 1    
    30   36   14 1    
    31   44   15 1    
    32   17   16 1    
    33   37   16 1    
    34   18   17 1    
    35   26   17 1    
    36   19   18 2    
    37   38   18 1    
    38   20   19 1    
    39   21   20 ar   
    40   26   20 ar   
    41   22   21 1    
    42   23   21 ar   
    43   45   22 1    
    44   24   23 ar   
    45   25   24 ar   
    46   39   24 1    
    47   26   25 ar   
@<TRIPOS>SUBSTRUCTURE
     1 SAH303      1 GROUP   
@<TRIPOS>SET

