#    Name: 4bva_T3_2_INTS_M
#    Modification time : Tue Mar 25 08:28:28 2014

@<TRIPOS>MOLECULE
4bva_T3_2_INTS_M
   61     0    12     0     0
SMALL
NO_CHARGES


@<TRIPOS>ATOM
      1 CA         29.9925   -6.2765   10.4385 C.3       4 GLC5        0.0000 
      2 CA         28.5550   -6.1500   12.1110 C.3      12 GLL5        0.0000 
      3 CA         31.4300   -6.4030    8.7660 C.3       8 GLP5        0.0000 
      4 CA         20.1345   -5.1275   12.9025 C.3       4 GLC5        0.0000 
      5 CA         21.6840   -6.0870   11.8860 C.3      12 GLL5        0.0000 
      6 CA         18.5850   -4.1680   13.9190 C.3       8 GLP5        0.0000 
      7 CA         23.8435  -10.4290   11.7135 C.3       4 GLC5        0.0000 
      8 CA         24.5950   -9.6470   10.2280 C.3      12 GLL5        0.0000 
      9 CA         23.0920  -11.2110   13.1990 C.3       8 GLP5        0.0000 
     10 CA         26.4415   -9.8960   10.2785 C.3       4 GLC5        0.0000 
     11 CA         28.2880  -10.1450   10.3290 C.3       8 GLP5        0.0000 
     12 CA         25.0115  -10.9840    9.0880 C.3       4 GLC5        0.0000 
     13 CA         25.4280  -12.3210    7.9480 C.3       8 GLP5        0.0000 
     14 CA         26.4790   -2.2470   11.0290 C.3       4 GLC5        0.0000 
     15 CA         27.5460   -3.8850   10.3430 C.3      12 GLL5        0.0000 
     16 CA         25.4120   -0.6090   11.7150 C.3       8 GLP5        0.0000 
     17 CA         27.5485   -3.3625   12.3355 C.3       4 GLC5        0.0000 
     18 CA         27.5510   -2.8400   14.3280 C.3       8 GLP5        0.0000 
     19 CA         28.3010   -2.4965    9.3640 C.3       4 GLC5        0.0000 
     20 CA         29.0560   -1.1080    8.3850 C.3       8 GLP5        0.0000 
     21 CA         24.3910   -6.6240   15.5280 C.3       4 GLC5        0.0000 
     22 CA         23.3000   -5.3390   14.3840 C.3      12 GLL5        0.0000 
     23 CA         25.4820   -7.9090   16.6720 C.3       8 GLP5        0.0000 
     24 CA         23.3925   -3.6110   15.3640 C.3       4 GLC5        0.0000 
     25 CA         23.4850   -1.8830   16.3440 C.3       8 GLP5        0.0000 
     26 CA         21.7650   -3.8410   14.3435 C.3       4 GLC5        0.0000 
     27 CA         20.2300   -2.3430   14.3030 C.3       8 GLP5        0.0000 
     28 CA         22.4175   -7.3660   14.1825 C.3       4 GLC5        0.0000 
     29 CA         21.5350   -9.3930   13.9810 C.3       8 GLP5        0.0000 
     30 O          22.6440   -6.4765    7.6750 O.2       1 ALC1        0.0000 
     31 O          21.5460   -5.5550    8.1200 O.2       9 ALL1        0.0000 
     32 O          23.7420   -7.3980    7.2300 O.2       5 ALP1        0.0000 
     33 O          21.2345   -6.8820    7.5300 O.2       1 ALC1        0.0000 
     34 O          20.9230   -8.2090    6.9400 O.2       5 ALP1        0.0000 
     35 NZ         21.6430   -2.3900    9.7895 N.4       3 LYC4        0.0000 
     36 NZ         21.1090   -3.2070    9.2160 N.4      11 LYL4        0.0000 
     37 NZ         23.4830   -1.3980   10.3930 N.4       7 LYP4        0.0000 
     38 N          21.6430   -2.3900    9.7895 N.am      2 SEC2        0.0000 
     39 N          21.1090   -3.2070    9.2160 N.am     10 SEL2        0.0000 
     40 N          22.1770   -1.5730   10.3630 N.am      6 SEP2        0.0000 
     41 CA         21.6642   -8.3422   12.2335 C.3       4 GLC5        0.0000 
     42 CA         21.3760   -6.7830   10.7110 C.3      12 GLL5        0.0000 
     43 CA         26.0355   -7.7092   14.7625 C.3       4 GLC5        0.0000 
     44 CA         26.0270   -7.2160   12.5680 C.3      12 GLL5        0.0000 
     45 CA         27.3678   -7.7178   10.9650 C.3       4 GLC5        0.0000 
     46 CA         28.6390   -8.7810    9.7610 C.3       8 GLP5        0.0000 
     47 CA         22.5272   -8.5790   12.7643 C.3       4 GLC5        0.0000 
     48 CA         23.6730   -7.4170   12.1300 C.3      12 GLL5        0.0000 
     49 CA         28.3155   -7.3205   10.7952 C.3       4 GLC5        0.0000 
     50 CA         27.4290   -5.5700   11.5480 C.3      12 GLL5        0.0000 
     51 CA         27.6136   -4.4154   13.1065 C.3       4 GLC5        0.0000 
     52 CA         21.8997   -7.8160   13.1135 C.3       4 GLC5        0.0000 
     53 CA         22.8450   -6.3910   12.6060 C.3      12 GLL5        0.0000 
     54 CA         27.8012   -6.1437   14.4648 C.3       4 GLC5        0.0000 
     55 CA         27.1510   -7.8030   13.1380 C.3      12 GLL5        0.0000 
     56 CA         27.8190   -4.7470   15.9060 C.3       8 GLP5        0.0000 
     57 CA         28.2112   -8.1608   11.3923 C.3       4 GLC5        0.0000 
     58 CA         28.4160   -7.2780   12.9090 C.3      12 GLL5        0.0000 
     59 CA         19.1110   -5.9335    7.8163 C.3       4 GLC5        0.0000 
     60 CA         20.1210   -6.4830    9.9200 C.3      12 GLL5        0.0000 
     61 CA         18.0110   -5.9250    6.2460 C.3       8 GLP5        0.0000 
@<TRIPOS>BOND
@<TRIPOS>SUBSTRUCTURE
     1 ALC1       30 GROUP        1 X    ALC  0     ROOT ALC X 1
     2 SEC2       38 GROUP        1 X    SEC  0     **** SEC X 2
     3 LYC4       35 GROUP        1 X    LYC  0     **** LYC X 4
     4 GLC5        1 GROUP        1 X    GLC  0     **** GLC X 6
     5 ALP1       32 GROUP        1 Y    ALP  0     ROOT ALP Y 8
     6 SEP2       40 GROUP        1 Y    SEP  0     **** SEP Y 9
     7 LYP4       37 GROUP        1 Y    LYP  0     **** LYP Y 11
     8 GLP5        3 GROUP        1 Y    GLP  0     **** GLP Y 13
     9 ALL1       31 GROUP        1 Z    ALL  0     ROOT ALL Z 15
    10 SEL2       39 GROUP        1 Z    SEL  0     **** SEL Z 16
    11 LYL4       36 GROUP        1 Z    LYL  0     **** LYL Z 18
    12 GLL5        2 GROUP        1 Z    GLL  0     **** GLL Z 20
@<TRIPOS>SET

