#    Name: 4bva_T3_2_ligand
#    Modification time : Tue Mar 25 08:28:28 2014

@<TRIPOS>MOLECULE
4bva_T3_2_ligand
   35    36     1     0     0
SMALL
NO_CHARGES


@<TRIPOS>ATOM
      1 C1         21.3760   -6.7830   10.7110 C.ar      1 T31314      0.0000 
      2 C2         26.0270   -7.2160   12.5680 C.ar      1 T31314      0.0000 
      3 C3         22.2110   -7.8000   10.2610 C.ar      1 T31314      0.0000 
      4 C4         26.1660   -6.0930   11.7700 C.ar      1 T31314      0.0000 
      5 C5         23.3660   -8.1130   10.9650 C.ar      1 T31314      0.0000 
      6 C6         27.4290   -5.5700   11.5480 C.ar      1 T31314      0.0000 
      7 C7         23.6730   -7.4170   12.1300 C.ar      1 T31314      0.0000 
      8 C8         28.5550   -6.1500   12.1110 C.ar      1 T31314      0.0000 
      9 C9         22.8450   -6.3910   12.6060 C.ar      1 T31314      0.0000 
     10 C10        28.4160   -7.2780   12.9090 C.ar      1 T31314      0.0000 
     11 C11        21.6840   -6.0870   11.8860 C.ar      1 T31314      0.0000 
     12 C12        27.1510   -7.8030   13.1380 C.ar      1 T31314      0.0000 
     13 C13        20.1210   -6.4830    9.9200 C.3       1 T31314      0.0000 
     14 C15        20.3010   -5.4010    8.8530 C.3       1 T31314      0.0000 
     15 C17        20.2220   -4.0440    9.4880 C.2       1 T31314      0.0000 
     16 I1         24.5950   -9.6470   10.2280 I         1 T31314      0.0000 
     17 I2         27.5460   -3.8850   10.3430 I         1 T31314      0.0000 
     18 I3         23.3000   -5.3390   14.3840 I         1 T31314      0.0000 
     19 N1         21.5460   -5.5550    8.1200 N.4       1 T31314      0.0000 
     20 O1         29.7860   -5.6280   11.9000 O.3       1 T31314      0.0000 
     21 O2         24.8000   -7.7540   12.8170 O.3       1 T31314      0.0000 
     22 O3         19.2610   -3.8090   10.2570 O.co2     1 T31314      0.0000 
     23 O4         21.1090   -3.2070    9.2160 O.co2     1 T31314      0.0000 
     24 H          21.9719   -8.3199    9.4061 H         1 T31314      0.0000 
     25 H          25.3417   -5.6526   11.3473 H         1 T31314      0.0000 
     26 H          29.2420   -7.7203   13.3264 H         1 T31314      0.0000 
     27 H          21.0532   -5.3479   12.2220 H         1 T31314      0.0000 
     28 H          27.0434   -8.6374   13.7373 H         1 T31314      0.0000 
     29 H          19.3211   -6.1663   10.6117 H         1 T31314      0.0000 
     30 H          19.7698   -7.4073    9.4290 H         1 T31314      0.0000 
     31 H          19.4514   -5.4907    8.1592 H         1 T31314      0.0000 
     32 H          21.4700   -5.2139    7.1830 H         1 T31314      0.0000 
     33 H          22.2964   -5.0560    8.5535 H         1 T31314      0.0000 
     34 H          21.8264   -6.5131    8.0613 H         1 T31314      0.0000 
     35 H          29.6869   -4.6497   12.0822 H         1 T31314      0.0000 
@<TRIPOS>BOND
     1    3    1 ar   
     2   11    1 ar   
     3   13    1 1    
     4    4    2 ar   
     5   12    2 ar   
     6   21    2 1    
     7    5    3 ar   
     8   24    3 1    
     9    6    4 ar   
    10   25    4 1    
    11    7    5 ar   
    12   16    5 1    
    13    8    6 ar   
    14   17    6 1    
    15    9    7 ar   
    16   21    7 1    
    17   10    8 ar   
    18   20    8 1    
    19   11    9 ar   
    20   18    9 1    
    21   12   10 ar   
    22   26   10 1    
    23   27   11 1    
    24   28   12 1    
    25   14   13 1    
    26   29   13 1    
    27   30   13 1    
    28   15   14 1    
    29   19   14 1    
    30   31   14 1    
    31   22   15 ar   
    32   23   15 ar   
    33   32   19 1    
    34   33   19 1    
    35   34   19 1    
    36   35   20 1    
@<TRIPOS>SUBSTRUCTURE
     1 T31314      1 GROUP   
@<TRIPOS>SET

