#    Name: 3r0t_FU9_1_INTS_M
#    Modification time : Tue Mar 25 10:27:00 2014

@<TRIPOS>MOLECULE
3r0t_FU9_1_INTS_M
   77     0    12     0     0
SMALL
NO_CHARGES


@<TRIPOS>ATOM
      1 N          23.3390  -29.1045    8.9405 N.am      2 SEC2        0.0000 
      2 N          23.4210  -29.4780   10.4200 N.am     10 SEL2        0.0000 
      3 N          23.2570  -28.7310    7.4610 N.am      6 SEP2        0.0000 
      4 CA         25.1025  -29.2150   11.3655 C.3       4 GLC5        0.0000 
      5 CA         23.4340  -28.4880   11.3390 C.3      12 GLL5        0.0000 
      6 CA         26.7710  -29.9420   11.3920 C.3       8 GLP5        0.0000 
      7 CA         25.0805  -27.6835   10.1730 C.3       4 GLC5        0.0000 
      8 CA         26.7270  -26.8790    9.0070 C.3       8 GLP5        0.0000 
      9 CA         21.6475  -28.5285   11.5290 C.3       4 GLC5        0.0000 
     10 CA         19.8610  -28.5690   11.7190 C.3       8 GLP5        0.0000 
     11 CA         24.3920  -30.1770    8.9685 C.3       4 GLC5        0.0000 
     12 CA         23.2870  -30.7440   10.7970 C.3      12 GLL5        0.0000 
     13 CA         25.4970  -29.6100    7.1400 C.3       8 GLP5        0.0000 
     14 CA         22.0320  -29.8230    9.1820 C.3       4 GLC5        0.0000 
     15 CA         20.7770  -28.9020    7.5670 C.3       8 GLP5        0.0000 
     16 NZ         22.8500  -37.6745   16.1255 N.4       3 LYC4        0.0000 
     17 NZ         22.4640  -36.5470   15.3420 N.4      11 LYL4        0.0000 
     18 NZ         23.2360  -38.8020   16.9090 N.4       7 LYP4        0.0000 
     19 N          22.8500  -37.6745   16.1255 N.am      2 SEC2        0.0000 
     20 N          22.4640  -36.5470   15.3420 N.am     10 SEL2        0.0000 
     21 N          23.2360  -38.8020   16.9090 N.am      6 SEP2        0.0000 
     22 N          20.6945  -37.2935   13.5335 N.am      2 SEC2        0.0000 
     23 N          22.0860  -37.2140   13.2680 N.am     10 SEL2        0.0000 
     24 N          19.3030  -37.3730   13.7990 N.am      6 SEP2        0.0000 
     25 CA         24.9325  -31.2715   22.0360 C.3       4 GLC5        0.0000 
     26 CA         24.1160  -31.1230   20.2890 C.3      12 GLL5        0.0000 
     27 CA         25.7490  -31.4200   23.7830 C.3       8 GLP5        0.0000 
     28 CA         21.0875  -33.7875   11.3590 C.3       4 GLC5        0.0000 
     29 CA         22.9680  -33.4330   11.7210 C.3      12 GLL5        0.0000 
     30 CA         19.2070  -34.1420   10.9970 C.3       8 GLP5        0.0000 
     31 O          22.7810  -26.8325    9.8995 O.2       1 ALC1        0.0000 
     32 O          23.5800  -27.2160   10.9800 O.2       9 ALL1        0.0000 
     33 O          21.9820  -26.4490    8.8190 O.2       5 ALP1        0.0000 
     34 CA         24.6515  -30.8705   18.2155 C.3       4 GLC5        0.0000 
     35 CA         22.8430  -29.9250   18.7710 C.3      12 GLL5        0.0000 
     36 CA         26.4600  -31.8160   17.6600 C.3       8 GLP5        0.0000 
     37 CA         24.7175  -30.8360   15.3160 C.3       4 GLC5        0.0000 
     38 CA         23.0930  -30.2470   14.4320 C.3      12 GLL5        0.0000 
     39 CA         26.3420  -31.4250   16.2000 C.3       8 GLP5        0.0000 
     40 CA         24.9940  -31.0875   13.6675 C.3       4 GLC5        0.0000 
     41 CA         26.8950  -31.9280   12.9030 C.3       8 GLP5        0.0000 
     42 CA         21.4780  -30.2975   13.0510 C.3       4 GLC5        0.0000 
     43 CA         19.8630  -30.3480   11.6700 C.3       8 GLP5        0.0000 
     44 CA         24.6080  -31.9965   15.0890 C.3       4 GLC5        0.0000 
     45 CA         22.8740  -32.5680   13.9780 C.3      12 GLL5        0.0000 
     46 CA         21.7295  -27.3830   11.8795 C.3       4 GLC5        0.0000 
     47 CA         23.5980  -26.1970   12.0400 C.3      12 GLL5        0.0000 
     48 CA         24.7095  -28.7147   14.2555 C.3       4 GLC5        0.0000 
     49 CA         26.2800  -27.3030   14.7590 C.3       8 GLP5        0.0000 
     50 CA         24.9988  -30.2884   11.5481 C.3       4 GLC5        0.0000 
     51 CA         23.1850  -30.0060   13.0720 C.3      12 GLL5        0.0000 
     52 CA         21.5448  -30.4914   11.6871 C.3       4 GLC5        0.0000 
     53 CA         24.4123  -32.4002   18.7460 C.3       4 GLC5        0.0000 
     54 CA         25.7100  -33.1150   17.9190 C.3       8 GLP5        0.0000 
     55 CA         24.1615  -28.2572   20.1755 C.3       4 GLC5        0.0000 
     56 CA         22.5940  -27.5560   18.4090 C.3      12 GLL5        0.0000 
     57 CA         25.6970  -28.4150   21.5120 C.3       8 GLP5        0.0000 
     58 CA         22.3080  -34.7440   10.1532 C.3       4 GLC5        0.0000 
     59 CA         21.7320  -35.4090    8.3450 C.3       8 GLP5        0.0000 
     60 CA         24.3150  -34.6940   10.7737 C.3       4 GLC5        0.0000 
     61 CA         22.8000  -34.7250   12.2020 C.3      12 GLL5        0.0000 
     62 CA         25.7460  -35.3090    9.5860 C.3       8 GLP5        0.0000 
     63 CA         20.8725  -34.9093   12.5765 C.3       4 GLC5        0.0000 
     64 CA         18.9910  -34.9810   12.2650 C.3       8 GLP5        0.0000 
     65 CA         24.6335  -30.5060   16.5817 C.3       4 GLC5        0.0000 
     66 CA         22.8770  -29.0440   16.5270 C.3      12 GLL5        0.0000 
     67 CA         25.2480  -26.5275   13.4053 C.3       4 GLC5        0.0000 
     68 CA         25.4715  -26.3155   10.5292 C.3       4 GLC5        0.0000 
     69 CA         24.8340  -25.3070   12.0630 C.3      12 GLL5        0.0000 
     70 CA         24.5776  -27.7291   17.1850 C.3       4 GLC5        0.0000 
     71 CA         26.3740  -27.1070   17.2420 C.3       8 GLP5        0.0000 
     72 CA         24.4380  -29.4670   20.4533 C.3       4 GLC5        0.0000 
     73 CA         24.9115  -32.3291   12.9872 C.3       4 GLC5        0.0000 
     74 CA         21.3955  -31.5391   12.3708 C.3       4 GLC5        0.0000 
     75 CA         22.9960  -32.3520   12.6090 C.3      12 GLL5        0.0000 
     76 CA         21.0162  -32.9432   13.7080 C.3       4 GLC5        0.0000 
     77 CA         19.1390  -33.1010   14.0050 C.3       8 GLP5        0.0000 
@<TRIPOS>BOND
@<TRIPOS>SUBSTRUCTURE
     1 ALC1       31 GROUP        1 X    ALC  0     ROOT ALC X 1
     2 SEC2        1 GROUP        1 X    SEC  0     **** SEC X 2
     3 LYC4       16 GROUP        1 X    LYC  0     **** LYC X 4
     4 GLC5        4 GROUP        1 X    GLC  0     **** GLC X 6
     5 ALP1       33 GROUP        1 Y    ALP  0     ROOT ALP Y 8
     6 SEP2        3 GROUP        1 Y    SEP  0     **** SEP Y 9
     7 LYP4       18 GROUP        1 Y    LYP  0     **** LYP Y 11
     8 GLP5        6 GROUP        1 Y    GLP  0     **** GLP Y 13
     9 ALL1       32 GROUP        1 Z    ALL  0     ROOT ALL Z 15
    10 SEL2        2 GROUP        1 Z    SEL  0     **** SEL Z 16
    11 LYL4       17 GROUP        1 Z    LYL  0     **** LYL Z 18
    12 GLL5        5 GROUP        1 Z    GLL  0     **** GLL Z 20
@<TRIPOS>SET

