#    Name: 3r0t_FU9_1_ligand
#    Modification time : Tue Mar 25 10:27:00 2014

@<TRIPOS>MOLECULE
3r0t_FU9_1_ligand
   47    51     1     0     0
SMALL
NO_CHARGES


@<TRIPOS>ATOM
      1 N1         23.4210  -29.4780   10.4200 N.ar      1 FU9338      0.0000 
      2 C2         23.4340  -28.4880   11.3390 C.ar      1 FU9338      0.0000 
      3 N3         23.3100  -28.7500   12.6490 N.ar      1 FU9338      0.0000 
      4 C4         23.1850  -30.0060   13.0720 C.ar      1 FU9338      0.0000 
      5 C5         23.1470  -31.0450   12.1510 C.ar      1 FU9338      0.0000 
      6 C6         23.2870  -30.7440   10.7970 C.ar      1 FU9338      0.0000 
      7 OAA        22.4640  -36.5470   15.3420 O.co2     1 FU9338      0.0000 
      8 OAB        22.0860  -37.2140   13.2680 O.co2     1 FU9338      0.0000 
      9 FAC        24.1160  -31.1230   20.2890 F         1 FU9338      0.0000 
     10 FAD        22.0090  -30.9500   20.6960 F         1 FU9338      0.0000 
     11 FAE        22.7140  -32.2580   19.1280 F         1 FU9338      0.0000 
     12 CAF        22.5940  -27.5560   18.4090 C.ar      1 FU9338      0.0000 
     13 CAG        22.7770  -27.7610   17.0490 C.ar      1 FU9338      0.0000 
     14 CAH        22.6580  -28.6430   19.2690 C.ar      1 FU9338      0.0000 
     15 CAI        22.8000  -34.7250   12.2020 C.ar      1 FU9338      0.0000 
     16 CAJ        22.9680  -33.4330   11.7210 C.ar      1 FU9338      0.0000 
     17 CAL        22.9730  -30.1300   17.4000 C.ar      1 FU9338      0.0000 
     18 CAM        22.7080  -33.8700   14.4480 C.ar      1 FU9338      0.0000 
     19 CAN        23.5000  -24.7620   11.5310 C.3       1 FU9338      0.0000 
     20 CAO        24.8340  -25.3070   12.0630 C.3       1 FU9338      0.0000 
     21 NAQ        22.8850  -31.5200   14.8490 N.ar      1 FU9338      0.0000 
     22 NAS        22.9850  -29.1540   15.1960 N.pl3     1 FU9338      0.0000 
     23 NAT        23.5800  -27.2160   10.9800 N.pl3     1 FU9338      0.0000 
     24 CAU        22.4860  -36.3650   14.1010 C.2       1 FU9338      0.0000 
     25 CAV        22.8770  -29.0440   16.5270 C.ar      1 FU9338      0.0000 
     26 CAW        22.7080  -34.9500   13.5740 C.ar      1 FU9338      0.0000 
     27 CAX        22.8430  -29.9250   18.7710 C.ar      1 FU9338      0.0000 
     28 CAZ        23.0930  -30.2470   14.4320 C.ar      1 FU9338      0.0000 
     29 CBA        22.8740  -32.5680   13.9780 C.ar      1 FU9338      0.0000 
     30 CBB        22.9960  -32.3520   12.6090 C.ar      1 FU9338      0.0000 
     31 CBE        23.5980  -26.1970   12.0400 C.3       1 FU9338      0.0000 
     32 CBF        22.9140  -31.1030   19.7470 C.3       1 FU9338      0.0000 
     33 H          23.2828  -31.5224   10.1150 H         1 FU9338      0.0000 
     34 H          22.4145  -26.6170   18.7725 H         1 FU9338      0.0000 
     35 H          22.8400  -26.9456   16.4133 H         1 FU9338      0.0000 
     36 H          22.5673  -28.4970   20.2873 H         1 FU9338      0.0000 
     37 H          22.7433  -35.5159   11.5481 H         1 FU9338      0.0000 
     38 H          23.0723  -33.2658   10.7123 H         1 FU9338      0.0000 
     39 H          23.1382  -31.0716   17.0316 H         1 FU9338      0.0000 
     40 H          22.5832  -34.0320   15.4620 H         1 FU9338      0.0000 
     41 H          23.5429  -24.7898   10.5884 H         1 FU9338      0.0000 
     42 H          23.1171  -24.2407   12.2185 H         1 FU9338      0.0000 
     43 H          24.9375  -24.9819   12.9437 H         1 FU9338      0.0000 
     44 H          25.3633  -25.5310   11.3136 H         1 FU9338      0.0000 
     45 H          22.9847  -28.1881   14.6419 H         1 FU9338      0.0000 
     46 H          23.6805  -26.8922   10.0253 H         1 FU9338      0.0000 
     47 H          23.2410  -26.2139   12.9058 H         1 FU9338      0.0000 
@<TRIPOS>BOND
     1    2    1 ar   
     2    6    1 ar   
     3    3    2 ar   
     4   23    2 1    
     5    4    3 ar   
     6    5    4 ar   
     7   28    4 ar   
     8    6    5 ar   
     9   30    5 ar   
    10   33    6 1    
    11   24    7 ar   
    12   24    8 ar   
    13   32    9 1    
    14   32   10 1    
    15   32   11 1    
    16   13   12 ar   
    17   14   12 ar   
    18   34   12 1    
    19   25   13 ar   
    20   35   13 1    
    21   27   14 ar   
    22   36   14 1    
    23   16   15 ar   
    24   26   15 ar   
    25   37   15 1    
    26   30   16 ar   
    27   38   16 1    
    28   25   17 ar   
    29   27   17 ar   
    30   39   17 1    
    31   26   18 ar   
    32   29   18 ar   
    33   40   18 1    
    34   20   19 1    
    35   31   19 1    
    36   41   19 1    
    37   42   19 1    
    38   31   20 1    
    39   43   20 1    
    40   44   20 1    
    41   28   21 ar   
    42   29   21 ar   
    43   25   22 1    
    44   28   22 1    
    45   45   22 1    
    46   31   23 1    
    47   46   23 1    
    48   26   24 1    
    49   32   27 1    
    50   30   29 ar   
    51   47   31 1    
@<TRIPOS>SUBSTRUCTURE
     1 FU9338      1 GROUP   
@<TRIPOS>SET

