#    Name: 3kh5_ADP_3_INTS_M
#    Modification time : Mon Mar 24 19:27:58 2014

@<TRIPOS>MOLECULE
3kh5_ADP_3_INTS_M
   64     0    12     0     0
SMALL
NO_CHARGES


@<TRIPOS>ATOM
      1 NZ         13.3825   16.9600   29.6755 N.4       3 LYC4        0.0000 
      2 NZ         13.8080   17.7180   28.5400 N.4      11 LYL4        0.0000 
      3 NZ         13.6550   15.2490   31.4210 N.4       7 LYP4        0.0000 
      4 N          13.3825   16.9600   29.6755 N.am      2 SEC2        0.0000 
      5 N          13.8080   17.7180   28.5400 N.am     10 SEL2        0.0000 
      6 N          12.9570   16.2020   30.8110 N.am      6 SEP2        0.0000 
      7 N          12.4670   17.2670   27.9095 N.am      2 SEC2        0.0000 
      8 N          11.1260   16.8160   27.2790 N.am      6 SEP2        0.0000 
      9 NZ         14.2785   17.0250   30.6055 N.4       3 LYC4        0.0000 
     10 NZ         15.6000   17.8480   30.4000 N.4      11 LYL4        0.0000 
     11 N          15.2885   16.6020   30.9565 N.am      2 SEC2        0.0000 
     12 N          15.6000   17.8480   30.4000 N.am     10 SEL2        0.0000 
     13 N          14.9770   15.3560   31.5130 N.am      6 SEP2        0.0000 
     14 N          14.2785   17.0250   30.6055 N.am      2 SEC2        0.0000 
     15 N          15.3035   18.6515   31.2350 N.am      2 SEC2        0.0000 
     16 N          15.0070   19.4550   32.0700 N.am      6 SEP2        0.0000 
     17 N          16.0560   14.0185   26.2525 N.am      2 SEC2        0.0000 
     18 N          15.4310   15.1220   26.5110 N.am     10 SEL2        0.0000 
     19 N          16.6810   12.9150   25.9940 N.am      6 SEP2        0.0000 
     20 N          17.0070   14.5075   26.3125 N.am      2 SEC2        0.0000 
     21 N          17.3330   16.1000   26.6310 N.am     10 SEL2        0.0000 
     22 CA         17.8535   15.9005   24.6665 C.3       4 GLC5        0.0000 
     23 CA         18.5170   16.8460   26.2080 C.3      12 GLL5        0.0000 
     24 CA         17.1900   14.9550   23.1250 C.3       8 GLP5        0.0000 
     25 CA         18.5660   14.8080   24.8130 C.3       4 GLC5        0.0000 
     26 CA         19.9420   14.6610   26.5010 C.3      12 GLL5        0.0000 
     27 O          21.3375   13.1745   25.5785 O.2       1 ALC1        0.0000 
     28 O          21.2840   14.3360   26.1150 O.2       9 ALL1        0.0000 
     29 O          21.3910   12.0130   25.0420 O.2       5 ALP1        0.0000 
     30 CA         17.9080   13.2555   28.1050 C.3       4 GLC5        0.0000 
     31 CA         19.6110   14.0940   27.8850 C.3      12 GLL5        0.0000 
     32 CA         16.2050   12.4170   28.3250 C.3       8 GLP5        0.0000 
     33 O          20.8155   12.4180   26.5800 O.2       1 ALC1        0.0000 
     34 O          20.2400   12.8230   28.1180 O.2       9 ALL1        0.0000 
     35 O          20.0050   11.9625   27.1690 O.2       1 ALC1        0.0000 
     36 O          19.7700   11.1020   26.2200 O.2       5 ALP1        0.0000 
     37 CA         20.4455   13.6070   34.7760 C.3       4 GLC5        0.0000 
     38 CA         19.7710   15.0990   33.6120 C.3      12 GLL5        0.0000 
     39 CA         21.1200   12.1150   35.9400 C.3       8 GLP5        0.0000 
     40 CA         20.6775   16.2230   35.0130 C.3       4 GLC5        0.0000 
     41 CA         21.5840   17.3470   36.4140 C.3       8 GLP5        0.0000 
     42 O          19.3765   15.1475   36.0535 O.2       1 ALC1        0.0000 
     43 O          18.9370   15.0980   34.6480 O.2       9 ALL1        0.0000 
     44 O          19.8160   15.1970   37.4590 O.2       5 ALP1        0.0000 
     45 O          17.4365   15.5525   34.6880 O.2       1 ALC1        0.0000 
     46 O          15.9360   16.0070   34.7280 O.2       5 ALP1        0.0000 
     47 N          21.7930   15.0620   35.0040 N.am      2 SEC2        0.0000 
     48 N          21.1010   15.0740   33.8070 N.am     10 SEL2        0.0000 
     49 N          22.4850   15.0500   36.2010 N.am      6 SEP2        0.0000 
     50 CA         21.1520   13.2665   32.3065 C.3       4 GLC5        0.0000 
     51 CA         21.9540   15.0740   32.7890 C.3      12 GLL5        0.0000 
     52 CA         20.3500   11.4590   31.8240 C.3       8 GLP5        0.0000 
     53 CA         22.7360   14.0025   34.1980 C.3       4 GLC5        0.0000 
     54 CA         23.5180   12.9310   35.6070 C.3       8 GLP5        0.0000 
     55 CA         22.3685   16.5450   34.2620 C.3       4 GLC5        0.0000 
     56 CA         22.7830   18.0160   35.7350 C.3       8 GLP5        0.0000 
     57 CA         20.6280   16.8730   32.7440 C.3       4 GLC5        0.0000 
     58 CA         19.3020   18.6720   32.6990 C.3       8 GLP5        0.0000 
     59 CA         21.7106   13.7304   27.9657 C.3       4 GLC5        0.0000 
     60 CA         23.4310   12.6930   27.9340 C.3       8 GLP5        0.0000 
     61 CA         20.1104   13.2881   31.9711 C.3       4 GLC5        0.0000 
     62 CA         19.2900   15.1240   32.3090 C.3      12 GLL5        0.0000 
     63 CA         19.5864   16.8946   32.4086 C.3       4 GLC5        0.0000 
     64 CA         20.2110   15.1230   31.2760 C.3      12 GLL5        0.0000 
@<TRIPOS>BOND
@<TRIPOS>SUBSTRUCTURE
     1 ALC1       27 GROUP        1 X    ALC  0     ROOT ALC X 1
     2 SEC2        4 GROUP        1 X    SEC  0     **** SEC X 2
     3 LYC4        1 GROUP        1 X    LYC  0     **** LYC X 4
     4 GLC5       22 GROUP        1 X    GLC  0     **** GLC X 6
     5 ALP1       29 GROUP        1 Y    ALP  0     ROOT ALP Y 8
     6 SEP2        6 GROUP        1 Y    SEP  0     **** SEP Y 9
     7 LYP4        3 GROUP        1 Y    LYP  0     **** LYP Y 11
     8 GLP5       24 GROUP        1 Y    GLP  0     **** GLP Y 13
     9 ALL1       28 GROUP        1 Z    ALL  0     ROOT ALL Z 15
    10 SEL2        5 GROUP        1 Z    SEL  0     **** SEL Z 16
    11 LYL4        2 GROUP        1 Z    LYL  0     **** LYL Z 18
    12 GLL5       23 GROUP        1 Z    GLL  0     **** GLL Z 20
@<TRIPOS>SET

