#    Name: 3kh5_ADP_3_ligand
#    Modification time : Mon Mar 24 19:27:58 2014

@<TRIPOS>MOLECULE
3kh5_ADP_3_ligand
   39    41     1     0     0
SMALL
NO_CHARGES


@<TRIPOS>ATOM
      1 PB         15.3480   18.1600   28.8320 P.3       1 ADP283      0.0000 
      2 O1B        15.5910   19.5790   28.4460 O.co2     1 ADP283      0.0000 
      3 O2B        13.8080   17.7180   28.5400 O.co2     1 ADP283      0.0000 
      4 O3B        15.6000   17.8480   30.4000 O.co2     1 ADP283      0.0000 
      5 PA         15.7970   16.7030   26.6650 P.3       1 ADP283      0.0000 
      6 O1A        16.1590   17.4130   25.4180 O.co2     1 ADP283      0.0000 
      7 O2A        15.4310   15.1220   26.5110 O.co2     1 ADP283      0.0000 
      8 O3A        16.3050   17.1320   28.1030 O.3       1 ADP283      0.0000 
      9 O5'        17.3330   16.1000   26.6310 O.3       1 ADP283      0.0000 
     10 C5'        18.5170   16.8460   26.2080 C.3       1 ADP283      0.0000 
     11 C4'        19.8390   16.1870   26.7110 C.3       1 ADP283      0.0000 
     12 O4'        19.9340   16.4240   28.1520 O.3       1 ADP283      0.0000 
     13 C3'        19.9420   14.6610   26.5010 C.3       1 ADP283      0.0000 
     14 O3'        21.2840   14.3360   26.1150 O.3       1 ADP283      0.0000 
     15 C2'        19.6110   14.0940   27.8850 C.3       1 ADP283      0.0000 
     16 O2'        20.2400   12.8230   28.1180 O.3       1 ADP283      0.0000 
     17 C1'        20.2040   15.1580   28.8020 C.3       1 ADP283      0.0000 
     18 N9         19.5400   15.1480   30.1390 N.pl3     1 ADP283      0.0000 
     19 C8         18.2340   15.1680   30.4320 C.2       1 ADP283      0.0000 
     20 N7         18.0790   15.1530   31.7620 N.2       1 ADP283      0.0000 
     21 C5         19.2900   15.1240   32.3090 C.ar      1 ADP283      0.0000 
     22 C6         19.7710   15.0990   33.6120 C.ar      1 ADP283      0.0000 
     23 N6         18.9370   15.0980   34.6480 N.pl3     1 ADP283      0.0000 
     24 N1         21.1010   15.0740   33.8070 N.ar      1 ADP283      0.0000 
     25 C2         21.9540   15.0740   32.7890 C.ar      1 ADP283      0.0000 
     26 N3         21.5270   15.0980   31.5360 N.ar      1 ADP283      0.0000 
     27 C4         20.2110   15.1230   31.2760 C.ar      1 ADP283      0.0000 
     28 H          18.4975   17.8747   26.5941 H         1 ADP283      0.0000 
     29 H          18.5785   16.9061   25.1124 H         1 ADP283      0.0000 
     30 H          20.6692   16.6635   26.2182 H         1 ADP283      0.0000 
     31 H          19.2081   14.3698   25.8199 H         1 ADP283      0.0000 
     32 H          18.5670   14.0953   28.0075 H         1 ADP283      0.0000 
     33 H          21.2453   14.9941   28.8931 H         1 ADP283      0.0000 
     34 H          17.5093   15.1900   29.7798 H         1 ADP283      0.0000 
     35 H          19.3588   15.0336   35.5524 H         1 ADP283      0.0000 
     36 H          17.9633   15.1617   34.4291 H         1 ADP283      0.0000 
     37 H          22.9935   15.0544   32.9848 H         1 ADP283      0.0000 
     38 H          21.3528   13.3447   26.2281 H         1 ADP283      0.0000 
     39 H          20.3883   12.4370   27.2075 H         1 ADP283      0.0000 
@<TRIPOS>BOND
     1    2    1 ar   
     2    3    1 ar   
     3    4    1 ar   
     4    8    1 1    
     5    6    5 ar   
     6    7    5 ar   
     7    8    5 1    
     8    9    5 1    
     9   10    9 1    
    10   11   10 1    
    11   28   10 1    
    12   29   10 1    
    13   12   11 1    
    14   13   11 1    
    15   30   11 1    
    16   17   12 1    
    17   14   13 1    
    18   15   13 1    
    19   31   13 1    
    20   38   14 1    
    21   16   15 1    
    22   17   15 1    
    23   32   15 1    
    24   39   16 1    
    25   18   17 1    
    26   33   17 1    
    27   19   18 1    
    28   27   18 1    
    29   20   19 2    
    30   34   19 1    
    31   21   20 1    
    32   22   21 ar   
    33   27   21 ar   
    34   23   22 1    
    35   24   22 ar   
    36   35   23 1    
    37   36   23 1    
    38   25   24 ar   
    39   26   25 ar   
    40   37   25 1    
    41   27   26 ar   
@<TRIPOS>SUBSTRUCTURE
     1 ADP283      1 GROUP   
@<TRIPOS>SET

