#    Name: 3i52_KXN_1_INTS_M
#    Modification time : Tue Mar 25 15:52:43 2014

@<TRIPOS>MOLECULE
3i52_KXN_1_INTS_M
   61     0     9     0     0
SMALL
NO_CHARGES


@<TRIPOS>ATOM
      1 N          -0.9455    8.8295   15.0135 N.am      2 SEC2        0.0000 
      2 N          -2.4010    8.3870   15.4150 N.am      8 SEL2        0.0000 
      3 N           0.5100    9.2720   14.6120 N.am      5 SEP2        0.0000 
      4 O          -1.9790    8.5550   16.6295 O.2       1 ALC1        0.0000 
      5 O          -2.4010    8.3870   15.4150 O.2       7 ALL1        0.0000 
      6 O          -1.5570    8.7230   17.8440 O.2       4 ALP1        0.0000 
      7 CA         -2.8065    6.1530   17.2005 C.3       3 GLC5        0.0000 
      8 CA         -1.4060    6.1740   15.6250 C.3       9 GLL5        0.0000 
      9 CA         -4.2070    6.1320   18.7760 C.3       6 GLP5        0.0000 
     10 O          -1.1895    7.6205   17.3190 O.2       1 ALC1        0.0000 
     11 O          -0.8220    6.5180   16.7940 O.2       7 ALL1        0.0000 
     12 CA         -3.0285    4.5300   16.1525 C.3       3 GLC5        0.0000 
     13 CA         -1.2380    4.8990   15.1050 C.3       9 GLL5        0.0000 
     14 CA         -4.8190    4.1610   17.2000 C.3       6 GLP5        0.0000 
     15 CA         -4.8025    7.2590   13.9780 C.3       3 GLC5        0.0000 
     16 CA         -2.8430    6.7670   13.7020 C.3       9 GLL5        0.0000 
     17 CA         -6.7620    7.7510   14.2540 C.3       6 GLP5        0.0000 
     18 CA         -3.6340    5.5805   11.3320 C.3       3 GLC5        0.0000 
     19 CA         -2.6280    5.4720   13.2160 C.3       9 GLL5        0.0000 
     20 CA         -4.6400    5.6890    9.4480 C.3       6 GLP5        0.0000 
     21 CA         -1.9230    3.0970   11.4845 C.3       3 GLC5        0.0000 
     22 CA         -1.6320    3.1670   13.3320 C.3       9 GLL5        0.0000 
     23 CA         -2.2140    3.0270    9.6370 C.3       6 GLP5        0.0000 
     24 CA         -0.1525    2.8610   14.8550 C.3       3 GLC5        0.0000 
     25 CA          1.3270    2.5550   16.3780 C.3       6 GLP5        0.0000 
     26 N           0.8665    3.8655   12.8270 N.am      2 SEC2        0.0000 
     27 N          -0.3080    3.1090   12.7700 N.am      8 SEL2        0.0000 
     28 N           2.0410    4.6220   12.8840 N.am      5 SEP2        0.0000 
     29 O          -3.0270    1.8030   16.4670 O.2       1 ALC1        0.0000 
     30 O          -2.9870    2.0220   15.0440 O.2       7 ALL1        0.0000 
     31 O          -3.0670    1.5840   17.8900 O.2       4 ALP1        0.0000 
     32 CA         -2.2360    1.2160   11.6760 C.3       3 GLC5        0.0000 
     33 CA         -1.5580    0.6260   13.6480 C.3       9 GLL5        0.0000 
     34 CA         -2.9140    1.8060    9.7040 C.3       6 GLP5        0.0000 
     35 N           3.2095   -0.0365    9.0025 N.am      2 SEC2        0.0000 
     36 N           2.1260    0.9620    9.2420 N.am      8 SEL2        0.0000 
     37 N           4.2930   -1.0350    8.7630 N.am      5 SEP2        0.0000 
     38 N           1.6765    0.8810    8.0810 N.am      2 SEC2        0.0000 
     39 N           1.2270    0.8000    6.9200 N.am      5 SEP2        0.0000 
     40 CA         -2.0488    7.1643   12.4102 C.3       3 GLC5        0.0000 
     41 CA         -2.2520    7.1460   14.9030 C.3       9 GLL5        0.0000 
     42 CA         -1.5500    7.3720   10.5180 C.3       6 GLP5        0.0000 
     43 CA         -4.0663    5.9083   15.1963 C.3       3 GLC5        0.0000 
     44 CA         -5.5850    4.8600   16.0900 C.3       6 GLP5        0.0000 
     45 CA         -1.1095    8.0882   13.8520 C.3       3 GLC5        0.0000 
     46 CA          0.1170    9.4630   13.2210 C.3       6 GLP5        0.0000 
     47 CA         -1.8935    6.1875   12.0393 C.3       3 GLC5        0.0000 
     48 CA         -3.9110    4.9315   14.8252 C.3       3 GLC5        0.0000 
     49 CA          0.4170    4.8016   14.4480 C.3       3 GLC5        0.0000 
     50 CA         -1.8460    4.5340   13.9050 C.3       9 GLL5        0.0000 
     51 CA          2.4180    4.5680   14.2610 C.3       6 GLP5        0.0000 
     52 CA         -0.5750    0.8005   15.2393 C.3       3 GLC5        0.0000 
     53 CA         -1.7380    1.9960   14.3310 C.3       9 GLL5        0.0000 
     54 CA          0.4980    0.2900   16.4890 C.3       6 GLP5        0.0000 
     55 CA          1.4540    3.2827   12.9072 C.3       3 GLC5        0.0000 
     56 CA          0.0470    1.9750   12.0880 C.3       9 GLL5        0.0000 
     57 CA          2.7793   -0.2153   10.7775 C.3       3 GLC5        0.0000 
     58 CA          1.2710    0.8610   10.3050 C.3       9 GLL5        0.0000 
     59 CA          4.5590   -0.6640   11.0880 C.3       6 GLP5        0.0000 
     60 CA          1.5597   -1.0803    8.9330 C.3       3 GLC5        0.0000 
     61 CA          2.1200   -2.3940    7.3990 C.3       6 GLP5        0.0000 
@<TRIPOS>BOND
@<TRIPOS>SUBSTRUCTURE
     1 ALC1        4 GROUP        1 X    ALC  0     ROOT ALC X 1
     2 SEC2        1 GROUP        1 X    SEC  0     **** SEC X 2
     3 GLC5        7 GROUP        1 X    GLC  0     **** GLC X 6
     4 ALP1        6 GROUP        1 Y    ALP  0     ROOT ALP Y 8
     5 SEP2        3 GROUP        1 Y    SEP  0     **** SEP Y 9
     6 GLP5        9 GROUP        1 Y    GLP  0     **** GLP Y 13
     7 ALL1        5 GROUP        1 Z    ALL  0     ROOT ALL Z 15
     8 SEL2        2 GROUP        1 Z    SEL  0     **** SEL Z 16
     9 GLL5        8 GROUP        1 Z    GLL  0     **** GLL Z 20
@<TRIPOS>SET

