#    Name: 3i52_KXN_1_ligand
#    Modification time : Tue Mar 25 15:52:43 2014

@<TRIPOS>MOLECULE
3i52_KXN_1_ligand
   35    37     1     0     0
SMALL
NO_CHARGES


@<TRIPOS>ATOM
      1 O94        -2.4010    8.3870   15.4150 O.3       1 KXN501      0.0000 
      2 C94        -2.2520    7.1460   14.9030 C.ar      1 KXN501      0.0000 
      3 C93        -1.4060    6.1740   15.6250 C.ar      1 KXN501      0.0000 
      4 O93        -0.8220    6.5180   16.7940 O.3       1 KXN501      0.0000 
      5 C92        -1.2380    4.8990   15.1050 C.ar      1 KXN501      0.0000 
      6 C95        -2.8430    6.7670   13.7020 C.ar      1 KXN501      0.0000 
      7 C96        -2.6280    5.4720   13.2160 C.ar      1 KXN501      0.0000 
      8 C91        -1.8460    4.5340   13.9050 C.ar      1 KXN501      0.0000 
      9 C2         -1.6320    3.1670   13.3320 C.3       1 KXN501      0.0000 
     10 O1         -0.3080    3.1090   12.7700 O.3       1 KXN501      0.0000 
     11 C3         -1.7380    1.9960   14.3310 C.3       1 KXN501      0.0000 
     12 O3         -2.9870    2.0220   15.0440 O.3       1 KXN501      0.0000 
     13 C4         -1.5580    0.6260   13.6480 C.3       1 KXN501      0.0000 
     14 C10        -0.5690    0.6750   12.4850 C.ar      1 KXN501      0.0000 
     15 C9          0.0470    1.9750   12.0880 C.ar      1 KXN501      0.0000 
     16 C8          0.9330    2.0200   11.0190 C.ar      1 KXN501      0.0000 
     17 C5         -0.1780   -0.5440   11.6900 C.ar      1 KXN501      0.0000 
     18 O51        -0.6760   -1.7860   11.9860 O.3       1 KXN501      0.0000 
     19 C6          0.7280   -0.3940   10.6290 C.ar      1 KXN501      0.0000 
     20 C7          1.2710    0.8610   10.3050 C.ar      1 KXN501      0.0000 
     21 O71         2.1260    0.9620    9.2420 O.3       1 KXN501      0.0000 
     22 H          -0.6566    4.2104   15.6103 H         1 KXN501      0.0000 
     23 H          -3.4261    7.4213   13.1794 H         1 KXN501      0.0000 
     24 H          -3.0632    5.1948   12.3120 H         1 KXN501      0.0000 
     25 H          -2.3572    2.9881   12.5388 H         1 KXN501      0.0000 
     26 H          -0.9043    2.1042   15.0452 H         1 KXN501      0.0000 
     27 H          -2.5317    0.2851   13.2810 H         1 KXN501      0.0000 
     28 H          -1.2053   -0.0950   14.3929 H         1 KXN501      0.0000 
     29 H           1.3549    2.9232   10.7395 H         1 KXN501      0.0000 
     30 H           1.0017   -1.2215   10.0749 H         1 KXN501      0.0000 
     31 H          -2.0557    8.3237   16.3513 H         1 KXN501      0.0000 
     32 H          -1.2432    7.3889   17.0471 H         1 KXN501      0.0000 
     33 H          -2.7395    1.8927   16.0042 H         1 KXN501      0.0000 
     34 H          -0.3572   -2.3760   11.2442 H         1 KXN501      0.0000 
     35 H           2.7134    1.7425    9.4558 H         1 KXN501      0.0000 
@<TRIPOS>BOND
     1    2    1 1    
     2   31    1 1    
     3    3    2 ar   
     4    6    2 ar   
     5    4    3 1    
     6    5    3 ar   
     7   32    4 1    
     8    8    5 ar   
     9   22    5 1    
    10    7    6 ar   
    11   23    6 1    
    12    8    7 ar   
    13   24    7 1    
    14    9    8 1    
    15   10    9 1    
    16   11    9 1    
    17   25    9 1    
    18   15   10 1    
    19   12   11 1    
    20   13   11 1    
    21   26   11 1    
    22   33   12 1    
    23   14   13 1    
    24   27   13 1    
    25   28   13 1    
    26   15   14 ar   
    27   17   14 ar   
    28   16   15 ar   
    29   20   16 ar   
    30   29   16 1    
    31   18   17 1    
    32   19   17 ar   
    33   34   18 1    
    34   20   19 ar   
    35   30   19 1    
    36   21   20 1    
    37   35   21 1    
@<TRIPOS>SUBSTRUCTURE
     1 KXN501      1 GROUP   
@<TRIPOS>SET

