#    Name: 4eb7_PLP_2_INTS_M
#    Modification time : Mon Apr  7 23:31:37 2014

@<TRIPOS>MOLECULE
4eb7_PLP_2_INTS_M
   35     0     6     0     0
SMALL
NO_CHARGES


@<TRIPOS>ATOM
      1 N           0.2765   19.3420  -31.2435 N.am      1 SEC2        0.0000 
      2 N          -1.0620   19.1220  -31.1480 N.am      5 SEL2        0.0000 
      3 N           1.6150   19.5620  -31.3390 N.am      3 SEP2        0.0000 
      4 N          -3.9305   17.5830  -34.3955 N.am      1 SEC2        0.0000 
      5 N          -3.7590   18.5170  -33.4810 N.am      5 SEL2        0.0000 
      6 N          -4.1020   16.6490  -35.3100 N.am      3 SEP2        0.0000 
      7 CA         -2.1715   20.6025  -30.2475 C.3       2 GLC5        0.0000 
      8 CA         -1.6680   18.9500  -29.9660 C.3       6 GLL5        0.0000 
      9 CA         -2.6750   22.2550  -30.5290 C.3       4 GLP5        0.0000 
     10 CA         -1.1485   17.2530  -31.1730 C.3       2 GLC5        0.0000 
     11 CA         -0.6290   15.5560  -32.3800 C.3       4 GLP5        0.0000 
     12 N          -7.0805   16.3920  -26.9985 N.am      1 SEC2        0.0000 
     13 N          -5.7340   15.6320  -26.9580 N.am      5 SEL2        0.0000 
     14 N          -8.4270   17.1520  -27.0390 N.am      3 SEP2        0.0000 
     15 N          -2.6545   17.3140  -25.4670 N.am      1 SEC2        0.0000 
     16 N          -3.9590   17.0410  -25.8560 N.am      5 SEL2        0.0000 
     17 N          -1.3500   17.5870  -25.0780 N.am      3 SEP2        0.0000 
     18 N          -3.7390   18.3580  -25.4480 N.am      1 SEC2        0.0000 
     19 N          -3.5190   19.6750  -25.0400 N.am      3 SEP2        0.0000 
     20 N          -7.0770   18.1825  -25.8940 N.am      1 SEC2        0.0000 
     21 N          -6.0030   18.1420  -26.9890 N.am      5 SEL2        0.0000 
     22 N          -8.1510   18.2230  -24.7990 N.am      3 SEP2        0.0000 
     23 CA         -1.3670   20.7900  -32.0820 C.3       2 GLC5        0.0000 
     24 CA         -1.7340   18.9930  -32.3090 C.3       6 GLL5        0.0000 
     25 CA         -1.3670   22.4800  -31.2080 C.3       4 GLP5        0.0000 
     26 CA         -0.9980   17.3280  -32.6680 C.3       2 GLC5        0.0000 
     27 CA         -3.6385   20.2170  -31.3563 C.3       2 GLC5        0.0000 
     28 CA         -3.0820   18.6640  -32.3040 C.3       6 GLL5        0.0000 
     29 CA         -3.8730   21.8650  -31.0150 C.3       4 GLP5        0.0000 
     30 CA         -3.5903   20.1915  -30.1202 C.3       2 GLC5        0.0000 
     31 CA         -3.0040   18.6150  -29.9090 C.3       6 GLL5        0.0000 
     32 CA         -2.6440   16.8740  -31.4516 C.3       2 GLC5        0.0000 
     33 CA         -2.0840   15.1560  -32.1000 C.3       4 GLP5        0.0000 
     34 CA         -1.9667   17.3054  -28.4429 C.3       2 GLC5        0.0000 
     35 CA         -0.9600   16.0090  -27.6460 C.3       4 GLP5        0.0000 
@<TRIPOS>BOND
@<TRIPOS>SUBSTRUCTURE
     1 SEC2        1 GROUP        1 X    SEC  0     ROOT SEC X 2
     2 GLC5        7 GROUP        1 X    GLC  0     **** GLC X 6
     3 SEP2        3 GROUP        1 Y    SEP  0     ROOT SEP Y 9
     4 GLP5        9 GROUP        1 Y    GLP  0     **** GLP Y 13
     5 SEL2        2 GROUP        1 Z    SEL  0     ROOT SEL Z 16
     6 GLL5        8 GROUP        1 Z    GLL  0     **** GLL Z 20
@<TRIPOS>SET

