#    Name: 4eb7_PLP_2_ligand
#    Modification time : Mon Apr  7 23:31:37 2014

@<TRIPOS>MOLECULE
4eb7_PLP_2_ligand
   24    24     1     0     0
SMALL
NO_CHARGES


@<TRIPOS>ATOM
      1 N1         -1.0620   19.1220  -31.1480 N.ar      1 PLP401      0.0000 
      2 C2         -1.7340   18.9930  -32.3090 C.ar      1 PLP401      0.0000 
      3 C2A        -1.0000   19.2070  -33.6030 C.3       1 PLP401      0.0000 
      4 C3         -3.0820   18.6640  -32.3040 C.ar      1 PLP401      0.0000 
      5 O3         -3.7590   18.5170  -33.4810 O.3       1 PLP401      0.0000 
      6 C4         -3.7260   18.4740  -31.0910 C.ar      1 PLP401      0.0000 
      7 C4A        -5.1670   18.1050  -31.0910 C.2       1 PLP401      0.0000 
      8 O4A        -5.9630   18.7290  -30.4050 O.2       1 PLP401      0.0000 
      9 C5         -3.0040   18.6150  -29.9090 C.ar      1 PLP401      0.0000 
     10 C6         -1.6680   18.9500  -29.9660 C.ar      1 PLP401      0.0000 
     11 C5A        -3.6110   18.4210  -28.5420 C.3       1 PLP401      0.0000 
     12 O4P        -4.1620   17.1110  -28.2900 O.3       1 PLP401      0.0000 
     13 P          -5.0270   16.9570  -26.9360 P.3       1 PLP401      0.0000 
     14 O1P        -5.7340   15.6320  -26.9580 O.co2     1 PLP401      0.0000 
     15 O2P        -3.9590   17.0410  -25.8560 O.co2     1 PLP401      0.0000 
     16 O3P        -6.0030   18.1420  -26.9890 O.co2     1 PLP401      0.0000 
     17 H          -5.3805   17.2924  -31.7191 H         1 PLP401      0.0000 
     18 H          -1.1418   19.0661  -29.0744 H         1 PLP401      0.0000 
     19 H          -4.3960   19.2077  -28.4010 H         1 PLP401      0.0000 
     20 H          -2.8266   18.6669  -27.7809 H         1 PLP401      0.0000 
     21 H          -0.6182   20.1291  -33.6653 H         1 PLP401      0.0000 
     22 H          -0.2390   18.5669  -33.7086 H         1 PLP401      0.0000 
     23 H          -1.5987   19.0836  -34.3944 H         1 PLP401      0.0000 
     24 H          -4.4858   19.2031  -33.4489 H         1 PLP401      0.0000 
@<TRIPOS>BOND
     1    2    1 ar   
     2   10    1 ar   
     3    3    2 1    
     4    4    2 ar   
     5   21    3 1    
     6   22    3 1    
     7   23    3 1    
     8    5    4 1    
     9    6    4 ar   
    10   24    5 1    
    11    7    6 1    
    12    9    6 ar   
    13    8    7 2    
    14   17    7 1    
    15   10    9 ar   
    16   11    9 1    
    17   18   10 1    
    18   12   11 1    
    19   19   11 1    
    20   20   11 1    
    21   13   12 1    
    22   14   13 ar   
    23   15   13 ar   
    24   16   13 ar   
@<TRIPOS>SUBSTRUCTURE
     1 PLP401      1 GROUP   
@<TRIPOS>SET

