#    Name: 2WBG_4_CAVITY_N1_6.mol2
#    Modification time : Mon Mar 10 19:21:29 2014

@<TRIPOS>MOLECULE
2WBG_4_CAVITY_N1_6.mol2
  153     0     6     0     0
SMALL
NO_CHARGES


@<TRIPOS>ATOM
      1 NZ         39.2522   22.9365  -59.2306 N.2       3 LYS4        0.0000 
      2 CZ         38.4190   23.4306  -58.0853 C.ar      4 PHE5        0.0000 
      3 DU         37.5859   23.9247  -56.9400 H         6 CUB7        0.0000 
      4 DU         35.9196   24.9128  -54.6494 H         6 CUB7        0.0000 
      5 CZ         35.0865   25.4069  -53.5041 C.ar      4 PHE5        0.0000 
      6 CZ         34.2533   25.9010  -52.3588 C.ar      4 PHE5        0.0000 
      7 N          37.6567   22.1387  -58.0826 N.2       2 ALA2        0.0000 
      8 N          36.8236   22.6328  -56.9373 N.2       2 ALA2        0.0000 
      9 DU         35.9904   23.1269  -55.7919 H         6 CUB7        0.0000 
     10 CA         35.1573   23.6210  -54.6466 C.3       5 GLY6        0.0000 
     11 CA         34.3241   24.1151  -53.5013 C.3       5 GLY6        0.0000 
     12 CZ         33.4910   24.6092  -52.3560 C.ar      4 PHE5        0.0000 
     13 N          39.7313   31.3720  -54.6631 N.2       2 ALA2        0.0000 
     14 CZ         40.6353   29.0920  -56.9510 C.ar      4 PHE5        0.0000 
     15 CA         39.8021   29.5861  -55.8057 C.3       5 GLY6        0.0000 
     16 N          38.9690   30.0802  -54.6604 N.2       2 ALA2        0.0000 
     17 N          37.3027   31.0684  -52.3697 N.2       2 ALA2        0.0000 
     18 CZ         39.8729   27.8002  -56.9482 C.ar      4 PHE5        0.0000 
     19 CZ         39.0398   28.2943  -55.8029 C.ar      4 PHE5        0.0000 
     20 DU         38.2066   28.7883  -54.6576 H         6 CUB7        0.0000 
     21 N          37.3735   29.2824  -53.5123 N.2       2 ALA2        0.0000 
     22 N          36.5403   29.7765  -52.3670 N.2       2 ALA2        0.0000 
     23 CZ         35.7072   30.2706  -51.2217 C.ar      4 PHE5        0.0000 
     24 CZ         39.1106   26.5083  -56.9455 C.ar      4 PHE5        0.0000 
     25 CZ         38.2774   27.0024  -55.8002 C.ar      4 PHE5        0.0000 
     26 DU         36.6111   27.9906  -53.5096 H         6 CUB7        0.0000 
     27 DU         35.7780   28.4847  -52.3643 H         6 CUB7        0.0000 
     28 N          34.9449   28.9788  -51.2189 N.2       2 ALA2        0.0000 
     29 CZ         40.0145   24.2283  -59.2334 C.ar      4 PHE5        0.0000 
     30 CZ         39.1814   24.7224  -58.0881 C.ar      4 PHE5        0.0000 
     31 CZ         38.3482   25.2165  -56.9428 C.ar      4 PHE5        0.0000 
     32 DU         37.5151   25.7106  -55.7974 H         6 CUB7        0.0000 
     33 DU         35.8488   26.6988  -53.5068 H         6 CUB7        0.0000 
     34 CZ         35.0157   27.1929  -52.3615 C.ar      4 PHE5        0.0000 
     35 CZ         34.1825   27.6870  -51.2162 C.ar      4 PHE5        0.0000 
     36 O          42.5390   29.7168  -53.8712 O.2       2 ALA2        0.0000 
     37 CZ         41.7767   28.4250  -53.8684 C.ar      4 PHE5        0.0000 
     38 N          40.9435   28.9191  -52.7231 N.2       2 ALA2        0.0000 
     39 N          40.1104   29.4132  -51.5778 N.2       2 ALA2        0.0000 
     40 O          39.2772   29.9073  -50.4325 O.2       2 ALA2        0.0000 
     41 O          35.3989   30.4435  -55.4496 O.2       2 ALA2        0.0000 
     42 CZ         34.5658   30.9376  -54.3043 C.ar      4 PHE5        0.0000 
     43 CA         41.5517   30.2974  -54.8398 C.3       5 GLY6        0.0000 
     44 N          40.7186   30.7915  -53.6945 N.2       2 ALA2        0.0000 
     45 CA         39.8854   31.2856  -52.5492 C.3       5 GLY6        0.0000 
     46 CA         41.6225   28.5114  -55.9824 C.3       5 GLY6        0.0000 
     47 CA         40.7894   29.0055  -54.8370 C.3       5 GLY6        0.0000 
     48 DU         39.9562   29.4996  -53.6917 H         6 CUB7        0.0000 
     49 N          39.1231   29.9937  -52.5464 N.2       2 ALA2        0.0000 
     50 O          38.2899   30.4878  -51.4011 O.2       2 ALA2        0.0000 
     51 CZ         40.8602   27.2196  -55.9796 C.ar      4 PHE5        0.0000 
     52 DU         40.0270   27.7137  -54.8343 H         6 CUB7        0.0000 
     53 DU         39.1939   28.2078  -53.6890 H         6 CUB7        0.0000 
     54 DU         38.3608   28.7019  -52.5437 H         6 CUB7        0.0000 
     55 DU         37.5276   29.1960  -51.3984 H         6 CUB7        0.0000 
     56 NZ         45.5591   22.7038  -56.5069 N.2       3 LYS4        0.0000 
     57 NZ         44.7260   23.1979  -55.3616 N.2       3 LYS4        0.0000 
     58 NZ         43.8928   23.6920  -54.2163 N.2       3 LYS4        0.0000 
     59 O          44.7968   21.4120  -56.5042 O.2       2 ALA2        0.0000 
     60 CZ         43.9636   21.9061  -55.3588 C.ar      4 PHE5        0.0000 
     61 CZ         43.2013   20.6143  -55.3561 C.ar      4 PHE5        0.0000 
     62 O          38.0525   28.8748  -56.7716 O.2       2 ALA2        0.0000 
     63 N          37.2194   29.3689  -55.6263 N.2       2 ALA2        0.0000 
     64 N          36.3862   29.8630  -54.4809 N.2       2 ALA2        0.0000 
     65 N          35.5531   30.3571  -53.3356 N.2       2 ALA2        0.0000 
     66 CZ         34.7199   30.8512  -52.1903 C.ar      4 PHE5        0.0000 
     67 O          37.2902   27.5830  -56.7688 O.2       2 ALA2        0.0000 
     68 DU         36.4570   28.0771  -55.6235 H         6 CUB7        0.0000 
     69 DU         35.6239   28.5712  -54.4782 H         6 CUB7        0.0000 
     70 CZ         34.7907   29.0653  -53.3329 C.ar      4 PHE5        0.0000 
     71 CZ         33.9576   29.5593  -52.1876 C.ar      4 PHE5        0.0000 
     72 CZ         37.3610   25.7970  -57.9114 C.ar      4 PHE5        0.0000 
     73 DU         36.5278   26.2911  -56.7661 H         6 CUB7        0.0000 
     74 DU         34.0284   27.7734  -53.3301 H         6 CUB7        0.0000 
     75 CZ         33.1952   28.2675  -52.1848 C.ar      4 PHE5        0.0000 
     76 CA         38.2649   23.5170  -60.1993 C.3       5 GLY6        0.0000 
     77 CZ         37.4318   24.0111  -59.0540 C.ar      4 PHE5        0.0000 
     78 DU         36.5986   24.5052  -57.9086 H         6 CUB7        0.0000 
     79 DU         35.7655   24.9993  -56.7633 H         6 CUB7        0.0000 
     80 DU         34.0992   25.9875  -54.4727 H         6 CUB7        0.0000 
     81 OG         32.4329   26.9757  -52.1821 O.2       1 SER1        0.0000 
     82 DU         35.8363   23.2134  -57.9059 H         6 CUB7        0.0000 
     83 DU         35.0031   23.7075  -56.7606 H         6 CUB7        0.0000 
     84 DU         34.1700   24.2016  -55.6153 H         6 CUB7        0.0000 
     85 CZ         33.3369   24.6957  -54.4700 C.ar      4 PHE5        0.0000 
     86 CZ         32.5745   23.4038  -54.4672 C.ar      4 PHE5        0.0000 
     87 CA         36.6945   29.6901  -50.2531 C.3       5 GLY6        0.0000 
     88 CZ         40.9310   25.4337  -57.1222 C.ar      4 PHE5        0.0000 
     89 CZ         40.0979   25.9278  -55.9769 C.ar      4 PHE5        0.0000 
     90 DU         39.2647   26.4219  -54.8316 H         6 CUB7        0.0000 
     91 DU         37.5984   27.4101  -52.5409 H         6 CUB7        0.0000 
     92 CZ         36.7653   27.9042  -51.3956 C.ar      4 PHE5        0.0000 
     93 N          35.9321   28.3982  -50.2503 N.2       2 ALA2        0.0000 
     94 NZ         41.0018   23.6478  -58.2647 N.2       3 LYS4        0.0000 
     95 CZ         40.1687   24.1419  -57.1194 C.ar      4 PHE5        0.0000 
     96 DU         39.3355   24.6359  -55.9741 H         6 CUB7        0.0000 
     97 DU         38.5024   25.1300  -54.8288 H         6 CUB7        0.0000 
     98 DU         37.6692   25.6241  -53.6835 H         6 CUB7        0.0000 
     99 CZ         36.8361   26.1182  -52.5382 C.ar      4 PHE5        0.0000 
    100 NZ         39.4063   22.8500  -57.1167 N.2       3 LYS4        0.0000 
    101 DU         38.5732   23.3441  -55.9714 H         6 CUB7        0.0000 
    102 DU         37.7400   23.8382  -54.8261 H         6 CUB7        0.0000 
    103 CA         36.9069   24.3323  -53.6807 C.3       5 GLY6        0.0000 
    104 CZ         36.0737   24.8264  -52.5354 C.ar      4 PHE5        0.0000 
    105 NZ         39.4771   21.0641  -58.2592 N.2       3 LYS4        0.0000 
    106 N          38.6440   21.5582  -57.1139 N.2       2 ALA2        0.0000 
    107 N          37.8108   22.0523  -55.9686 N.2       2 ALA2        0.0000 
    108 CA         36.9777   22.5464  -54.8233 C.3       5 GLY6        0.0000 
    109 CA         36.1445   23.0405  -53.6780 C.3       5 GLY6        0.0000 
    110 CA         38.8148   30.1666  -56.7743 C.3       5 GLY6        0.0000 
    111 CZ         42.7639   27.8444  -52.8998 C.ar      4 PHE5        0.0000 
    112 O          41.9308   28.3385  -51.7545 O.2       2 ALA2        0.0000 
    113 NZ         42.8347   26.0585  -54.0423 N.2       3 LYS4        0.0000 
    114 CA         42.0016   26.5526  -52.8970 C.3       5 GLY6        0.0000 
    115 OG         44.5718   23.2844  -57.4755 O.2       1 SER1        0.0000 
    116 OG         43.7387   23.7785  -56.3302 O.2       1 SER1        0.0000 
    117 NZ         42.9055   24.2726  -55.1849 N.2       3 LYS4        0.0000 
    118 NZ         42.0724   24.7667  -54.0396 N.2       3 LYS4        0.0000 
    119 NZ         41.2393   25.2608  -52.8943 N.2       3 LYS4        0.0000 
    120 NZ         43.8095   21.9926  -57.4728 N.2       3 LYS4        0.0000 
    121 NZ         42.9764   22.4867  -56.3275 N.2       3 LYS4        0.0000 
    122 NZ         42.1432   22.9808  -55.1822 N.2       3 LYS4        0.0000 
    123 NZ         41.3101   23.4748  -54.0369 N.2       3 LYS4        0.0000 
    124 CA         40.4769   23.9689  -52.8915 C.3       5 GLY6        0.0000 
    125 CA         42.2140   21.1948  -56.3247 C.3       5 GLY6        0.0000 
    126 CZ         41.3809   21.6889  -55.1794 C.ar      4 PHE5        0.0000 
    127 CZ         40.5477   22.1830  -54.0341 C.ar      4 PHE5        0.0000 
    128 DU         34.6366   29.1517  -55.4468 H         6 CUB7        0.0000 
    129 CZ         33.8035   29.6458  -54.3015 C.ar      4 PHE5        0.0000 
    130 CZ         42.6806   26.1450  -56.1563 C.ar      4 PHE5        0.0000 
    131 CZ         41.8475   26.6391  -55.0110 C.ar      4 PHE5        0.0000 
    132 DU         41.0143   27.1332  -53.8657 H         6 CUB7        0.0000 
    133 CA         40.1812   27.6272  -52.7204 C.3       5 GLY6        0.0000 
    134 O          39.3480   28.1213  -51.5750 O.2       2 ALA2        0.0000 
    135 O          38.5149   28.6154  -50.4297 O.2       2 ALA2        0.0000 
    136 CZ         42.7514   24.3590  -57.2989 C.ar      4 PHE5        0.0000 
    137 CZ         41.9183   24.8531  -56.1535 C.ar      4 PHE5        0.0000 
    138 DU         41.0851   25.3472  -55.0082 H         6 CUB7        0.0000 
    139 DU         40.2520   25.8413  -53.8629 H         6 CUB7        0.0000 
    140 CA         39.4188   26.3354  -52.7176 C.3       5 GLY6        0.0000 
    141 O          37.7525   27.3236  -50.4270 O.2       2 ALA2        0.0000 
    142 NZ         41.9891   23.0672  -57.2961 N.2       3 LYS4        0.0000 
    143 DU         41.1559   23.5613  -56.1508 H         6 CUB7        0.0000 
    144 DU         40.3228   24.0554  -55.0055 H         6 CUB7        0.0000 
    145 CA         39.4896   24.5495  -53.8602 C.3       5 GLY6        0.0000 
    146 CA         38.6565   25.0436  -52.7149 C.3       5 GLY6        0.0000 
    147 CZ         37.8234   25.5377  -51.5695 C.ar      4 PHE5        0.0000 
    148 NZ         40.3936   22.2695  -56.1481 N.2       3 LYS4        0.0000 
    149 DU         39.5605   22.7636  -55.0027 H         6 CUB7        0.0000 
    150 CA         38.7273   23.2577  -53.8574 C.3       5 GLY6        0.0000 
    151 CA         37.8942   23.7517  -52.7121 C.3       5 GLY6        0.0000 
    152 N          39.6313   20.9776  -56.1453 N.2       2 ALA2        0.0000 
    153 CA         37.9650   21.9658  -53.8547 C.3       5 GLY6        0.0000 
@<TRIPOS>BOND
@<TRIPOS>SUBSTRUCTURE
     1 SER1       81 GROUP   
     2 ALA2        7 GROUP   
     3 LYS4        1 GROUP   
     4 PHE5        2 GROUP   
     5 GLY6       10 GROUP   
     6 CUB7        3 GROUP   
@<TRIPOS>SET

