#    Name: 2wbg_LGS_4_INTS_M
#    Modification time : Tue Mar 25 04:01:50 2014

@<TRIPOS>MOLECULE
2wbg_LGS_4_INTS_M
   68     0     9     0     0
SMALL
NO_CHARGES


@<TRIPOS>ATOM
      1 N          45.2540   19.8115  -58.9615 N.am      2 SEC2        0.0000 
      2 N          45.1800   21.2530  -58.5360 N.am      8 SEL2        0.0000 
      3 N          45.3280   18.3700  -59.3870 N.am      5 SEP2        0.0000 
      4 O          44.5125   21.3665  -59.6440 O.2       1 ALC1        0.0000 
      5 O          45.1800   21.2530  -58.5360 O.2       7 ALL1        0.0000 
      6 O          43.8450   21.4800  -60.7520 O.2       4 ALP1        0.0000 
      7 CA         46.4945   21.6885  -57.9820 C.3       3 GLC5        0.0000 
      8 CA         44.6550   21.7750  -57.3380 C.3       9 GLL5        0.0000 
      9 CA         48.3340   21.6020  -58.6260 C.3       6 GLP5        0.0000 
     10 CA         43.3385   20.2600  -57.5535 C.3       3 GLC5        0.0000 
     11 CA         42.0220   18.7450  -57.7690 C.3       6 GLP5        0.0000 
     12 CA         42.5180   25.4135  -58.8390 C.3       3 GLC5        0.0000 
     13 CA         44.1120   24.0540  -58.4180 C.3       9 GLL5        0.0000 
     14 CA         40.9240   26.7730  -59.2600 C.3       6 GLP5        0.0000 
     15 CA         44.0230   24.9425  -60.0180 C.3       3 GLC5        0.0000 
     16 CA         43.9340   25.8310  -61.6180 C.3       6 GLP5        0.0000 
     17 CA         46.8095   20.7765  -57.2165 C.3       3 GLC5        0.0000 
     18 CA         45.4330   21.3090  -56.0920 C.3       9 GLL5        0.0000 
     19 CA         48.1860   20.2440  -58.3410 C.3       6 GLP5        0.0000 
     20 N          45.9535   19.1965  -54.8795 N.am      2 SEC2        0.0000 
     21 N          45.3690   19.8840  -56.0820 N.am      8 SEL2        0.0000 
     22 N          46.5380   18.5090  -53.6770 N.am      5 SEP2        0.0000 
     23 N          44.2495   19.1100  -56.5660 N.am      2 SEC2        0.0000 
     24 N          43.1300   18.3360  -57.0500 N.am      5 SEP2        0.0000 
     25 O          45.9050   18.8945  -56.7660 O.2       1 ALC1        0.0000 
     26 O          45.3690   19.8840  -56.0820 O.2       7 ALL1        0.0000 
     27 O          46.4410   17.9050  -57.4500 O.2       4 ALP1        0.0000 
     28 CA         43.1095   20.5830  -54.2525 C.3       3 GLC5        0.0000 
     29 CA         44.6220   21.6650  -54.8460 C.3       9 GLL5        0.0000 
     30 CA         41.5970   19.5010  -53.6590 C.3       6 GLP5        0.0000 
     31 N          45.9895   19.9520  -53.6665 N.am      2 SEC2        0.0000 
     32 N          45.4410   21.3950  -53.6560 N.am      8 SEL2        0.0000 
     33 N          45.3935   20.6855  -52.4670 N.am      2 SEC2        0.0000 
     34 N          45.3460   19.9760  -51.2780 N.am      5 SEP2        0.0000 
     35 O          46.3295   22.6455  -54.1755 O.2       1 ALC1        0.0000 
     36 O          45.4410   21.3950  -53.6560 O.2       7 ALL1        0.0000 
     37 O          47.2180   23.8960  -54.6950 O.2       4 ALP1        0.0000 
     38 O          46.7360   21.8405  -53.5225 O.2       1 ALC1        0.0000 
     39 O          48.0310   22.2860  -53.3890 O.2       4 ALP1        0.0000 
     40 CA         44.8585   25.0740  -55.1100 C.3       3 GLC5        0.0000 
     41 CA         44.0880   23.1040  -54.7960 C.3       9 GLL5        0.0000 
     42 CA         45.6290   27.0440  -55.4240 C.3       6 GLP5        0.0000 
     43 O          42.7345   22.9150  -53.0340 O.2       1 ALC1        0.0000 
     44 O          42.7560   23.1230  -54.2470 O.2       7 ALL1        0.0000 
     45 O          42.7130   22.7070  -51.8210 O.2       4 ALP1        0.0000 
     46 O          43.4360   23.7455  -52.9230 O.2       1 ALC1        0.0000 
     47 O          44.1160   24.3680  -51.5990 O.2       4 ALP1        0.0000 
     48 CA         44.4340   25.9535  -55.9425 C.3       3 GLC5        0.0000 
     49 CA         43.2390   24.8630  -56.4610 C.3       9 GLL5        0.0000 
     50 CA         42.0815   25.8180  -57.8605 C.3       3 GLC5        0.0000 
     51 CA         43.3765   27.5790  -55.6470 C.3       3 GLC5        0.0000 
     52 CA         41.9130   26.9400  -55.8690 C.3       9 GLL5        0.0000 
     53 CA         44.8400   28.2180  -55.4250 C.3       6 GLP5        0.0000 
     54 CA         39.6340   27.5175  -57.7205 C.3       3 GLC5        0.0000 
     55 CA         39.7130   28.1380  -56.0530 C.3       9 GLL5        0.0000 
     56 CA         39.5550   26.8970  -59.3880 C.3       6 GLP5        0.0000 
     57 CA         38.6280   28.0905  -57.9465 C.3       3 GLC5        0.0000 
     58 CA         38.2000   28.0130  -56.2430 C.3       9 GLL5        0.0000 
     59 CA         39.0560   28.1680  -59.6500 C.3       6 GLP5        0.0000 
     60 CA         45.3513   25.1570  -57.2135 C.3       3 GLC5        0.0000 
     61 CA         46.2600   26.6360  -56.5910 C.3       6 GLP5        0.0000 
     62 CA         46.3317   23.6790  -58.6550 C.3       3 GLC5        0.0000 
     63 CA         44.7730   23.3020  -57.2540 C.3       9 GLL5        0.0000 
     64 CA         48.2210   23.6800  -59.4740 C.3       6 GLP5        0.0000 
     65 CA         41.0417   26.8182  -57.5430 C.3       3 GLC5        0.0000 
     66 CA         37.2695   29.6173  -58.2840 C.3       3 GLC5        0.0000 
     67 CA         37.5220   29.3980  -56.3540 C.3       9 GLL5        0.0000 
     68 CA         37.7600   29.9480  -60.0590 C.3       6 GLP5        0.0000 
@<TRIPOS>BOND
@<TRIPOS>SUBSTRUCTURE
     1 ALC1        4 GROUP        1 X    ALC  0     ROOT ALC X 1
     2 SEC2        1 GROUP        1 X    SEC  0     **** SEC X 2
     3 GLC5        7 GROUP        1 X    GLC  0     **** GLC X 6
     4 ALP1        6 GROUP        1 Y    ALP  0     ROOT ALP Y 8
     5 SEP2        3 GROUP        1 Y    SEP  0     **** SEP Y 9
     6 GLP5        9 GROUP        1 Y    GLP  0     **** GLP Y 13
     7 ALL1        5 GROUP        1 Z    ALL  0     ROOT ALL Z 15
     8 SEL2        2 GROUP        1 Z    SEL  0     **** SEL Z 16
     9 GLL5        8 GROUP        1 Z    GLL  0     **** GLL Z 20
@<TRIPOS>SET

