#    Name: 2wbg_LGS_4_ligand
#    Modification time : Tue Mar 25 04:01:50 2014

@<TRIPOS>MOLECULE
2wbg_LGS_4_ligand
   51    52     1     0     0
SMALL
NO_CHARGES


@<TRIPOS>ATOM
      1 O4         45.1800   21.2530  -58.5360 O.3       1 LGS1446     0.0000 
      2 C4         44.6550   21.7750  -57.3380 C.3       1 LGS1446     0.0000 
      3 C5         44.7730   23.3020  -57.2540 C.3       1 LGS1446     0.0000 
      4 C6         44.1120   24.0540  -58.4180 C.3       1 LGS1446     0.0000 
      5 O6         43.4130   25.1640  -57.7900 O.3       1 LGS1446     0.0000 
      6 C3         45.4330   21.3090  -56.0920 C.3       1 LGS1446     0.0000 
      7 O3         45.3690   19.8840  -56.0820 O.3       1 LGS1446     0.0000 
      8 C2         44.6220   21.6650  -54.8460 C.3       1 LGS1446     0.0000 
      9 O2         45.4410   21.3950  -53.6560 O.3       1 LGS1446     0.0000 
     10 C1         44.0880   23.1040  -54.7960 C.3       1 LGS1446     0.0000 
     11 O1         42.7560   23.1230  -54.2470 O.3       1 LGS1446     0.0000 
     12 N1         43.9940   23.7480  -56.1050 N.pl3     1 LGS1446     0.0000 
     13 C7         43.2390   24.8630  -56.4610 C.2       1 LGS1446     0.0000 
     14 N2         42.5070   25.6130  -55.6220 N.pl3     1 LGS1446     0.0000 
     15 C8         41.9130   26.9400  -55.8690 C.3       1 LGS1446     0.0000 
     16 C9         40.4060   26.7870  -55.7830 C.3       1 LGS1446     0.0000 
     17 C10        39.7130   28.1380  -56.0530 C.3       1 LGS1446     0.0000 
     18 C11        38.2000   28.0130  -56.2430 C.3       1 LGS1446     0.0000 
     19 C12        37.5220   29.3980  -56.3540 C.3       1 LGS1446     0.0000 
     20 C13        36.0360   29.1750  -56.6640 C.3       1 LGS1446     0.0000 
     21 C14        35.1640   29.0140  -55.4080 C.3       1 LGS1446     0.0000 
     22 C15        33.6660   29.0520  -55.7610 C.3       1 LGS1446     0.0000 
     23 H          43.6213   21.5305  -57.1673 H         1 LGS1446     0.0000 
     24 H          45.7729   23.6035  -57.1586 H         1 LGS1446     0.0000 
     25 H          43.4342   23.3862  -58.9112 H         1 LGS1446     0.0000 
     26 H          44.8815   24.3942  -59.0819 H         1 LGS1446     0.0000 
     27 H          46.3642   21.6903  -56.0512 H         1 LGS1446     0.0000 
     28 H          43.7502   20.9861  -54.8140 H         1 LGS1446     0.0000 
     29 H          44.7448   23.6870  -54.1534 H         1 LGS1446     0.0000 
     30 H          42.3000   25.2386  -54.6274 H         1 LGS1446     0.0000 
     31 H          42.1746   27.2987  -56.8557 H         1 LGS1446     0.0000 
     32 H          42.2380   27.6501  -55.1201 H         1 LGS1446     0.0000 
     33 H          40.1272   26.4427  -54.7910 H         1 LGS1446     0.0000 
     34 H          40.0667   26.0659  -56.5214 H         1 LGS1446     0.0000 
     35 H          40.1536   28.5859  -56.9527 H         1 LGS1446     0.0000 
     36 H          39.9162   28.8122  -55.2113 H         1 LGS1446     0.0000 
     37 H          37.7711   27.4793  -55.3947 H         1 LGS1446     0.0000 
     38 H          37.9944   27.4478  -57.1522 H         1 LGS1446     0.0000 
     39 H          37.9787   29.9513  -57.1535 H         1 LGS1446     0.0000 
     40 H          37.6220   29.9158  -55.4181 H         1 LGS1446     0.0000 
     41 H          35.9319   28.2753  -57.2861 H         1 LGS1446     0.0000 
     42 H          35.6615   30.0261  -57.2494 H         1 LGS1446     0.0000 
     43 H          35.3865   29.8207  -54.7126 H         1 LGS1446     0.0000 
     44 H          35.3938   28.0625  -54.9329 H         1 LGS1446     0.0000 
     45 H          33.4092   29.9140  -56.1979 H         1 LGS1446     0.0000 
     46 H          33.4142   28.3175  -56.3912 H         1 LGS1446     0.0000 
     47 H          33.0905   28.9519  -54.9493 H         1 LGS1446     0.0000 
     48 H          44.4846   21.4449  -59.2285 H         1 LGS1446     0.0000 
     49 H          45.9791   19.5925  -56.8188 H         1 LGS1446     0.0000 
     50 H          46.3145   21.8478  -53.8349 H         1 LGS1446     0.0000 
     51 H          42.8734   23.3977  -53.2927 H         1 LGS1446     0.0000 
@<TRIPOS>BOND
     1    2    1 1    
     2   48    1 1    
     3    3    2 1    
     4    6    2 1    
     5   23    2 1    
     6    4    3 1    
     7   12    3 1    
     8   24    3 1    
     9    5    4 1    
    10   25    4 1    
    11   26    4 1    
    12   13    5 1    
    13    7    6 1    
    14    8    6 1    
    15   27    6 1    
    16   49    7 1    
    17    9    8 1    
    18   10    8 1    
    19   28    8 1    
    20   50    9 1    
    21   11   10 1    
    22   12   10 1    
    23   29   10 1    
    24   51   11 1    
    25   13   12 1    
    26   14   13 2    
    27   15   14 1    
    28   30   14 1    
    29   16   15 1    
    30   31   15 1    
    31   32   15 1    
    32   17   16 1    
    33   33   16 1    
    34   34   16 1    
    35   18   17 1    
    36   35   17 1    
    37   36   17 1    
    38   19   18 1    
    39   37   18 1    
    40   38   18 1    
    41   20   19 1    
    42   39   19 1    
    43   40   19 1    
    44   21   20 1    
    45   41   20 1    
    46   42   20 1    
    47   22   21 1    
    48   43   21 1    
    49   44   21 1    
    50   45   22 1    
    51   46   22 1    
    52   47   22 1    
@<TRIPOS>SUBSTRUCTURE
     1 LGS1446     1 GROUP   
@<TRIPOS>SET

