#    Name: 3u4o_08E_2_INTS_M
#    Modification time : Mon Mar 24 21:37:39 2014

@<TRIPOS>MOLECULE
3u4o_08E_2_INTS_M
   53     0     9     0     0
SMALL
NO_CHARGES


@<TRIPOS>ATOM
      1 CA         25.2960   -4.3500    6.3590 C.3       3 GLC5        0.0000 
      2 CA         24.6190   -2.6450    5.1660 C.3       9 GLL5        0.0000 
      3 CA         25.9730   -6.0550    7.5520 C.3       6 GLP5        0.0000 
      4 CA         20.7985   -0.2330    4.9450 C.3       3 GLC5        0.0000 
      5 CA         20.9060    0.8790    3.6410 C.3       9 GLL5        0.0000 
      6 CA         20.6910   -1.3450    6.2490 C.3       6 GLP5        0.0000 
      7 CA         18.6430    2.5030    6.4155 C.3       3 GLC5        0.0000 
      8 CA         19.8240    3.0590    4.8990 C.3       9 GLL5        0.0000 
      9 CA         17.4620    1.9470    7.9320 C.3       6 GLP5        0.0000 
     10 CA         26.8070   -2.0550    3.2890 C.3       3 GLC5        0.0000 
     11 CA         25.1200   -3.2060    3.9900 C.3       9 GLL5        0.0000 
     12 CA         28.4940   -0.9040    2.5880 C.3       6 GLP5        0.0000 
     13 CA         19.3985   -0.2525    4.7110 C.3       3 GLC5        0.0000 
     14 CA         19.5450    1.1900    3.5350 C.3       9 GLL5        0.0000 
     15 CA         19.2520   -1.6950    5.8870 C.3       6 GLP5        0.0000 
     16 CA         27.2960   -0.9120   -3.6210 C.3       3 GLC5        0.0000 
     17 CA         25.8670   -0.5770   -2.2310 C.3       9 GLL5        0.0000 
     18 CA         28.7250   -1.2470   -5.0110 C.3       6 GLP5        0.0000 
     19 CA         26.7760   -1.1015    0.2450 C.3       3 GLC5        0.0000 
     20 CA         24.9580   -0.3400    0.4220 C.3       9 GLL5        0.0000 
     21 CA         28.5940   -1.8630    0.0680 C.3       6 GLP5        0.0000 
     22 CA         23.6970    3.3960    5.2050 C.3       3 GLC5        0.0000 
     23 CA         23.2070    1.5120    4.6570 C.3       9 GLL5        0.0000 
     24 CA         24.1870    5.2800    5.7530 C.3       6 GLP5        0.0000 
     25 CA         25.0665    1.5760    4.6980 C.3       3 GLC5        0.0000 
     26 CA         26.9260    1.6400    4.7390 C.3       6 GLP5        0.0000 
     27 O          26.9445    1.5335   -2.2455 O.2       1 ALC1        0.0000 
     28 O          26.2300    0.5140   -1.4890 O.2       7 ALL1        0.0000 
     29 O          27.6590    2.5530   -3.0020 O.2       4 ALP1        0.0000 
     30 N          26.7525    2.9445    0.7415 N.am      2 SEC2        0.0000 
     31 N          26.1760    1.7090    0.4610 N.am      8 SEL2        0.0000 
     32 N          27.3290    4.1800    1.0220 N.am      5 SEP2        0.0000 
     33 CA         27.7885   -4.8720    4.6820 C.3       3 GLC5        0.0000 
     34 CA         25.7400   -4.8090    4.0040 C.3       9 GLL5        0.0000 
     35 CA         29.8370   -4.9350    5.3600 C.3       6 GLP5        0.0000 
     36 CA         25.8565   -5.4320    5.7780 C.3       3 GLC5        0.0000 
     37 CA         24.9405   -5.8235    2.8305 C.3       3 GLC5        0.0000 
     38 CA         24.1410   -6.8380    1.6570 C.3       6 GLP5        0.0000 
     39 CA         24.7370   -2.4538    7.1385 C.3       3 GLC5        0.0000 
     40 CA         25.1030   -2.9140    9.1100 C.3       6 GLP5        0.0000 
     41 CA         20.6627    1.5025    6.1772 C.3       3 GLC5        0.0000 
     42 CA         21.1770    2.8290    5.0620 C.3       9 GLL5        0.0000 
     43 CA         20.8250    0.0610    7.3740 C.3       6 GLP5        0.0000 
     44 CA         26.6062   -0.9557    2.4312 C.3       3 GLC5        0.0000 
     45 CA         24.6570   -1.1780    2.7680 C.3       9 GLL5        0.0000 
     46 CA         21.3431    2.9588    6.5739 C.3       3 GLC5        0.0000 
     47 CA         21.7340    1.7150    4.4250 C.3       9 GLL5        0.0000 
     48 CA         21.5690    3.5880    8.4450 C.3       6 GLP5        0.0000 
     49 CA         21.6477    0.8373    5.9575 C.3       3 GLC5        0.0000 
     50 CA         22.4805   -1.3306    5.4038 C.3       3 GLC5        0.0000 
     51 CA         24.1690   -0.6390    3.9500 C.3       9 GLL5        0.0000 
     52 CA         26.9785   -1.4431   -0.7792 C.3       3 GLC5        0.0000 
     53 CA         24.6290   -1.4070   -0.3450 C.3       9 GLL5        0.0000 
@<TRIPOS>BOND
@<TRIPOS>SUBSTRUCTURE
     1 ALC1       27 GROUP        1 X    ALC  0     ROOT ALC X 1
     2 SEC2       30 GROUP        1 X    SEC  0     **** SEC X 2
     3 GLC5        1 GROUP        1 X    GLC  0     **** GLC X 6
     4 ALP1       29 GROUP        1 Y    ALP  0     ROOT ALP Y 8
     5 SEP2       32 GROUP        1 Y    SEP  0     **** SEP Y 9
     6 GLP5        3 GROUP        1 Y    GLP  0     **** GLP Y 13
     7 ALL1       28 GROUP        1 Z    ALL  0     ROOT ALL Z 15
     8 SEL2       31 GROUP        1 Z    SEL  0     **** SEL Z 16
     9 GLL5        2 GROUP        1 Z    GLL  0     **** GLL Z 20
@<TRIPOS>SET

