#    Name: 3u4o_08E_2_ligand
#    Modification time : Mon Mar 24 21:37:39 2014

@<TRIPOS>MOLECULE
3u4o_08E_2_ligand
   42    45     1     0     0
SMALL
NO_CHARGES


@<TRIPOS>ATOM
      1 C10        24.1230   -1.3420    5.1680 C.ar      1 08E579      0.0000 
      2 C9         24.6190   -2.6450    5.1660 C.ar      1 08E579      0.0000 
      3 C21        21.1770    2.8290    5.0620 C.ar      1 08E579      0.0000 
      4 C2         25.1410   -2.5000    2.7880 C.ar      1 08E579      0.0000 
      5 C25        20.9060    0.8790    3.6410 C.ar      1 08E579      0.0000 
      6 C22        19.8240    3.0590    4.8990 C.ar      1 08E579      0.0000 
      7 C4         24.6570   -1.1780    2.7680 C.ar      1 08E579      0.0000 
      8 C8         24.5380   -0.1760    1.7710 C.2       1 08E579      0.0000 
      9 C20        21.7340    1.7150    4.4250 C.ar      1 08E579      0.0000 
     10 C5         24.1690   -0.6390    3.9500 C.ar      1 08E579      0.0000 
     11 C3         25.1200   -3.2060    3.9900 C.ar      1 08E579      0.0000 
     12 C7         23.9910    0.9640    2.3400 C.2       1 08E579      0.0000 
     13 C24        19.5450    1.1900    3.5350 C.ar      1 08E579      0.0000 
     14 C18        25.0890   -1.5320   -1.6990 C.2       1 08E579      0.0000 
     15 C17        24.6290   -1.4070   -0.3450 C.2       1 08E579      0.0000 
     16 C19        25.8670   -0.5770   -2.2310 C.2       1 08E579      0.0000 
     17 C1         24.9580   -0.3400    0.4220 C.2       1 08E579      0.0000 
     18 C15        25.8320    0.7170   -0.1790 C.2       1 08E579      0.0000 
     19 C11        23.6630    2.2850    1.8170 C.2       1 08E579      0.0000 
     20 C12        23.2070    1.5120    4.6570 C.3       1 08E579      0.0000 
     21 N23        19.0030    2.2690    4.1600 N.ar      1 08E579      0.0000 
     22 N6         23.7840    0.6340    3.6610 N.pl3     1 08E579      0.0000 
     23 N16        26.2300    0.5140   -1.4890 N.am      1 08E579      0.0000 
     24 N27        18.6960    0.3770    2.7770 N.pl3     1 08E579      0.0000 
     25 O28        26.1760    1.7090    0.4610 O.2       1 08E579      0.0000 
     26 O13        23.1750    2.2450    0.5540 O.co2     1 08E579      0.0000 
     27 O14        23.8020    3.3390    2.4090 O.co2     1 08E579      0.0000 
     28 CL2        25.7400   -4.8090    4.0040 Cl        1 08E579      0.0000 
     29 H          23.7486   -0.9188    5.9979 H         1 08E579      0.0000 
     30 H          24.6161   -3.1962    6.0347 H         1 08E579      0.0000 
     31 H          21.7548    3.4440    5.6243 H         1 08E579      0.0000 
     32 H          25.4984   -2.9268    1.9372 H         1 08E579      0.0000 
     33 H          21.2960    0.0721    3.1676 H         1 08E579      0.0000 
     34 H          19.4100    3.9086    5.3857 H         1 08E579      0.0000 
     35 H          24.7998   -2.3673   -2.2253 H         1 08E579      0.0000 
     36 H          24.0306   -2.1722    0.0240 H         1 08E579      0.0000 
     37 H          26.2034   -0.6557   -3.2151 H         1 08E579      0.0000 
     38 H          23.3470    1.0987    5.6701 H         1 08E579      0.0000 
     39 H          23.7018    2.4978    4.6422 H         1 08E579      0.0000 
     40 H          26.8493    1.2469   -1.9358 H         1 08E579      0.0000 
     41 H          17.7446    0.6772    2.7087 H         1 08E579      0.0000 
     42 H          19.1132   -0.4348    2.3684 H         1 08E579      0.0000 
@<TRIPOS>BOND
     1    2    1 ar   
     2   10    1 ar   
     3   29    1 1    
     4   11    2 ar   
     5   30    2 1    
     6    6    3 ar   
     7    9    3 ar   
     8   31    3 1    
     9    7    4 ar   
    10   11    4 ar   
    11   32    4 1    
    12    9    5 ar   
    13   13    5 ar   
    14   33    5 1    
    15   21    6 ar   
    16   34    6 1    
    17    8    7 1    
    18   10    7 ar   
    19   12    8 2    
    20   17    8 1    
    21   20    9 1    
    22   22   10 1    
    23   28   11 1    
    24   19   12 1    
    25   22   12 1    
    26   21   13 ar   
    27   24   13 1    
    28   15   14 1    
    29   16   14 2    
    30   35   14 1    
    31   17   15 2    
    32   36   15 1    
    33   23   16 1    
    34   37   16 1    
    35   18   17 1    
    36   23   18 am   
    37   25   18 2    
    38   26   19 ar   
    39   27   19 ar   
    40   22   20 1    
    41   38   20 1    
    42   39   20 1    
    43   40   23 1    
    44   41   24 1    
    45   42   24 1    
@<TRIPOS>SUBSTRUCTURE
     1 08E579      1 GROUP   
@<TRIPOS>SET

