#    Name: 2qbu_SAH_2_INTS_M
#    Modification time : Mon Mar 24 21:43:50 2014

@<TRIPOS>MOLECULE
2qbu_SAH_2_INTS_M
   95     0     9     0     0
SMALL
NO_CHARGES


@<TRIPOS>ATOM
      1 O         -42.6740   34.1055    0.6190 O.2       1 ALC1        0.0000 
      2 O         -42.1790   33.0080   -0.1000 O.2       7 ALL1        0.0000 
      3 O         -43.1690   35.2030    1.3380 O.2       4 ALP1        0.0000 
      4 O         -41.6180   34.0595   -0.9635 O.2       1 ALC1        0.0000 
      5 O         -41.0570   35.1110   -1.8270 O.2       4 ALP1        0.0000 
      6 O         -41.8065   32.1895   -1.0710 O.2       1 ALC1        0.0000 
      7 O         -41.4340   31.3710   -2.0420 O.2       4 ALP1        0.0000 
      8 CA        -41.5260   34.2350    2.0200 C.3       3 GLC5        0.0000 
      9 CA        -41.9900   32.3210    1.2150 C.3       9 GLL5        0.0000 
     10 CA        -41.0620   36.1490    2.8250 C.3       6 GLP5        0.0000 
     11 CA        -40.6045   29.5385    1.4190 C.3       3 GLC5        0.0000 
     12 CA        -42.2530   30.8190    1.0920 C.3       9 GLL5        0.0000 
     13 CA        -38.9560   28.2580    1.7460 C.3       6 GLP5        0.0000 
     14 N         -40.0035   34.7375    0.7900 N.am      2 SEC2        0.0000 
     15 N         -39.8140   33.2720    0.9890 N.am      8 SEL2        0.0000 
     16 N         -40.1930   36.2030    0.5910 N.am      5 SEP2        0.0000 
     17 N         -38.4660   32.9710    1.1880 N.am      2 SEC2        0.0000 
     18 N         -37.1180   32.6700    1.3870 N.am      5 SEP2        0.0000 
     19 N         -38.6430   32.4030    2.0830 N.am      2 SEC2        0.0000 
     20 N         -40.1680   32.1360    2.7790 N.am      8 SEL2        0.0000 
     21 N         -39.0350   32.5905    3.5500 N.am      2 SEC2        0.0000 
     22 N         -37.9020   33.0450    4.3210 N.am      5 SEP2        0.0000 
     23 N         -39.6370   31.2955    3.6575 N.am      2 SEC2        0.0000 
     24 N         -39.1060   30.4550    4.5360 N.am      5 SEP2        0.0000 
     25 CA        -46.1240   27.6060    2.9020 C.3       3 GLC5        0.0000 
     26 CA        -44.4280   28.4580    2.5920 C.3       9 GLL5        0.0000 
     27 CA        -47.8200   26.7540    3.2120 C.3       6 GLP5        0.0000 
     28 CA        -41.6975   26.8405    2.7070 C.3       3 GLC5        0.0000 
     29 CA        -43.2770   27.8070    3.3430 C.3       9 GLL5        0.0000 
     30 CA        -40.1180   25.8740    2.0710 C.3       6 GLP5        0.0000 
     31 CA        -45.7705   26.9525    3.9260 C.3       3 GLC5        0.0000 
     32 CA        -43.7210   27.1510    4.6400 C.3       9 GLL5        0.0000 
     33 CA        -44.8520   28.4615    5.7695 C.3       3 GLC5        0.0000 
     34 CA        -45.9830   29.7720    6.8990 C.3       6 GLP5        0.0000 
     35 N         -43.1740   24.5615    4.2600 N.am      2 SEC2        0.0000 
     36 N         -44.1880   25.8440    4.4440 N.am      8 SEL2        0.0000 
     37 N         -42.1600   23.2790    4.0760 N.am      5 SEP2        0.0000 
     38 O         -44.9140   25.7000    5.8030 O.2       1 ALC1        0.0000 
     39 O         -44.1880   25.8440    4.4440 O.2       7 ALL1        0.0000 
     40 O         -45.6400   25.5560    7.1620 O.2       4 ALP1        0.0000 
     41 CA        -43.6695   27.4420    7.1095 C.3       3 GLC5        0.0000 
     42 CA        -42.4650   27.1950    5.4620 C.3       9 GLL5        0.0000 
     43 CA        -44.8740   27.6890    8.7570 C.3       6 GLP5        0.0000 
     44 N         -41.8780   24.7460    4.5180 N.am      2 SEC2        0.0000 
     45 N         -41.5960   26.2130    4.9600 N.am      8 SEL2        0.0000 
     46 O         -40.4425   26.5780    5.7875 O.2       1 ALC1        0.0000 
     47 O         -41.5960   26.2130    4.9600 O.2       7 ALL1        0.0000 
     48 O         -39.2890   26.9430    6.6150 O.2       4 ALP1        0.0000 
     49 CA        -40.5410   29.9735    5.2975 C.3       3 GLC5        0.0000 
     50 CA        -41.8210   28.5130    5.0360 C.3       9 GLL5        0.0000 
     51 CA        -39.2610   31.4340    5.5590 C.3       6 GLP5        0.0000 
     52 CA        -40.8985   33.2685    8.5745 C.3       3 GLC5        0.0000 
     53 CA        -41.8110   31.3000    9.0580 C.3       9 GLL5        0.0000 
     54 CA        -39.9860   35.2370    8.0910 C.3       6 GLP5        0.0000 
     55 CA        -42.4965   30.9700   11.0825 C.3       3 GLC5        0.0000 
     56 CA        -43.1820   30.6400   13.1070 C.3       6 GLP5        0.0000 
     57 CA        -40.2935   31.5665   10.3160 C.3       3 GLC5        0.0000 
     58 CA        -38.7760   31.8330   11.5740 C.3       6 GLP5        0.0000 
     59 CA        -43.1435   32.1840   10.2295 C.3       3 GLC5        0.0000 
     60 CA        -44.4760   33.0680   11.4010 C.3       6 GLP5        0.0000 
     61 O         -42.6055   33.8055    9.2080 O.2       1 ALC1        0.0000 
     62 O         -42.1830   32.5020    9.5060 O.2       7 ALL1        0.0000 
     63 O         -43.0280   35.1090    8.9100 O.2       4 ALP1        0.0000 
     64 O         -41.4785   33.3800   10.6465 O.2       1 ALC1        0.0000 
     65 O         -40.7740   34.2580   11.7870 O.2       4 ALP1        0.0000 
     66 N         -41.0690   30.9425   11.1760 N.am      2 SEC2        0.0000 
     67 N         -41.1330   30.3980    9.8560 N.am      8 SEL2        0.0000 
     68 N         -41.0050   31.4870   12.4960 N.am      5 SEP2        0.0000 
     69 CA        -38.9255   29.2640    9.4215 C.3       3 GLC5        0.0000 
     70 CA        -40.7050   29.1730    9.3800 C.3       9 GLL5        0.0000 
     71 CA        -37.1460   29.3550    9.4630 C.3       6 GLP5        0.0000 
     72 CA        -41.1665   28.1735   11.2570 C.3       3 GLC5        0.0000 
     73 CA        -41.6280   27.1740   13.1340 C.3       6 GLP5        0.0000 
     74 CA        -39.7405   30.5030   10.4770 C.3       3 GLC5        0.0000 
     75 CA        -42.8935   29.1600    9.2725 C.3       3 GLC5        0.0000 
     76 CA        -45.0820   29.1470    9.1650 C.3       6 GLP5        0.0000 
     77 CA        -41.3725   27.2345    9.4550 C.3       3 GLC5        0.0000 
     78 CA        -42.0400   25.2960    9.5300 C.3       6 GLP5        0.0000 
     79 CA        -39.4500   27.6980    8.2855 C.3       3 GLC5        0.0000 
     80 CA        -38.1950   26.2230    7.1910 C.3       6 GLP5        0.0000 
     81 N         -40.1385   27.8890    7.3495 N.am      2 SEC2        0.0000 
     82 N         -40.9880   28.8350    8.0840 N.am      8 SEL2        0.0000 
     83 N         -39.2890   26.9430    6.6150 N.am      5 SEP2        0.0000 
     84 CA        -43.2503   28.9210   -0.8915 C.3       3 GLC5        0.0000 
     85 CA        -43.7320   30.4600    0.8880 C.3       9 GLL5        0.0000 
     86 CA        -42.6440   28.2800   -2.6530 C.3       6 GLP5        0.0000 
     87 CA        -44.2878   26.8150    1.2210 C.3       3 GLC5        0.0000 
     88 CA        -43.9810   28.6640    0.8520 C.3       9 GLL5        0.0000 
     89 CA        -44.3710   25.0690    0.7200 C.3       6 GLP5        0.0000 
     90 CA        -43.9350   26.2740    2.3557 C.3       3 GLC5        0.0000 
     91 CA        -41.1305   26.8640    3.6600 C.3       3 GLC5        0.0000 
     92 CA        -40.5336   30.9237    6.7000 C.3       3 GLC5        0.0000 
     93 CA        -42.0800   30.9440    7.7480 C.3       9 GLL5        0.0000 
     94 CA        -43.4441   29.7802    8.5030 C.3       3 GLC5        0.0000 
     95 CA        -41.6670   29.7050    7.2790 C.3       9 GLL5        0.0000 
@<TRIPOS>BOND
@<TRIPOS>SUBSTRUCTURE
     1 ALC1        1 GROUP        1 X    ALC  0     ROOT ALC X 1
     2 SEC2       14 GROUP        1 X    SEC  0     **** SEC X 2
     3 GLC5        8 GROUP        1 X    GLC  0     **** GLC X 6
     4 ALP1        3 GROUP        1 Y    ALP  0     ROOT ALP Y 8
     5 SEP2       16 GROUP        1 Y    SEP  0     **** SEP Y 9
     6 GLP5       10 GROUP        1 Y    GLP  0     **** GLP Y 13
     7 ALL1        2 GROUP        1 Z    ALL  0     ROOT ALL Z 15
     8 SEL2       15 GROUP        1 Z    SEL  0     **** SEL Z 16
     9 GLL5        9 GROUP        1 Z    GLL  0     **** GLL Z 20
@<TRIPOS>SET

