#    Name: 2qbu_SAH_2_ligand
#    Modification time : Mon Mar 24 21:43:51 2014

@<TRIPOS>MOLECULE
2qbu_SAH_2_ligand
   46    48     1     0     0
SMALL
NO_CHARGES


@<TRIPOS>ATOM
      1 N         -42.1790   33.0080   -0.1000 N.4       1 SAH502      0.0000 
      2 CA        -41.9900   32.3210    1.2150 C.3       1 SAH502      0.0000 
      3 CB        -42.2530   30.8190    1.0920 C.3       1 SAH502      0.0000 
      4 CG        -43.7320   30.4600    0.8880 C.3       1 SAH502      0.0000 
      5 SD        -43.9810   28.6640    0.8520 S.3       1 SAH502      0.0000 
      6 C         -40.5680   32.5900    1.6960 C.2       1 SAH502      0.0000 
      7 O         -39.8140   33.2720    0.9890 O.co2     1 SAH502      0.0000 
      8 OXT       -40.1680   32.1360    2.7790 O.co2     1 SAH502      0.0000 
      9 C5'       -44.4280   28.4580    2.5920 C.3       1 SAH502      0.0000 
     10 C4'       -43.2770   27.8070    3.3430 C.3       1 SAH502      0.0000 
     11 O4'       -42.3030   28.7860    3.7250 O.3       1 SAH502      0.0000 
     12 C3'       -43.7210   27.1510    4.6400 C.3       1 SAH502      0.0000 
     13 O3'       -44.1880   25.8440    4.4440 O.3       1 SAH502      0.0000 
     14 C2'       -42.4650   27.1950    5.4620 C.3       1 SAH502      0.0000 
     15 O2'       -41.5960   26.2130    4.9600 O.3       1 SAH502      0.0000 
     16 C1'       -41.8210   28.5130    5.0360 C.3       1 SAH502      0.0000 
     17 N9        -42.0660   29.6320    5.9650 N.pl3     1 SAH502      0.0000 
     18 C8        -42.6950   30.8130    5.6620 C.2       1 SAH502      0.0000 
     19 N7        -42.7000   31.6070    6.7510 N.2       1 SAH502      0.0000 
     20 C5        -42.0800   30.9440    7.7480 C.ar      1 SAH502      0.0000 
     21 C6        -41.8110   31.3000    9.0580 C.ar      1 SAH502      0.0000 
     22 N6        -42.1830   32.5020    9.5060 N.pl3     1 SAH502      0.0000 
     23 N1        -41.1330   30.3980    9.8560 N.ar      1 SAH502      0.0000 
     24 C2        -40.7050   29.1730    9.3800 C.ar      1 SAH502      0.0000 
     25 N3        -40.9880   28.8350    8.0840 N.ar      1 SAH502      0.0000 
     26 C4        -41.6670   29.7050    7.2790 C.ar      1 SAH502      0.0000 
     27 H         -42.6766   32.7384    1.9360 H         1 SAH502      0.0000 
     28 H         -41.8882   30.3155    2.0009 H         1 SAH502      0.0000 
     29 H         -41.6718   30.4214    0.2454 H         1 SAH502      0.0000 
     30 H         -44.1158   30.7655   -0.0589 H         1 SAH502      0.0000 
     31 H         -44.3575   30.7638    1.6965 H         1 SAH502      0.0000 
     32 H         -45.2987   27.8541    2.5349 H         1 SAH502      0.0000 
     33 H         -44.6293   29.4545    2.8963 H         1 SAH502      0.0000 
     34 H         -42.8250   27.0516    2.7233 H         1 SAH502      0.0000 
     35 H         -44.4354   27.8078    5.0988 H         1 SAH502      0.0000 
     36 H         -42.6440   27.1860    6.4479 H         1 SAH502      0.0000 
     37 H         -40.7347   28.3185    4.9798 H         1 SAH502      0.0000 
     38 H         -43.0715   31.0289    4.7975 H         1 SAH502      0.0000 
     39 H         -42.6081   33.1095    8.8350 H         1 SAH502      0.0000 
     40 H         -42.0030   32.6865   10.4722 H         1 SAH502      0.0000 
     41 H         -40.1861   28.5343    9.9904 H         1 SAH502      0.0000 
     42 H         -41.3416   33.4610   -0.4060 H         1 SAH502      0.0000 
     43 H         -42.4448   32.3663   -0.8195 H         1 SAH502      0.0000 
     44 H         -42.8912   33.7085   -0.0541 H         1 SAH502      0.0000 
     45 H         -44.6772   25.6152    5.2856 H         1 SAH502      0.0000 
     46 H         -40.7460   26.3331    5.4729 H         1 SAH502      0.0000 
@<TRIPOS>BOND
     1    2    1 1    
     2   42    1 1    
     3   43    1 1    
     4   44    1 1    
     5    3    2 1    
     6    6    2 1    
     7   27    2 1    
     8    4    3 1    
     9   28    3 1    
    10   29    3 1    
    11    5    4 1    
    12   30    4 1    
    13   31    4 1    
    14    9    5 1    
    15    7    6 ar   
    16    8    6 ar   
    17   10    9 1    
    18   32    9 1    
    19   33    9 1    
    20   11   10 1    
    21   12   10 1    
    22   34   10 1    
    23   16   11 1    
    24   13   12 1    
    25   14   12 1    
    26   35   12 1    
    27   45   13 1    
    28   15   14 1    
    29   16   14 1    
    30   36   14 1    
    31   46   15 1    
    32   17   16 1    
    33   37   16 1    
    34   18   17 1    
    35   26   17 1    
    36   19   18 2    
    37   38   18 1    
    38   20   19 1    
    39   21   20 ar   
    40   26   20 ar   
    41   22   21 1    
    42   23   21 ar   
    43   39   22 1    
    44   40   22 1    
    45   24   23 ar   
    46   25   24 ar   
    47   41   24 1    
    48   26   25 ar   
@<TRIPOS>SUBSTRUCTURE
     1 SAH502      1 GROUP   
@<TRIPOS>SET

