#    Name: 3fkn_FKN_1_INTS_M
#    Modification time : Tue Mar 25 05:38:58 2014

@<TRIPOS>MOLECULE
3fkn_FKN_1_INTS_M
   73     0     9     0     0
SMALL
NO_CHARGES


@<TRIPOS>ATOM
      1 CA         19.1390    8.4760   30.2225 C.3       3 GLC5        0.0000 
      2 CA         21.0190    8.9180   30.7580 C.3       9 GLL5        0.0000 
      3 CA         17.2590    8.0340   29.6870 C.3       6 GLP5        0.0000 
      4 CA         20.8510   10.4040   29.2330 C.3       3 GLC5        0.0000 
      5 CA         20.6830   11.8900   27.7080 C.3       6 GLP5        0.0000 
      6 CA         14.5105    8.8995   32.3645 C.3       3 GLC5        0.0000 
      7 CA         15.9930   10.4450   31.8930 C.3       9 GLL5        0.0000 
      8 CA         13.0280    7.3540   32.8360 C.3       6 GLP5        0.0000 
      9 CA         27.5895    4.1640   31.5940 C.3       3 GLC5        0.0000 
     10 CA         27.4170    4.7870   33.5970 C.3       9 GLL5        0.0000 
     11 CA         27.7620    3.5410   29.5910 C.3       6 GLP5        0.0000 
     12 CA         25.9780   10.9375   30.7570 C.3       3 GLC5        0.0000 
     13 CA         25.2000    9.8310   29.3620 C.3       9 GLL5        0.0000 
     14 CA         26.7560   12.0440   32.1520 C.3       6 GLP5        0.0000 
     15 CA         27.0505   10.6710   28.4680 C.3       3 GLC5        0.0000 
     16 CA         28.9010   11.5110   27.5740 C.3       6 GLP5        0.0000 
     17 CA         24.9275    9.2495   27.6660 C.3       3 GLC5        0.0000 
     18 CA         24.6550    8.6680   25.9700 C.3       6 GLP5        0.0000 
     19 CA         24.1545   10.8345   28.2395 C.3       3 GLC5        0.0000 
     20 CA         23.1090   11.8380   27.1170 C.3       6 GLP5        0.0000 
     21 CA         23.6890    6.1615   33.3545 C.3       3 GLC5        0.0000 
     22 CA         25.0000    7.3120   32.5210 C.3       9 GLL5        0.0000 
     23 CA         22.3780    5.0110   34.1880 C.3       6 GLP5        0.0000 
     24 CA         22.8780   12.2845   32.6265 C.3       3 GLC5        0.0000 
     25 CA         22.5610   10.6910   31.4980 C.3       9 GLL5        0.0000 
     26 CA         23.1950   13.8780   33.7550 C.3       6 GLP5        0.0000 
     27 CA         21.6220   11.2905   29.6030 C.3       3 GLC5        0.0000 
     28 N          22.7465    5.9290   30.3385 N.am      2 SEC2        0.0000 
     29 N          22.4360    7.2030   30.7160 N.am      8 SEL2        0.0000 
     30 N          23.0570    4.6550   29.9610 N.am      5 SEP2        0.0000 
     31 O          20.3600    6.5880   30.0965 O.2       1 ALC1        0.0000 
     32 O          21.1060    7.6130   30.4940 O.2       7 ALL1        0.0000 
     33 O          19.6140    5.5630   29.6990 O.2       4 ALP1        0.0000 
     34 CA         20.4705   11.5040   29.3825 C.3       3 GLC5        0.0000 
     35 CA         20.2580   11.1180   31.0570 C.3       9 GLL5        0.0000 
     36 CA         17.0925   13.2025   32.1490 C.3       3 GLC5        0.0000 
     37 CA         17.9010   11.5950   30.9520 C.3       9 GLL5        0.0000 
     38 CA         16.2840   14.8100   33.3460 C.3       6 GLP5        0.0000 
     39 CA         19.2170   10.5475   34.3615 C.3       3 GLC5        0.0000 
     40 CA         18.0060   10.5780   33.1180 C.3       9 GLL5        0.0000 
     41 CA         20.4280   10.5170   35.6050 C.3       6 GLP5        0.0000 
     42 CA         16.9135    9.4585   34.7195 C.3       3 GLC5        0.0000 
     43 CA         15.8210    8.3390   36.3210 C.3       6 GLP5        0.0000 
     44 CA         12.3760   10.1285   30.0415 C.3       3 GLC5        0.0000 
     45 CA         13.9750   10.3020   30.6630 C.3       9 GLL5        0.0000 
     46 CA         10.7770    9.9550   29.4200 C.3       6 GLP5        0.0000 
     47 CA         13.5015    8.8280   31.7495 C.3       3 GLC5        0.0000 
     48 CA         14.9525    8.9170   29.8905 C.3       3 GLC5        0.0000 
     49 CA         15.9300    7.5320   29.1180 C.3       6 GLP5        0.0000 
     50 CA         20.4932    8.2377   32.1393 C.3       3 GLC5        0.0000 
     51 CA         19.2940    7.3370   33.3170 C.3       6 GLP5        0.0000 
     52 CA         16.6928   10.9118   28.0132 C.3       3 GLC5        0.0000 
     53 CA         15.8220   11.4510   29.7020 C.3       9 GLL5        0.0000 
     54 CA         16.8990   10.1580   26.2720 C.3       6 GLP5        0.0000 
     55 CA         16.3963    9.5633   29.9567 C.3       3 GLC5        0.0000 
     56 CA         28.3212    7.5490   30.3068 C.3       3 GLC5        0.0000 
     57 CA         26.9870    8.6250   31.0810 C.3       9 GLL5        0.0000 
     58 CA         29.4820    6.8810   28.9950 C.3       6 GLP5        0.0000 
     59 CA         24.5813    7.2218   29.3979 C.3       3 GLC5        0.0000 
     60 CA         25.6420    8.7870   30.7370 C.3       9 GLL5        0.0000 
     61 CA         24.1270    5.7210   28.0460 C.3       6 GLP5        0.0000 
     62 CA         17.3925    9.8858   30.0333 C.3       3 GLC5        0.0000 
     63 CA         19.1045   11.8138   29.0437 C.3       3 GLC5        0.0000 
     64 CA         18.4775    9.0312   32.9368 C.3       3 GLC5        0.0000 
     65 CA         17.3160   10.8730   31.9950 C.3       9 GLL5        0.0000 
     66 CA         16.6471   11.6988   33.6235 C.3       3 GLC5        0.0000 
     67 CA         15.9640   12.7790   34.7160 C.3       6 GLP5        0.0000 
     68 CA         17.2946    9.3262   31.1090 C.3       3 GLC5        0.0000 
     69 CA         13.8221   12.1396   29.4644 C.3       3 GLC5        0.0000 
     70 CA         15.2450   10.7340   30.7510 C.3       9 GLL5        0.0000 
     71 CA         12.8900   13.5820   28.4840 C.3       6 GLP5        0.0000 
     72 CA         13.4575   11.1819   31.8262 C.3       3 GLC5        0.0000 
     73 CA         12.1180   11.9180   32.6600 C.3       6 GLP5        0.0000 
@<TRIPOS>BOND
@<TRIPOS>SUBSTRUCTURE
     1 ALC1       31 GROUP        1 X    ALC  0     ROOT ALC X 1
     2 SEC2       28 GROUP        1 X    SEC  0     **** SEC X 2
     3 GLC5        1 GROUP        1 X    GLC  0     **** GLC X 6
     4 ALP1       33 GROUP        1 Y    ALP  0     ROOT ALP Y 8
     5 SEP2       30 GROUP        1 Y    SEP  0     **** SEP Y 9
     6 GLP5        3 GROUP        1 Y    GLP  0     **** GLP Y 13
     7 ALL1       32 GROUP        1 Z    ALL  0     ROOT ALL Z 15
     8 SEL2       29 GROUP        1 Z    SEL  0     **** SEL Z 16
     9 GLL5        2 GROUP        1 Z    GLL  0     **** GLL Z 20
@<TRIPOS>SET

