#    Name: 3fkn_FKN_1_ligand
#    Modification time : Tue Mar 25 05:38:58 2014

@<TRIPOS>MOLECULE
3fkn_FKN_1_ligand
   40    43     1     0     0
SMALL
NO_CHARGES


@<TRIPOS>ATOM
      1 C5         22.3660    9.3590   31.1650 C.ar      1 FKN361      0.0000 
      2 C6         21.0190    8.9180   30.7580 C.ar      1 FKN361      0.0000 
      3 C13        15.8220   11.4510   29.7020 C.ar      1 FKN361      0.0000 
      4 C15        15.9930   10.4450   31.8930 C.ar      1 FKN361      0.0000 
      5 C20        26.9870    8.6250   31.0810 C.ar      1 FKN361      0.0000 
      6 C21        27.3340    7.8090   32.1560 C.ar      1 FKN361      0.0000 
      7 C22        26.3390    7.1460   32.8760 C.ar      1 FKN361      0.0000 
      8 C28        27.4170    4.7870   33.5970 C.3       1 FKN361      0.0000 
      9 O29        27.6850    6.9380   34.9130 O.2       1 FKN361      0.0000 
     10 S26        26.7360    6.2120   34.1140 S.o2      1 FKN361      0.0000 
     11 O27        25.5830    5.8970   34.9070 O.2       1 FKN361      0.0000 
     12 C19        25.6420    8.7870   30.7370 C.ar      1 FKN361      0.0000 
     13 CL24       25.2000    9.8310   29.3620 Cl        1 FKN361      0.0000 
     14 C23        25.0000    7.3120   32.5210 C.ar      1 FKN361      0.0000 
     15 C18        24.6500    8.1360   31.4500 C.ar      1 FKN361      0.0000 
     16 C9         23.2020    8.2500   31.1170 C.2       1 FKN361      0.0000 
     17 C1         22.5610   10.6910   31.4980 C.ar      1 FKN361      0.0000 
     18 N8         22.4360    7.2030   30.7160 N.2       1 FKN361      0.0000 
     19 N7         21.1060    7.6130   30.4940 N.pl3     1 FKN361      0.0000 
     20 N4         20.0200    9.8280   30.7230 N.ar      1 FKN361      0.0000 
     21 C3         20.2580   11.1180   31.0570 C.ar      1 FKN361      0.0000 
     22 N2         21.5040   11.5210   31.4280 N.ar      1 FKN361      0.0000 
     23 O10        19.2160   12.0250   31.0210 O.3       1 FKN361      0.0000 
     24 C11        17.9010   11.5950   30.9520 C.ar      1 FKN361      0.0000 
     25 C16        17.3160   10.8730   31.9950 C.ar      1 FKN361      0.0000 
     26 F25        18.0060   10.5780   33.1180 F         1 FKN361      0.0000 
     27 C14        15.2450   10.7340   30.7510 C.ar      1 FKN361      0.0000 
     28 F17        13.9750   10.3020   30.6630 F         1 FKN361      0.0000 
     29 C12        17.1510   11.8800   29.8070 C.ar      1 FKN361      0.0000 
     30 H          15.2798   11.6629   28.8611 H         1 FKN361      0.0000 
     31 H          15.5655    9.9133   32.6635 H         1 FKN361      0.0000 
     32 H          27.7150    9.1061   30.5426 H         1 FKN361      0.0000 
     33 H          28.3195    7.6951   32.4187 H         1 FKN361      0.0000 
     34 H          24.2654    6.8239   33.0520 H         1 FKN361      0.0000 
     35 H          23.4879   11.0140   31.7859 H         1 FKN361      0.0000 
     36 H          20.4127    7.0208   30.2027 H         1 FKN361      0.0000 
     37 H          17.5781   12.4092   29.0346 H         1 FKN361      0.0000 
     38 H          28.2481    4.9446   33.0637 H         1 FKN361      0.0000 
     39 H          27.6682    4.1959   34.3635 H         1 FKN361      0.0000 
     40 H          26.7912    4.2652   33.0172 H         1 FKN361      0.0000 
@<TRIPOS>BOND
     1    2    1 ar   
     2   16    1 1    
     3   17    1 ar   
     4   19    2 1    
     5   20    2 ar   
     6   27    3 ar   
     7   29    3 ar   
     8   30    3 1    
     9   25    4 ar   
    10   27    4 ar   
    11   31    4 1    
    12    6    5 ar   
    13   12    5 ar   
    14   32    5 1    
    15    7    6 ar   
    16   33    6 1    
    17   10    7 1    
    18   14    7 ar   
    19   10    8 1    
    20   38    8 1    
    21   39    8 1    
    22   40    8 1    
    23   10    9 2    
    24   11   10 2    
    25   13   12 1    
    26   15   12 ar   
    27   15   14 ar   
    28   34   14 1    
    29   16   15 1    
    30   18   16 2    
    31   22   17 ar   
    32   35   17 1    
    33   19   18 1    
    34   36   19 1    
    35   21   20 ar   
    36   22   21 ar   
    37   23   21 1    
    38   24   23 1    
    39   25   24 ar   
    40   29   24 ar   
    41   26   25 1    
    42   28   27 1    
    43   37   29 1    
@<TRIPOS>SUBSTRUCTURE
     1 FKN361      1 GROUP   
@<TRIPOS>SET

