#    Name: 4m9a_FDA_1_INTS_M
#    Modification time : Tue Mar 25 11:58:15 2014

@<TRIPOS>MOLECULE
4m9a_FDA_1_INTS_M
  109     0    12     0     0
SMALL
NO_CHARGES


@<TRIPOS>ATOM
      1 N          -7.8715  -34.3845   29.9375 N.am      2 SEC2        0.0000 
      2 N          -7.1500  -34.6710   31.2690 N.am     10 SEL2        0.0000 
      3 N          -8.5930  -34.0980   28.6060 N.am      6 SEP2        0.0000 
      4 N          -6.6305  -33.6445   30.2115 N.am      2 SEC2        0.0000 
      5 N          -6.1110  -32.6180   29.1540 N.am      6 SEP2        0.0000 
      6 NZ         -8.6605  -36.4185   33.6780 N.4       3 LYC4        0.0000 
      7 NZ         -7.2970  -35.7930   33.6640 N.4      11 LYL4        0.0000 
      8 NZ         -9.5370  -37.9810   34.4960 N.4       7 LYP4        0.0000 
      9 N          -7.7565  -36.9250   34.1660 N.am      2 SEC2        0.0000 
     10 N          -7.2970  -35.7930   33.6640 N.am     10 SEL2        0.0000 
     11 N          -8.2160  -38.0570   34.6680 N.am      6 SEP2        0.0000 
     12 N          -8.6605  -36.4185   33.6780 N.am      2 SEC2        0.0000 
     13 N         -10.0240  -37.0440   33.6920 N.am      6 SEP2        0.0000 
     14 CA         -5.7575  -32.3205   35.0275 C.3       4 GLC5        0.0000 
     15 CA         -4.8580  -34.0260   34.3850 C.3      12 GLL5        0.0000 
     16 CA         -6.6570  -30.6150   35.6700 C.3       8 GLP5        0.0000 
     17 CA         -1.2695  -33.4735   34.3515 C.3       4 GLC5        0.0000 
     18 CA         -3.4660  -33.4450   34.1700 C.3      12 GLL5        0.0000 
     19 CA          0.9270  -33.5020   34.5330 C.3       8 GLP5        0.0000 
     20 CA         -2.6000  -32.6870   36.0065 C.3       4 GLC5        0.0000 
     21 CA         -1.7340  -31.9290   37.8430 C.3       8 GLP5        0.0000 
     22 CA         -5.0660  -31.3605   34.5415 C.3       4 GLC5        0.0000 
     23 CA         -3.4750  -32.1060   33.4130 C.3      12 GLL5        0.0000 
     24 O          -2.7220  -30.6575   34.9925 O.2       1 ALC1        0.0000 
     25 O          -2.4530  -31.1770   33.8600 O.2       9 ALL1        0.0000 
     26 O          -2.9910  -30.1380   36.1250 O.2       5 ALP1        0.0000 
     27 N          -2.9890  -30.4550   30.3295 N.am      2 SEC2        0.0000 
     28 N          -2.5040  -31.3600   31.2990 N.am     10 SEL2        0.0000 
     29 N          -3.4740  -29.5500   29.3600 N.am      6 SEP2        0.0000 
     30 N          -1.6975  -30.0840   31.5600 N.am      2 SEC2        0.0000 
     31 N          -0.8910  -28.8080   31.8210 N.am      6 SEP2        0.0000 
     32 CA         -0.6440  -33.5870   33.3730 C.3       4 GLC5        0.0000 
     33 CA         -2.2150  -33.6720   32.2130 C.3      12 GLL5        0.0000 
     34 CA          1.8800  -36.0820   30.1895 C.3       4 GLC5        0.0000 
     35 CA          1.0500  -34.5740   29.3880 C.3      12 GLL5        0.0000 
     36 CA          2.7100  -37.5900   30.9910 C.3       8 GLP5        0.0000 
     37 CA          0.6795  -32.4500   29.4195 C.3       4 GLC5        0.0000 
     38 CA          0.3090  -30.3260   29.4510 C.3       8 GLP5        0.0000 
     39 CA          0.6670  -33.9050   27.8145 C.3       4 GLC5        0.0000 
     40 CA          0.2840  -33.2360   26.2410 C.3       8 GLP5        0.0000 
     41 O         -14.9995  -30.5340   28.7140 O.2       1 ALC1        0.0000 
     42 O         -15.6080  -29.1710   29.0290 O.2       9 ALL1        0.0000 
     43 O         -14.3910  -31.8970   28.3990 O.2       5 ALP1        0.0000 
     44 N         -17.8010  -31.1770   26.6605 N.am      2 SEC2        0.0000 
     45 N         -16.8850  -30.1630   27.4790 N.am     10 SEL2        0.0000 
     46 N         -18.7170  -32.1910   25.8420 N.am      6 SEP2        0.0000 
     47 N         -16.6430  -31.7340   27.3055 N.am      2 SEC2        0.0000 
     48 N         -16.4010  -33.3050   27.1320 N.am      6 SEP2        0.0000 
     49 O         -18.7070  -28.1040   27.3130 O.2       1 ALC1        0.0000 
     50 O         -17.5120  -28.0690   28.0970 O.2       9 ALL1        0.0000 
     51 O         -19.9020  -28.1390   26.5290 O.2       5 ALP1        0.0000 
     52 N         -18.9900  -25.7290   29.9050 N.am      2 SEC2        0.0000 
     53 N         -18.0540  -26.0050   28.7360 N.am     10 SEL2        0.0000 
     54 N         -19.9260  -25.4530   31.0740 N.am      6 SEP2        0.0000 
     55 O         -16.7970  -24.7225   30.9675 O.2       1 ALC1        0.0000 
     56 O         -15.8590  -25.8120   30.5900 O.2       9 ALL1        0.0000 
     57 O         -17.7350  -23.6330   31.3450 O.2       5 ALP1        0.0000 
     58 CA        -15.2970  -24.1120   36.9255 C.3       4 GLC5        0.0000 
     59 CA        -14.5170  -24.4390   35.1450 C.3      12 GLL5        0.0000 
     60 CA        -16.0770  -23.7850   38.7060 C.3       8 GLP5        0.0000 
     61 CA        -14.4890  -22.3305   35.3160 C.3       4 GLC5        0.0000 
     62 CA        -14.4610  -20.2220   35.4870 C.3       8 GLP5        0.0000 
     63 CA        -13.5765  -23.6080   33.4425 C.3       4 GLC5        0.0000 
     64 CA        -12.6360  -22.7770   31.7400 C.3       8 GLP5        0.0000 
     65 CA        -11.4735  -28.0140   35.6645 C.3       4 GLC5        0.0000 
     66 CA        -12.7360  -26.8330   35.3000 C.3      12 GLL5        0.0000 
     67 CA        -10.2110  -29.1950   36.0290 C.3       8 GLP5        0.0000 
     68 CA        -14.2800  -28.3095   35.5035 C.3       4 GLC5        0.0000 
     69 CA        -15.8240  -29.7860   35.7070 C.3       8 GLP5        0.0000 
     70 CA        -13.9605  -31.2040   30.6095 C.3       4 GLC5        0.0000 
     71 CA        -13.3430  -29.3280   30.7720 C.3      12 GLL5        0.0000 
     72 CA        -14.5780  -33.0800   30.4470 C.3       8 GLP5        0.0000 
     73 CA        -13.9520  -30.1175   32.3965 C.3       4 GLC5        0.0000 
     74 CA        -14.5610  -30.9070   34.0210 C.3       8 GLP5        0.0000 
     75 CA        -11.4730  -26.7740   30.7545 C.3       4 GLC5        0.0000 
     76 CA        -11.8880  -28.9700   30.5440 C.3      12 GLL5        0.0000 
     77 CA        -11.0580  -24.5780   30.9650 C.3       8 GLP5        0.0000 
     78 CA         -6.9605  -30.1095   31.1650 C.3       4 GLC5        0.0000 
     79 CA         -8.7210  -31.0140   31.3930 C.3      12 GLL5        0.0000 
     80 CA         -5.2000  -29.2050   30.9370 C.3       8 GLP5        0.0000 
     81 N          -9.4425  -30.9180   34.8010 N.am      2 SEC2        0.0000 
     82 N          -9.9000  -31.9230   34.0330 N.am     10 SEL2        0.0000 
     83 N          -8.9850  -29.9130   35.5690 N.am      6 SEP2        0.0000 
     84 CA         -3.4040  -35.2338   35.1193 C.3       4 GLC5        0.0000 
     85 CA         -2.6460  -36.7320   35.9610 C.3       8 GLP5        0.0000 
     86 CA         -4.2548  -30.7440   31.8182 C.3       4 GLC5        0.0000 
     87 CA         -0.3790  -34.5305   27.4818 C.3       4 GLC5        0.0000 
     88 CA         -0.5000  -35.9920   28.2360 C.3      12 GLL5        0.0000 
     89 CA         -0.4298  -36.7940   30.1534 C.3       4 GLC5        0.0000 
     90 CA         -1.5840  -35.6580   29.2090 C.3      12 GLL5        0.0000 
     91 CA          0.2350  -38.3240   30.8080 C.3       8 GLP5        0.0000 
     92 CA        -16.0420  -28.4245   31.5495 C.3       4 GLC5        0.0000 
     93 CA        -15.2710  -28.1130   29.8060 C.3      12 GLL5        0.0000 
     94 CA        -16.3770  -29.3480   33.3070 C.3       8 GLP5        0.0000 
     95 CA        -15.7625  -27.4627   32.7835 C.3       4 GLC5        0.0000 
     96 CA        -15.1110  -26.0180   31.7100 C.3      12 GLL5        0.0000 
     97 CA        -12.8555  -25.5965   31.3585 C.3       4 GLC5        0.0000 
     98 CA        -14.1950  -27.2120   31.7940 C.3      12 GLL5        0.0000 
     99 CA        -15.1802  -27.6562   33.6593 C.3       4 GLC5        0.0000 
    100 CA        -14.4350  -25.3710   33.9700 C.3      12 GLL5        0.0000 
    101 CA        -12.5460  -24.3230   34.9243 C.3       4 GLC5        0.0000 
    102 CA        -10.6160  -23.7410   35.2910 C.3       8 GLP5        0.0000 
    103 CA        -16.3257  -25.4093   34.7368 C.3       4 GLC5        0.0000 
    104 CA        -17.9880  -25.9720   35.2060 C.3       8 GLP5        0.0000 
    105 CA        -11.8750  -25.2182   34.9838 C.3       4 GLC5        0.0000 
    106 CA        -13.5320  -26.5580   34.0530 C.3      12 GLL5        0.0000 
    107 CA        -12.2673  -25.7860   32.2365 C.3       4 GLC5        0.0000 
    108 CA        -15.0925  -28.3345   32.8428 C.3       4 GLC5        0.0000 
    109 CA        -13.4210  -27.4300   32.9630 C.3      12 GLL5        0.0000 
@<TRIPOS>BOND
@<TRIPOS>SUBSTRUCTURE
     1 ALC1       24 GROUP        1 X    ALC  0     ROOT ALC X 1
     2 SEC2        1 GROUP        1 X    SEC  0     **** SEC X 2
     3 LYC4        6 GROUP        1 X    LYC  0     **** LYC X 4
     4 GLC5       14 GROUP        1 X    GLC  0     **** GLC X 6
     5 ALP1       26 GROUP        1 Y    ALP  0     ROOT ALP Y 8
     6 SEP2        3 GROUP        1 Y    SEP  0     **** SEP Y 9
     7 LYP4        8 GROUP        1 Y    LYP  0     **** LYP Y 11
     8 GLP5       16 GROUP        1 Y    GLP  0     **** GLP Y 13
     9 ALL1       25 GROUP        1 Z    ALL  0     ROOT ALL Z 15
    10 SEL2        2 GROUP        1 Z    SEL  0     **** SEL Z 16
    11 LYL4        7 GROUP        1 Z    LYL  0     **** LYL Z 18
    12 GLL5       15 GROUP        1 Z    GLL  0     **** GLL Z 20
@<TRIPOS>SET

