#    Name: 4m9a_FDA_1_ligand
#    Modification time : Tue Mar 25 11:58:15 2014

@<TRIPOS>MOLECULE
4m9a_FDA_1_ligand
   86    91     1     0     0
SMALL
NO_CHARGES


@<TRIPOS>ATOM
      1 PA         -7.0050  -34.5540   32.7960 P.3       1 FDA401      0.0000 
      2 O1A        -7.1500  -34.6710   31.2690 O.co2     1 FDA401      0.0000 
      3 O2A        -7.2970  -35.7930   33.6640 O.co2     1 FDA401      0.0000 
      4 O5B        -5.4530  -34.0750   33.0700 O.3       1 FDA401      0.0000 
      5 C5B        -4.8580  -34.0260   34.3850 C.3       1 FDA401      0.0000 
      6 C4B        -3.4660  -33.4450   34.1700 C.3       1 FDA401      0.0000 
      7 O4B        -2.6660  -34.3650   33.3980 O.3       1 FDA401      0.0000 
      8 C3B        -3.4750  -32.1060   33.4130 C.3       1 FDA401      0.0000 
      9 O3B        -2.4530  -31.1770   33.8600 O.3       1 FDA401      0.0000 
     10 C2B        -3.1440  -32.4600   31.9860 C.3       1 FDA401      0.0000 
     11 O2B        -2.5040  -31.3600   31.2990 O.3       1 FDA401      0.0000 
     12 C1B        -2.2150  -33.6720   32.2130 C.3       1 FDA401      0.0000 
     13 N9A        -2.2330  -34.5560   31.0360 N.pl3     1 FDA401      0.0000 
     14 C8A        -3.2930  -35.3030   30.5300 C.2       1 FDA401      0.0000 
     15 N7A        -2.9170  -35.9830   29.3970 N.2       1 FDA401      0.0000 
     16 C5A        -1.5840  -35.6580   29.2090 C.ar      1 FDA401      0.0000 
     17 C6A        -0.5000  -35.9920   28.2360 C.ar      1 FDA401      0.0000 
     18 N6A        -0.8000  -36.8270   27.2290 N.pl3     1 FDA401      0.0000 
     19 N1A         0.7510  -35.4290   28.3710 N.ar      1 FDA401      0.0000 
     20 C2A         1.0500  -34.5740   29.3880 C.ar      1 FDA401      0.0000 
     21 N3A         0.1410  -34.2020   30.3200 N.ar      1 FDA401      0.0000 
     22 C4A        -1.1470  -34.7030   30.2750 C.ar      1 FDA401      0.0000 
     23 N1        -15.6080  -29.1710   29.0290 N.am      1 FDA401      0.0000 
     24 C2        -16.6880  -29.1470   28.1950 C.2       1 FDA401      0.0000 
     25 O2        -16.8850  -30.1630   27.4790 O.2       1 FDA401      0.0000 
     26 N3        -17.5120  -28.0690   28.0970 N.am      1 FDA401      0.0000 
     27 C4        -17.2970  -26.9660   28.8430 C.2       1 FDA401      0.0000 
     28 O4        -18.0540  -26.0050   28.7360 O.2       1 FDA401      0.0000 
     29 C4X       -16.1430  -26.8890   29.7780 C.2       1 FDA401      0.0000 
     30 N5        -15.8590  -25.8120   30.5900 N.pl3     1 FDA401      0.0000 
     31 C5X       -15.1110  -26.0180   31.7100 C.ar      1 FDA401      0.0000 
     32 C6        -15.1850  -25.1370   32.8100 C.ar      1 FDA401      0.0000 
     33 C7        -14.4350  -25.3710   33.9700 C.ar      1 FDA401      0.0000 
     34 C7M       -14.5170  -24.4390   35.1450 C.3       1 FDA401      0.0000 
     35 C8        -13.5320  -26.5580   34.0530 C.ar      1 FDA401      0.0000 
     36 C8M       -12.7360  -26.8330   35.3000 C.3       1 FDA401      0.0000 
     37 C9        -13.4210  -27.4300   32.9630 C.ar      1 FDA401      0.0000 
     38 C9A       -14.1950  -27.2120   31.7940 C.ar      1 FDA401      0.0000 
     39 N10       -14.1520  -28.1100   30.6860 N.pl3     1 FDA401      0.0000 
     40 C10       -15.2710  -28.1130   29.8060 C.2       1 FDA401      0.0000 
     41 C1'       -13.3430  -29.3280   30.7720 C.3       1 FDA401      0.0000 
     42 C2'       -11.8880  -28.9700   30.5440 C.3       1 FDA401      0.0000 
     43 O2'       -11.7650  -28.8590   29.1170 O.3       1 FDA401      0.0000 
     44 C3'       -11.0390  -30.0630   31.1900 C.3       1 FDA401      0.0000 
     45 O3'       -10.9030  -29.7670   32.5870 O.3       1 FDA401      0.0000 
     46 C4'        -9.6880  -30.1830   30.5160 C.3       1 FDA401      0.0000 
     47 O4'        -9.9350  -30.8140   29.2060 O.3       1 FDA401      0.0000 
     48 C5'        -8.7210  -31.0140   31.3930 C.3       1 FDA401      0.0000 
     49 O5'        -9.3340  -32.3240   31.5970 O.3       1 FDA401      0.0000 
     50 P          -9.4800  -33.0250   33.0770 P.3       1 FDA401      0.0000 
     51 O1P        -9.9000  -31.9230   34.0330 O.co2     1 FDA401      0.0000 
     52 O2P       -10.3460  -34.2760   32.7970 O.co2     1 FDA401      0.0000 
     53 O3P        -7.8850  -33.3070   33.3910 O.3       1 FDA401      0.0000 
     54 H          -4.7562  -35.0075   34.8139 H         1 FDA401      0.0000 
     55 H          -5.4023  -33.3738   35.0454 H         1 FDA401      0.0000 
     56 H          -3.0025  -33.2765   35.1344 H         1 FDA401      0.0000 
     57 H          -4.4463  -31.6934   33.4405 H         1 FDA401      0.0000 
     58 H          -4.0252  -32.8140   31.5189 H         1 FDA401      0.0000 
     59 H          -1.2174  -33.2791   32.3657 H         1 FDA401      0.0000 
     60 H          -4.1748  -35.3328   30.9308 H         1 FDA401      0.0000 
     61 H          -0.0677  -37.0044   26.5715 H         1 FDA401      0.0000 
     62 H          -1.7290  -37.1971   27.2262 H         1 FDA401      0.0000 
     63 H           2.0320  -34.1871   29.4493 H         1 FDA401      0.0000 
     64 H         -15.0186  -30.0438   29.0672 H         1 FDA401      0.0000 
     65 H         -18.3200  -28.1009   27.4342 H         1 FDA401      0.0000 
     66 H         -16.2071  -24.8776   30.3496 H         1 FDA401      0.0000 
     67 H         -15.7993  -24.3130   32.7550 H         1 FDA401      0.0000 
     68 H         -12.7826  -28.2286   33.0015 H         1 FDA401      0.0000 
     69 H         -13.6485  -30.0493   30.0147 H         1 FDA401      0.0000 
     70 H         -13.4401  -29.7880   31.7549 H         1 FDA401      0.0000 
     71 H         -11.7101  -28.0371   31.0344 H         1 FDA401      0.0000 
     72 H         -11.5731  -31.0059   31.0578 H         1 FDA401      0.0000 
     73 H          -9.2847  -29.1992   30.3847 H         1 FDA401      0.0000 
     74 H          -8.5841  -30.4902   32.3279 H         1 FDA401      0.0000 
     75 H          -7.7796  -31.0939   30.8690 H         1 FDA401      0.0000 
     76 H         -13.9260  -24.7347   35.8955 H         1 FDA401      0.0000 
     77 H         -14.2393  -23.5096   34.9019 H         1 FDA401      0.0000 
     78 H         -15.4465  -24.3814   35.5092 H         1 FDA401      0.0000 
     79 H         -12.1757  -27.6563   35.2089 H         1 FDA401      0.0000 
     80 H         -12.1162  -26.0793   35.5187 H         1 FDA401      0.0000 
     81 H         -13.3267  -26.9670   36.0957 H         1 FDA401      0.0000 
     82 H          -2.9331  -30.5292   34.4514 H         1 FDA401      0.0000 
     83 H          -1.7468  -31.7753   30.7949 H         1 FDA401      0.0000 
     84 H         -11.0928  -29.5535   28.8605 H         1 FDA401      0.0000 
     85 H         -10.5040  -30.5914   32.9885 H         1 FDA401      0.0000 
     86 H          -9.0907  -30.6748   28.6885 H         1 FDA401      0.0000 
@<TRIPOS>BOND
     1    2    1 ar   
     2    3    1 ar   
     3    4    1 1    
     4   53    1 1    
     5    5    4 1    
     6    6    5 1    
     7   54    5 1    
     8   55    5 1    
     9    7    6 1    
    10    8    6 1    
    11   56    6 1    
    12   12    7 1    
    13    9    8 1    
    14   10    8 1    
    15   57    8 1    
    16   82    9 1    
    17   11   10 1    
    18   12   10 1    
    19   58   10 1    
    20   83   11 1    
    21   13   12 1    
    22   59   12 1    
    23   14   13 1    
    24   22   13 1    
    25   15   14 2    
    26   60   14 1    
    27   16   15 1    
    28   17   16 ar   
    29   22   16 ar   
    30   18   17 1    
    31   19   17 ar   
    32   61   18 1    
    33   62   18 1    
    34   20   19 ar   
    35   21   20 ar   
    36   63   20 1    
    37   22   21 ar   
    38   24   23 am   
    39   40   23 1    
    40   64   23 1    
    41   25   24 2    
    42   26   24 am   
    43   27   26 am   
    44   65   26 1    
    45   28   27 2    
    46   29   27 1    
    47   30   29 1    
    48   40   29 2    
    49   31   30 1    
    50   66   30 1    
    51   32   31 ar   
    52   38   31 ar   
    53   33   32 ar   
    54   67   32 1    
    55   34   33 1    
    56   35   33 ar   
    57   76   34 1    
    58   77   34 1    
    59   78   34 1    
    60   36   35 1    
    61   37   35 ar   
    62   79   36 1    
    63   80   36 1    
    64   81   36 1    
    65   38   37 ar   
    66   68   37 1    
    67   39   38 1    
    68   40   39 1    
    69   41   39 1    
    70   42   41 1    
    71   69   41 1    
    72   70   41 1    
    73   43   42 1    
    74   44   42 1    
    75   71   42 1    
    76   84   43 1    
    77   45   44 1    
    78   46   44 1    
    79   72   44 1    
    80   85   45 1    
    81   47   46 1    
    82   48   46 1    
    83   73   46 1    
    84   86   47 1    
    85   49   48 1    
    86   74   48 1    
    87   75   48 1    
    88   50   49 1    
    89   51   50 ar   
    90   52   50 ar   
    91   53   50 1    
@<TRIPOS>SUBSTRUCTURE
     1 FDA401      1 GROUP   
@<TRIPOS>SET

