#    Name: 1dyr_TOP_1_INTS_M
#    Modification time : Mon Mar 24 22:36:02 2014

@<TRIPOS>MOLECULE
1dyr_TOP_1_INTS_M
   61     0     9     0     0
SMALL
NO_CHARGES


@<TRIPOS>ATOM
      1 CA         15.5830    4.0650   -7.0715 C.3       3 GLC5        0.0000 
      2 CA         16.5770    4.0230   -5.2540 C.3       9 GLL5        0.0000 
      3 CA         14.5890    4.1070   -8.8890 C.3       6 GLP5        0.0000 
      4 CA         14.5260    4.3000   -4.7575 C.3       3 GLC5        0.0000 
      5 CA         12.4750    4.5770   -4.2610 C.3       6 GLP5        0.0000 
      6 N          15.2195    1.9510   -5.5080 N.am      2 SEC2        0.0000 
      7 N          15.9140    2.9580   -4.7880 N.am      8 SEL2        0.0000 
      8 N          14.5250    0.9440   -6.2280 N.am      5 SEP2        0.0000 
      9 CA         15.5565    2.9635   -1.5455 C.3       3 GLC5        0.0000 
     10 CA         16.1030    2.6470   -3.5380 C.3       9 GLL5        0.0000 
     11 CA         15.0100    3.2800    0.4470 C.3       6 GLP5        0.0000 
     12 CA         17.5515    1.9045   -2.0215 C.3       3 GLC5        0.0000 
     13 CA         19.0000    1.1620   -0.5050 C.3       6 GLP5        0.0000 
     14 CA         16.9830    0.7900   -4.1005 C.3       3 GLC5        0.0000 
     15 CA         17.8630   -1.0670   -4.6630 C.3       6 GLP5        0.0000 
     16 CA         14.2890    3.6120   -3.8995 C.3       3 GLC5        0.0000 
     17 O          14.9735    1.2700   -4.6135 O.2       1 ALC1        0.0000 
     18 O          15.4220    1.5960   -2.9990 O.2       7 ALL1        0.0000 
     19 O          14.5250    0.9440   -6.2280 O.2       4 ALP1        0.0000 
     20 O          14.6500    0.7750   -3.6955 O.2       1 ALC1        0.0000 
     21 O          13.8780   -0.0460   -4.3920 O.2       4 ALP1        0.0000 
     22 CA         16.2620    3.8190   -1.3215 C.3       3 GLC5        0.0000 
     23 CA         17.5140    4.3580   -3.0900 C.3       9 GLL5        0.0000 
     24 CA         18.2570    2.7600   -1.7975 C.3       3 GLC5        0.0000 
     25 O          18.4915    4.4925   -0.9445 O.2       1 ALC1        0.0000 
     26 O          18.2770    5.0900   -2.2490 O.2       7 ALL1        0.0000 
     27 O          18.7060    3.8950    0.3600 O.2       4 ALP1        0.0000 
     28 O          19.3600    6.0435   -2.1285 O.2       1 ALC1        0.0000 
     29 O          20.4430    6.9970   -2.0080 O.2       4 ALP1        0.0000 
     30 CA         16.5455    6.4430   -3.7415 C.3       3 GLC5        0.0000 
     31 CA         18.1010    6.0120   -4.9090 C.3       9 GLL5        0.0000 
     32 CA         14.9900    6.8740   -2.5740 C.3       6 GLP5        0.0000 
     33 CA         19.7950    5.2985   -4.5205 C.3       3 GLC5        0.0000 
     34 CA         21.4890    4.5850   -4.1320 C.3       6 GLP5        0.0000 
     35 CA         21.3315    4.4565   -8.5560 C.3       3 GLC5        0.0000 
     36 CA         21.4640    6.3620   -8.6900 C.3       9 GLL5        0.0000 
     37 CA         21.1990    2.5510   -8.4220 C.3       6 GLP5        0.0000 
     38 CA         22.6090    7.9000   -9.5405 C.3       3 GLC5        0.0000 
     39 CA         23.7540    9.4380  -10.3910 C.3       6 GLP5        0.0000 
     40 CA         23.2980    5.9150   -8.1770 C.3       3 GLC5        0.0000 
     41 CA         25.1320    5.4680   -7.6640 C.3       6 GLP5        0.0000 
     42 CA         15.6200    5.5300   -9.9110 C.3       3 GLC5        0.0000 
     43 CA         16.6510    6.9530  -10.9330 C.3       9 GLL5        0.0000 
     44 CA         17.3020    8.5715  -11.8385 C.3       3 GLC5        0.0000 
     45 CA         17.9530   10.1900  -12.7440 C.3       6 GLP5        0.0000 
     46 CA         13.2000    6.9345   -8.6820 C.3       3 GLC5        0.0000 
     47 CA         14.6480    8.1670   -7.9970 C.3       9 GLL5        0.0000 
     48 CA         11.7520    5.7020   -9.3670 C.3       6 GLP5        0.0000 
     49 CA         14.2265    8.1605   -6.1285 C.3       3 GLC5        0.0000 
     50 CA         13.8050    8.1540   -4.2600 C.3       6 GLP5        0.0000 
     51 CA         13.9890    9.1210   -9.8015 C.3       3 GLC5        0.0000 
     52 CA         13.3300   10.0750  -11.6060 C.3       6 GLP5        0.0000 
     53 CA         14.4755   10.2700   -7.3990 C.3       3 GLC5        0.0000 
     54 CA         14.3030   12.3730   -6.8010 C.3       6 GLP5        0.0000 
     55 CA         18.7640    4.9381   -8.9878 C.3       3 GLC5        0.0000 
     56 CA         17.9050    7.1140   -9.0670 C.3       9 GLL5        0.0000 
     57 CA         19.0160    3.0890   -9.5220 C.3       6 GLP5        0.0000 
     58 CA         18.3529    8.9409   -8.5620 C.3       3 GLC5        0.0000 
     59 CA         16.7600    7.2540   -8.2900 C.3       9 GLL5        0.0000 
     60 CA         19.0720   10.8170   -8.5830 C.3       6 GLP5        0.0000 
     61 CA         15.8206    5.5740   -8.3471 C.3       3 GLC5        0.0000 
@<TRIPOS>BOND
@<TRIPOS>SUBSTRUCTURE
     1 ALC1       17 GROUP        1 X    ALC  0     ROOT ALC X 1
     2 SEC2        6 GROUP        1 X    SEC  0     **** SEC X 2
     3 GLC5        1 GROUP        1 X    GLC  0     **** GLC X 6
     4 ALP1       19 GROUP        1 Y    ALP  0     ROOT ALP Y 8
     5 SEP2        8 GROUP        1 Y    SEP  0     **** SEP Y 9
     6 GLP5        3 GROUP        1 Y    GLP  0     **** GLP Y 13
     7 ALL1       18 GROUP        1 Z    ALL  0     ROOT ALL Z 15
     8 SEL2        7 GROUP        1 Z    SEL  0     **** SEL Z 16
     9 GLL5        2 GROUP        1 Z    GLL  0     **** GLL Z 20
@<TRIPOS>SET

