#    Name: 1dyr_TOP_1_ligand
#    Modification time : Mon Mar 24 22:36:02 2014

@<TRIPOS>MOLECULE
1dyr_TOP_1_ligand
   39    40     1     0     0
SMALL
NO_CHARGES


@<TRIPOS>ATOM
      1 C1         16.5770    4.0230   -5.2540 C.ar      1 TOP407      0.0000 
      2 N2         15.9140    2.9580   -4.7880 N.ar      1 TOP407      0.0000 
      3 C3         16.1030    2.6470   -3.5380 C.ar      1 TOP407      0.0000 
      4 N4         15.4220    1.5960   -2.9990 N.pl3     1 TOP407      0.0000 
      5 N5         16.8730    3.2820   -2.6230 N.ar      1 TOP407      0.0000 
      6 C6         17.5140    4.3580   -3.0900 C.ar      1 TOP407      0.0000 
      7 N7         18.2770    5.0900   -2.2490 N.pl3     1 TOP407      0.0000 
      8 C8         17.3530    4.7690   -4.4030 C.ar      1 TOP407      0.0000 
      9 C9         18.1010    6.0120   -4.9090 C.3       1 TOP407      0.0000 
     10 C10        17.9800    6.3910   -6.3870 C.ar      1 TOP407      0.0000 
     11 C11        19.1280    6.2840   -7.1630 C.ar      1 TOP407      0.0000 
     12 C12        19.1100    6.6370   -8.5170 C.ar      1 TOP407      0.0000 
     13 O13        20.2130    6.4990   -9.3200 O.3       1 TOP407      0.0000 
     14 C14        21.4640    6.3620   -8.6900 C.3       1 TOP407      0.0000 
     15 C15        17.9050    7.1140   -9.0670 C.ar      1 TOP407      0.0000 
     16 O16        17.8270    7.4940  -10.4230 O.3       1 TOP407      0.0000 
     17 C17        16.6510    6.9530  -10.9330 C.3       1 TOP407      0.0000 
     18 C18        16.7600    7.2540   -8.2900 C.ar      1 TOP407      0.0000 
     19 O19        15.6300    7.7450   -8.9490 O.3       1 TOP407      0.0000 
     20 C20        14.6480    8.1670   -7.9970 C.3       1 TOP407      0.0000 
     21 C21        16.7720    6.8980   -6.9320 C.ar      1 TOP407      0.0000 
     22 H          16.5144    4.2967   -6.2541 H         1 TOP407      0.0000 
     23 H          14.8068    1.1068   -3.6172 H         1 TOP407      0.0000 
     24 H          15.5976    1.4069   -2.0329 H         1 TOP407      0.0000 
     25 H          18.7326    5.8857   -2.6481 H         1 TOP407      0.0000 
     26 H          18.3184    4.7711   -1.3021 H         1 TOP407      0.0000 
     27 H          19.1896    5.8890   -4.6633 H         1 TOP407      0.0000 
     28 H          17.7764    6.8911   -4.2907 H         1 TOP407      0.0000 
     29 H          20.0046    5.9413   -6.7404 H         1 TOP407      0.0000 
     30 H          15.9516    6.9969   -6.3562 H         1 TOP407      0.0000 
     31 H          22.2062    6.2706   -9.3540 H         1 TOP407      0.0000 
     32 H          21.6795    7.1523   -8.1165 H         1 TOP407      0.0000 
     33 H          21.4967    5.5547   -8.1008 H         1 TOP407      0.0000 
     34 H          16.5257    7.1805  -11.8987 H         1 TOP407      0.0000 
     35 H          16.6402    5.9555  -10.8631 H         1 TOP407      0.0000 
     36 H          15.8453    7.2897  -10.4456 H         1 TOP407      0.0000 
     37 H          14.9957    8.8906   -7.4007 H         1 TOP407      0.0000 
     38 H          13.8274    8.5240   -8.4433 H         1 TOP407      0.0000 
     39 H          14.3565    7.4149   -7.4059 H         1 TOP407      0.0000 
@<TRIPOS>BOND
     1    2    1 ar   
     2    8    1 ar   
     3   22    1 1    
     4    3    2 ar   
     5    4    3 1    
     6    5    3 ar   
     7   23    4 1    
     8   24    4 1    
     9    6    5 ar   
    10    7    6 1    
    11    8    6 ar   
    12   25    7 1    
    13   26    7 1    
    14    9    8 1    
    15   10    9 1    
    16   27    9 1    
    17   28    9 1    
    18   11   10 ar   
    19   21   10 ar   
    20   12   11 ar   
    21   29   11 1    
    22   13   12 1    
    23   15   12 ar   
    24   14   13 1    
    25   31   14 1    
    26   32   14 1    
    27   33   14 1    
    28   16   15 1    
    29   18   15 ar   
    30   17   16 1    
    31   34   17 1    
    32   35   17 1    
    33   36   17 1    
    34   19   18 1    
    35   21   18 ar   
    36   20   19 1    
    37   37   20 1    
    38   38   20 1    
    39   39   20 1    
    40   30   21 1    
@<TRIPOS>SUBSTRUCTURE
     1 TOP407      1 GROUP   
@<TRIPOS>SET

