#    Name: 3sm2_478_1_INTS_M
#    Modification time : Mon Mar 24 17:54:22 2014

@<TRIPOS>MOLECULE
3sm2_478_1_INTS_M
   90     0     9     0     0
SMALL
NO_CHARGES


@<TRIPOS>ATOM
      1 CA         -0.4995    4.6785    8.1560 C.3       3 GLC5        0.0000 
      2 CA         -1.1280    3.7010    9.7720 C.3       9 GLL5        0.0000 
      3 CA          0.1290    5.6560    6.5400 C.3       6 GLP5        0.0000 
      4 CA          2.1270    2.7060   10.4210 C.3       3 GLC5        0.0000 
      5 CA          0.6890    3.9330   11.5090 C.3       9 GLL5        0.0000 
      6 CA          3.5650    1.4790    9.3330 C.3       6 GLP5        0.0000 
      7 CA         -0.5085    7.4330    9.9850 C.3       3 GLC5        0.0000 
      8 CA         -0.9390    5.7200   11.3510 C.3       9 GLL5        0.0000 
      9 CA         -0.0780    9.1460    8.6190 C.3       6 GLP5        0.0000 
     10 CA          2.4900    6.0795   12.7620 C.3       3 GLC5        0.0000 
     11 CA          1.3410    4.5870   12.5630 C.3       9 GLL5        0.0000 
     12 CA          3.6390    7.5720   12.9610 C.3       6 GLP5        0.0000 
     13 CA         -4.1020    1.0845    6.8005 C.3       3 GLC5        0.0000 
     14 CA         -3.7390    2.9320    7.9510 C.3       9 GLL5        0.0000 
     15 CA         -4.4650   -0.7630    5.6500 C.3       6 GLP5        0.0000 
     16 CA         -3.7270    2.6725    5.7895 C.3       3 GLC5        0.0000 
     17 CA         -3.7150    2.4130    3.6280 C.3       6 GLP5        0.0000 
     18 CA         -4.2700    4.4860    3.7125 C.3       3 GLC5        0.0000 
     19 CA         -4.8250    6.5590    3.7970 C.3       9 GLL5        0.0000 
     20 CA         -8.7610    2.0630   11.3060 C.3       3 GLC5        0.0000 
     21 CA         -7.0530    2.9420   10.1890 C.3       9 GLL5        0.0000 
     22 CA        -10.4690    1.1840   12.4230 C.3       6 GLP5        0.0000 
     23 CA         -7.0065    1.1240   11.1890 C.3       3 GLC5        0.0000 
     24 CA         -6.9600   -0.6940   12.1890 C.3       6 GLP5        0.0000 
     25 CA         -7.4650    5.1410   10.2315 C.3       3 GLC5        0.0000 
     26 CA         -7.8770    7.3400   10.2740 C.3       6 GLP5        0.0000 
     27 CA         -7.6685    3.9655   11.7050 C.3       3 GLC5        0.0000 
     28 CA         -8.2840    4.9890   13.2210 C.3       6 GLP5        0.0000 
     29 CA         -8.1965   -0.0300    7.2735 C.3       3 GLC5        0.0000 
     30 CA         -8.2310    1.8280    8.3490 C.3       9 GLL5        0.0000 
     31 CA         -8.1620   -1.8880    6.1980 C.3       6 GLP5        0.0000 
     32 CA        -10.0960    2.5335    8.6550 C.3       3 GLC5        0.0000 
     33 CA        -11.9610    3.2390    8.9610 C.3       6 GLP5        0.0000 
     34 CA         -9.7535    0.6520    7.6435 C.3       3 GLC5        0.0000 
     35 CA        -11.2760   -0.5240    6.9380 C.3       6 GLP5        0.0000 
     36 O          -1.0725    1.5055   11.4690 O.2       1 ALC1        0.0000 
     37 O          -2.2760    2.4850   11.5190 O.2       7 ALL1        0.0000 
     38 O           0.1310    0.5260   11.4190 O.2       4 ALP1        0.0000 
     39 O          -3.5100    6.4310    1.8725 O.2       1 ALC1        0.0000 
     40 O          -4.9270    6.9220    2.4880 O.2       7 ALL1        0.0000 
     41 O          -2.0930    5.9400    1.2570 O.2       4 ALP1        0.0000 
     42 N          -2.7555   -0.2290    8.6925 N.am      2 SEC2        0.0000 
     43 N          -2.5190    1.0630    8.9000 N.am      8 SEL2        0.0000 
     44 N          -2.9920   -1.5210    8.4850 N.am      5 SEP2        0.0000 
     45 O          -1.9155    0.5325    7.7565 O.2       1 ALC1        0.0000 
     46 O          -2.5190    1.0630    8.9000 O.2       7 ALL1        0.0000 
     47 O          -1.3120    0.0020    6.6130 O.2       4 ALP1        0.0000 
     48 O          -1.6300    1.5875    7.8895 O.2       1 ALC1        0.0000 
     49 O          -0.7410    2.1120    6.8790 O.2       4 ALP1        0.0000 
     50 N          -2.2740   -1.4885   16.3415 N.am      2 SEC2        0.0000 
     51 N          -3.0950    0.0100   16.0000 N.am      8 SEL2        0.0000 
     52 N          -1.4530   -2.9870   16.6830 N.am      5 SEP2        0.0000 
     53 CA         -3.7508   -0.6430   13.8810 C.3       3 GLC5        0.0000 
     54 CA         -4.6390    1.2380   14.7350 C.3       9 GLL5        0.0000 
     55 CA         -2.9420   -1.9350   12.5470 C.3       6 GLP5        0.0000 
     56 CA         -6.0793   -0.4340   15.7855 C.3       3 GLC5        0.0000 
     57 CA         -4.4800    0.0600   15.6950 C.3       9 GLL5        0.0000 
     58 CA         -7.5990   -1.5170   16.3560 C.3       6 GLP5        0.0000 
     59 CA         -5.7598   -0.0225   13.7020 C.3       3 GLC5        0.0000 
     60 CA         -5.5765    2.9423   14.3450 C.3       3 GLC5        0.0000 
     61 CA         -7.1370    4.2390   13.8580 C.3       6 GLP5        0.0000 
     62 CA         -2.1605    6.6018   13.0245 C.3       3 GLC5        0.0000 
     63 CA         -3.7090    7.1620   14.1670 C.3       6 GLP5        0.0000 
     64 CA         -1.7385    7.4733   11.3770 C.3       3 GLC5        0.0000 
     65 CA         -0.2850    6.3630   12.4130 C.3       9 GLL5        0.0000 
     66 CA         -2.8650    8.9050   10.8720 C.3       6 GLP5        0.0000 
     67 CA          0.1365    7.2360   14.4915 C.3       3 GLC5        0.0000 
     68 CA          0.0010    8.3910   16.2660 C.3       6 GLP5        0.0000 
     69 CA          1.4460    7.2690   12.5055 C.3       3 GLC5        0.0000 
     70 CA          0.8290    5.7990   13.0210 C.3       9 GLL5        0.0000 
     71 CA          2.6200    8.4570   12.2940 C.3       6 GLP5        0.0000 
     72 CA         -7.9183    0.1865    9.4113 C.3       3 GLC5        0.0000 
     73 CA         -6.8620    2.3120    8.8180 C.3       9 GLL5        0.0000 
     74 CA         -8.2900   -1.6970   10.2390 C.3       6 GLP5        0.0000 
     75 CA         -3.7103    7.1428    7.7832 C.3       3 GLC5        0.0000 
     76 CA         -4.6780    5.8180    6.4790 C.3       9 GLL5        0.0000 
     77 CA         -3.3280    8.4120    9.4660 C.3       6 GLP5        0.0000 
     78 CA         -5.7785    7.8697    6.2517 C.3       3 GLC5        0.0000 
     79 CA         -6.2610    9.7940    6.3160 C.3       6 GLP5        0.0000 
     80 CA         -2.9197    4.5678    4.3230 C.3       3 GLC5        0.0000 
     81 CA         -3.5070    5.9290    5.7220 C.3       9 GLL5        0.0000 
     82 CA         -2.2960    3.0140    3.5970 C.3       6 GLP5        0.0000 
     83 CA         -2.0803    7.2807    4.2655 C.3       3 GLC5        0.0000 
     84 CA         -3.5800    6.3140    4.3760 C.3       9 GLL5        0.0000 
     85 CA         -0.6170    8.4400    3.4820 C.3       6 GLP5        0.0000 
     86 CA         -1.7073    5.8887    5.7945 C.3       3 GLC5        0.0000 
     87 CA         -5.8325    8.1483    5.2452 C.3       3 GLC5        0.0000 
     88 CA         -4.3277    2.5433   16.6522 C.3       3 GLC5        0.0000 
     89 CA         -2.6620    1.3630   16.0670 C.3       9 GLL5        0.0000 
     90 CA         -4.8620    3.9080   17.9480 C.3       6 GLP5        0.0000 
@<TRIPOS>BOND
@<TRIPOS>SUBSTRUCTURE
     1 ALC1       36 GROUP        1 X    ALC  0     ROOT ALC X 1
     2 SEC2       42 GROUP        1 X    SEC  0     **** SEC X 2
     3 GLC5        1 GROUP        1 X    GLC  0     **** GLC X 6
     4 ALP1       38 GROUP        1 Y    ALP  0     ROOT ALP Y 8
     5 SEP2       44 GROUP        1 Y    SEP  0     **** SEP Y 9
     6 GLP5        3 GROUP        1 Y    GLP  0     **** GLP Y 13
     7 ALL1       37 GROUP        1 Z    ALL  0     ROOT ALL Z 15
     8 SEL2       43 GROUP        1 Z    SEL  0     **** SEL Z 16
     9 GLL5        2 GROUP        1 Z    GLL  0     **** GLL Z 20
@<TRIPOS>SET

