#    Name: 3sm2_478_1_ligand
#    Modification time : Mon Mar 24 17:54:22 2014

@<TRIPOS>MOLECULE
3sm2_478_1_ligand
   70    72     1     0     0
SMALL
NO_CHARGES


@<TRIPOS>ATOM
      1 C1         -2.6620    1.3630   16.0670 C.3       1 478126      0.0000 
      2 C2         -4.6390    1.2380   14.7350 C.3       1 478126      0.0000 
      3 C3         -2.9240    2.7800   12.6580 C.2       1 478126      0.0000 
      4 C4         -3.3930    2.0530   14.9290 C.3       1 478126      0.0000 
      5 C5         -2.4950    3.1570   10.2390 C.3       1 478126      0.0000 
      6 C6         -3.2700    2.2460    9.2490 C.3       1 478126      0.0000 
      7 C7         -1.1280    3.7010    9.7720 C.3       1 478126      0.0000 
      8 C8         -0.4530    4.4740   10.8970 C.ar      1 478126      0.0000 
      9 C9          0.6890    3.9330   11.5090 C.ar      1 478126      0.0000 
     10 C10        -0.9390    5.7200   11.3510 C.ar      1 478126      0.0000 
     11 C11         1.3410    4.5870   12.5630 C.ar      1 478126      0.0000 
     12 C12        -0.2850    6.3630   12.4130 C.ar      1 478126      0.0000 
     13 C13         0.8290    5.7990   13.0210 C.ar      1 478126      0.0000 
     14 C14        -3.7390    2.9320    7.9510 C.3       1 478126      0.0000 
     15 C15        -6.1960    3.2670    7.7960 C.3       1 478126      0.0000 
     16 C16        -6.8620    2.3120    8.8180 C.3       1 478126      0.0000 
     17 C17        -4.6780    5.8180    6.4790 C.ar      1 478126      0.0000 
     18 C18        -3.5070    5.9290    5.7220 C.ar      1 478126      0.0000 
     19 C19        -3.5800    6.3140    4.3760 C.ar      1 478126      0.0000 
     20 C20        -4.8250    6.5590    3.7970 C.ar      1 478126      0.0000 
     21 C21        -5.9830    6.4460    4.5520 C.ar      1 478126      0.0000 
     22 C22        -5.9140    6.0730    5.8960 C.ar      1 478126      0.0000 
     23 C23        -7.0530    2.9420   10.1890 C.3       1 478126      0.0000 
     24 C24        -8.2310    1.8280    8.3490 C.3       1 478126      0.0000 
     25 C25        -4.4800    0.0600   15.6950 C.3       1 478126      0.0000 
     26 N1         -2.2760    2.4850   11.5190 N.am      1 478126      0.0000 
     27 N2         -4.8990    3.7890    8.2890 N.pl3     1 478126      0.0000 
     28 N3         -4.9270    6.9220    2.4880 N.pl3     1 478126      0.0000 
     29 O1         -2.5610    1.9330   13.7820 O.3       1 478126      0.0000 
     30 O2         -3.7670    3.6550   12.7940 O.2       1 478126      0.0000 
     31 O3         -2.5190    1.0630    8.9000 O.3       1 478126      0.0000 
     32 O4         -3.2230    5.6300    8.4100 O.2       1 478126      0.0000 
     33 O5         -5.5280    6.0800    8.8380 O.2       1 478126      0.0000 
     34 O6         -3.0950    0.0100   16.0000 O.3       1 478126      0.0000 
     35 S1         -4.5770    5.3690    8.0220 S.o2      1 478126      0.0000 
     36 H          -2.9471    1.8381   16.9905 H         1 478126      0.0000 
     37 H          -1.6028    1.4619   15.8990 H         1 478126      0.0000 
     38 H          -4.6936    0.8736   13.7345 H         1 478126      0.0000 
     39 H          -5.5003    1.8035   15.0091 H         1 478126      0.0000 
     40 H          -3.6205    3.0235   15.1982 H         1 478126      0.0000 
     41 H          -3.1356    4.0465   10.4396 H         1 478126      0.0000 
     42 H          -4.1998    1.9193    9.7783 H         1 478126      0.0000 
     43 H          -1.2836    4.3560    8.9204 H         1 478126      0.0000 
     44 H          -0.5012    2.8659    9.4748 H         1 478126      0.0000 
     45 H           1.0589    3.0253   11.1712 H         1 478126      0.0000 
     46 H          -1.7525    6.1422   10.9113 H         1 478126      0.0000 
     47 H           2.1738    4.1806   12.9841 H         1 478126      0.0000 
     48 H          -0.6447    7.2754   12.7452 H         1 478126      0.0000 
     49 H           1.2799    6.2773   13.8140 H         1 478126      0.0000 
     50 H          -4.0185    2.1676    7.2417 H         1 478126      0.0000 
     51 H          -2.9235    3.5233    7.5625 H         1 478126      0.0000 
     52 H          -6.8931    4.0904    7.6001 H         1 478126      0.0000 
     53 H          -6.0577    2.7146    6.8589 H         1 478126      0.0000 
     54 H          -6.2254    1.4339    8.9369 H         1 478126      0.0000 
     55 H          -2.5977    5.7298    6.1488 H         1 478126      0.0000 
     56 H          -2.7243    6.4137    3.8251 H         1 478126      0.0000 
     57 H          -6.8998    6.6371    4.1235 H         1 478126      0.0000 
     58 H          -6.7740    5.9883    6.4487 H         1 478126      0.0000 
     59 H          -4.8235   -0.8303   15.1903 H         1 478126      0.0000 
     60 H          -5.0873    0.2551   16.5659 H         1 478126      0.0000 
     61 H          -1.5456    1.7185   11.4976 H         1 478126      0.0000 
     62 H          -4.2018    6.5940    1.8826 H         1 478126      0.0000 
     63 H          -5.7181    7.4846    2.2477 H         1 478126      0.0000 
     64 H          -6.1822    3.2195   10.5948 H         1 478126      0.0000 
     65 H          -7.6294    3.7580   10.1457 H         1 478126      0.0000 
     66 H          -7.4873    2.3100   10.8309 H         1 478126      0.0000 
     67 H          -8.1725    1.3303    7.4836 H         1 478126      0.0000 
     68 H          -8.6548    1.2122    9.0132 H         1 478126      0.0000 
     69 H          -8.8653    2.5881    8.2077 H         1 478126      0.0000 
     70 H          -2.2397    1.2047    7.9503 H         1 478126      0.0000 
@<TRIPOS>BOND
     1    4    1 1    
     2   34    1 1    
     3   36    1 1    
     4   37    1 1    
     5    4    2 1    
     6   25    2 1    
     7   38    2 1    
     8   39    2 1    
     9   26    3 am   
    10   29    3 1    
    11   30    3 2    
    12   29    4 1    
    13   40    4 1    
    14    6    5 1    
    15    7    5 1    
    16   26    5 1    
    17   41    5 1    
    18   14    6 1    
    19   31    6 1    
    20   42    6 1    
    21    8    7 1    
    22   43    7 1    
    23   44    7 1    
    24    9    8 ar   
    25   10    8 ar   
    26   11    9 ar   
    27   45    9 1    
    28   12   10 ar   
    29   46   10 1    
    30   13   11 ar   
    31   47   11 1    
    32   13   12 ar   
    33   48   12 1    
    34   49   13 1    
    35   27   14 1    
    36   50   14 1    
    37   51   14 1    
    38   16   15 1    
    39   27   15 1    
    40   52   15 1    
    41   53   15 1    
    42   23   16 1    
    43   24   16 1    
    44   54   16 1    
    45   18   17 ar   
    46   22   17 ar   
    47   35   17 1    
    48   19   18 ar   
    49   55   18 1    
    50   20   19 ar   
    51   56   19 1    
    52   21   20 ar   
    53   28   20 1    
    54   22   21 ar   
    55   57   21 1    
    56   58   22 1    
    57   64   23 1    
    58   65   23 1    
    59   66   23 1    
    60   67   24 1    
    61   68   24 1    
    62   69   24 1    
    63   34   25 1    
    64   59   25 1    
    65   60   25 1    
    66   61   26 1    
    67   35   27 1    
    68   62   28 1    
    69   63   28 1    
    70   70   31 1    
    71   35   32 2    
    72   35   33 2    
@<TRIPOS>SUBSTRUCTURE
     1 478126      1 GROUP   
@<TRIPOS>SET

