#    Name: 3ue4_DB8_2_INTS_M
#    Modification time : Mon Mar 24 22:13:23 2014

@<TRIPOS>MOLECULE
3ue4_DB8_2_INTS_M
   79     0     6     0     0
SMALL
NO_CHARGES


@<TRIPOS>ATOM
      1 CA        -23.1760   45.4950  -30.7290 C.3       2 GLC5        0.0000 
      2 CA        -22.6110   45.1230  -28.9970 C.3       6 GLL5        0.0000 
      3 CA        -23.7410   45.8670  -32.4610 C.3       4 GLP5        0.0000 
      4 CA        -11.4785   47.2640  -31.6670 C.3       2 GLC5        0.0000 
      5 CA        -12.3970   47.3670  -30.0430 C.3       6 GLL5        0.0000 
      6 CA        -10.5600   47.1610  -33.2910 C.3       4 GLP5        0.0000 
      7 CA        -15.0775   43.6785  -25.6165 C.3       2 GLC5        0.0000 
      8 CA        -16.2080   45.1720  -26.6040 C.3       6 GLL5        0.0000 
      9 CA        -13.9470   42.1850  -24.6290 C.3       4 GLP5        0.0000 
     10 CA        -14.8975   45.7930  -25.5125 C.3       2 GLC5        0.0000 
     11 CA        -13.5870   46.4140  -24.4210 C.3       4 GLP5        0.0000 
     12 CA        -13.8010   41.3620  -30.1715 C.3       2 GLC5        0.0000 
     13 CA        -15.3480   42.5630  -30.0660 C.3       6 GLL5        0.0000 
     14 CA        -12.2540   40.1610  -30.2770 C.3       4 GLP5        0.0000 
     15 CA        -14.0080   42.3300  -31.7675 C.3       2 GLC5        0.0000 
     16 CA        -12.6680   42.0970  -33.4690 C.3       4 GLP5        0.0000 
     17 CA        -17.4885   39.8250  -32.9945 C.3       2 GLC5        0.0000 
     18 CA        -17.1030   40.9500  -31.1220 C.3       6 GLL5        0.0000 
     19 CA        -17.8740   38.7000  -34.8670 C.3       4 GLP5        0.0000 
     20 CA        -17.0185   39.2480  -30.6905 C.3       2 GLC5        0.0000 
     21 CA        -16.9340   37.5460  -30.2590 C.3       4 GLP5        0.0000 
     22 CA        -12.4930   46.5755  -27.5800 C.3       2 GLC5        0.0000 
     23 CA        -14.3390   46.2540  -28.3790 C.3       6 GLL5        0.0000 
     24 CA        -10.6470   46.8970  -26.7810 C.3       4 GLP5        0.0000 
     25 CA        -16.6215   44.2820  -32.4695 C.3       2 GLC5        0.0000 
     26 CA        -15.9300   45.3700  -30.7940 C.3       6 GLL5        0.0000 
     27 CA        -17.3130   43.1940  -34.1450 C.3       4 GLP5        0.0000 
     28 CA        -19.8010   45.1895  -31.0605 C.3       2 GLC5        0.0000 
     29 CA        -20.4550   43.5970  -29.8310 C.3       6 GLL5        0.0000 
     30 CA        -19.1470   46.7820  -32.2900 C.3       4 GLP5        0.0000 
     31 CA        -24.6065   37.7355  -30.3405 C.3       2 GLC5        0.0000 
     32 CA        -24.8880   39.6950  -31.1440 C.3       6 GLL5        0.0000 
     33 CA        -24.3250   35.7760  -29.5370 C.3       4 GLP5        0.0000 
     34 CA        -23.1830   42.1770  -32.7935 C.3       2 GLC5        0.0000 
     35 CA        -23.6830   40.3400  -31.8240 C.3       6 GLL5        0.0000 
     36 CA        -22.6830   44.0140  -33.7630 C.3       4 GLP5        0.0000 
     37 CA        -23.2700   40.1490  -33.5340 C.3       2 GLC5        0.0000 
     38 CA        -22.8570   39.9580  -35.2440 C.3       4 GLP5        0.0000 
     39 N         -18.5290   39.2930  -32.0410 N.am      1 SEC2        0.0000 
     40 N         -18.4590   40.6020  -31.4170 N.am      5 SEL2        0.0000 
     41 N         -18.5990   37.9840  -32.6650 N.am      3 SEP2        0.0000 
     42 CA        -14.7185   47.8560  -31.7785 C.3       2 GLC5        0.0000 
     43 CA        -14.6380   46.0930  -30.9710 C.3       6 GLL5        0.0000 
     44 CA        -14.7990   49.6190  -32.5860 C.3       4 GLP5        0.0000 
     45 CA        -13.2435   44.6675  -31.9215 C.3       2 GLC5        0.0000 
     46 CA        -11.8490   43.2420  -32.8720 C.3       4 GLP5        0.0000 
     47 CA        -19.0080   39.4140  -30.6450 C.3       2 GLC5        0.0000 
     48 CA        -19.5630   41.4280  -31.0140 C.3       6 GLL5        0.0000 
     49 CA        -18.4530   37.4000  -30.2760 C.3       4 GLP5        0.0000 
     50 CA        -15.8945   44.3675  -33.7175 C.3       2 GLC5        0.0000 
     51 CA        -14.4760   45.5410  -33.2900 C.3       6 GLL5        0.0000 
     52 CA        -15.4225   46.3270  -34.8610 C.3       2 GLC5        0.0000 
     53 CA        -16.3690   47.1130  -36.4320 C.3       4 GLP5        0.0000 
     54 CA        -14.6375   47.5800  -32.9380 C.3       2 GLC5        0.0000 
     55 CA        -12.5180   46.3510  -33.2905 C.3       2 GLC5        0.0000 
     56 CA        -13.2990   45.3650  -35.1450 C.3       2 GLC5        0.0000 
     57 CA        -12.1220   45.1890  -37.0000 C.3       4 GLP5        0.0000 
     58 CA        -13.1625   44.3915  -33.0810 C.3       2 GLC5        0.0000 
     59 CA        -13.6753   48.7100  -30.0988 C.3       2 GLC5        0.0000 
     60 CA        -13.8680   46.5270  -29.7700 C.3       6 GLL5        0.0000 
     61 CA        -14.2180   50.4730  -30.2910 C.3       4 GLP5        0.0000 
     62 CA        -11.6668   45.6015  -29.8693 C.3       2 GLC5        0.0000 
     63 CA        -10.2010   44.2560  -29.8320 C.3       4 GLP5        0.0000 
     64 CA        -11.8897   46.9220  -28.3438 C.3       2 GLC5        0.0000 
     65 CA        -17.1235   42.3868  -32.4510 C.3       2 GLC5        0.0000 
     66 CA        -16.7650   42.2090  -30.3920 C.3       6 GLL5        0.0000 
     67 CA        -16.8739   41.0915  -29.1493 C.3       2 GLC5        0.0000 
     68 CA        -17.1680   40.5150  -27.6230 C.3       4 GLP5        0.0000 
     69 CA        -17.6600   46.0065  -31.1947 C.3       2 GLC5        0.0000 
     70 CA        -16.4160   45.0920  -29.4050 C.3       6 GLL5        0.0000 
     71 CA        -22.2587   40.2328  -29.5557 C.3       2 GLC5        0.0000 
     72 CA        -22.1150   41.9270  -30.8950 C.3       6 GLL5        0.0000 
     73 CA        -22.9630   38.9840  -27.9990 C.3       4 GLP5        0.0000 
     74 CA        -23.7431   39.6364  -29.6804 C.3       2 GLC5        0.0000 
     75 CA        -22.1931   43.1741  -32.2004 C.3       2 GLC5        0.0000 
     76 CA        -20.9940   41.0360  -31.3300 C.3       6 GLL5        0.0000 
     77 CA        -18.1975   42.6838  -32.3535 C.3       2 GLC5        0.0000 
     78 CA        -19.3150   42.7140  -30.2680 C.3       6 GLL5        0.0000 
     79 CA        -18.1250   41.3443  -29.0925 C.3       2 GLC5        0.0000 
@<TRIPOS>BOND
@<TRIPOS>SUBSTRUCTURE
     1 SEC2       39 GROUP        1 X    SEC  0     ROOT SEC X 2
     2 GLC5        1 GROUP        1 X    GLC  0     **** GLC X 6
     3 SEP2       41 GROUP        1 Y    SEP  0     ROOT SEP Y 9
     4 GLP5        3 GROUP        1 Y    GLP  0     **** GLP Y 13
     5 SEL2       40 GROUP        1 Z    SEL  0     ROOT SEL Z 16
     6 GLL5        2 GROUP        1 Z    GLL  0     **** GLL Z 20
@<TRIPOS>SET

