#    Name: 3ue4_DB8_2_ligand
#    Modification time : Mon Mar 24 22:13:23 2014

@<TRIPOS>MOLECULE
3ue4_DB8_2_ligand
   66    69     1     0     0
SMALL
NO_CHARGES


@<TRIPOS>ATOM
      1 CAA       -22.6110   45.1230  -28.9970 C.3       1 DB8601      0.0000 
      2 O02       -14.1530   46.3810  -32.2330 O.3       1 DB8601      0.0000 
      3 CAC       -25.8390   40.7800  -30.6550 C.3       1 DB8601      0.0000 
      4 NAD       -14.2880   42.8730  -29.8090 N.1       1 DB8601      0.0000 
      5 CL1       -12.3970   47.3670  -30.0430 Cl        1 DB8601      0.0000 
      6 CL2       -16.2080   45.1720  -26.6040 Cl        1 DB8601      0.0000 
      7 CAG       -15.3480   42.5630  -30.0660 C.1       1 DB8601      0.0000 
      8 CAH       -17.1030   40.9500  -31.1220 C.ar      1 DB8601      0.0000 
      9 CAI       -14.3390   46.2540  -28.3790 C.ar      1 DB8601      0.0000 
     10 CAJ       -15.9300   45.3700  -30.7940 C.ar      1 DB8601      0.0000 
     11 CAK       -20.9940   41.0360  -31.3300 C.ar      1 DB8601      0.0000 
     12 CAL       -20.4550   43.5970  -29.8310 C.ar      1 DB8601      0.0000 
     13 CAM       -24.8880   39.6950  -31.1440 C.3       1 DB8601      0.0000 
     14 CAN       -23.6830   40.3400  -31.8240 C.3       1 DB8601      0.0000 
     15 CAO       -30.7870   37.9410  -30.0880 C.3       1 DB8601      0.0000 
     16 CAP       -28.1160   40.4660  -29.4310 C.3       1 DB8601      0.0000 
     17 CAQ       -27.3370   38.8550  -31.0430 C.3       1 DB8601      0.0000 
     18 CAR       -29.5610   40.0700  -29.7990 C.3       1 DB8601      0.0000 
     19 CAS       -28.7500   38.5700  -31.4330 C.3       1 DB8601      0.0000 
     20 NAT       -18.4590   40.6020  -31.4170 N.ar      1 DB8601      0.0000 
     21 NAU       -17.6610   44.3730  -29.2250 N.pl3     1 DB8601      0.0000 
     22 OAV       -22.8850   43.9960  -29.7630 O.3       1 DB8601      0.0000 
     23 OAW       -23.4240   41.5550  -31.1840 O.3       1 DB8601      0.0000 
     24 CAX       -14.6380   46.0930  -30.9710 C.ar      1 DB8601      0.0000 
     25 CAY       -13.8680   46.5270  -29.7700 C.ar      1 DB8601      0.0000 
     26 CAZ       -15.6240   45.5230  -28.1990 C.ar      1 DB8601      0.0000 
     27 CBA       -16.7650   42.2090  -30.3920 C.ar      1 DB8601      0.0000 
     28 CBB       -16.4160   45.0920  -29.4050 C.ar      1 DB8601      0.0000 
     29 CBC       -21.8520   43.1870  -30.1630 C.ar      1 DB8601      0.0000 
     30 CBD       -22.1150   41.9270  -30.8950 C.ar      1 DB8601      0.0000 
     31 CBE       -17.8870   43.1240  -29.9520 C.ar      1 DB8601      0.0000 
     32 CBF       -19.5630   41.4280  -31.0140 C.ar      1 DB8601      0.0000 
     33 CBG       -19.3150   42.7140  -30.2680 C.ar      1 DB8601      0.0000 
     34 NBH       -27.2250   40.2140  -30.5710 N.3       1 DB8601      0.0000 
     35 NBI       -29.5660   38.7100  -30.2710 N.4       1 DB8601      0.0000 
     36 C01       -14.4760   45.5410  -33.2900 C.3       1 DB8601      0.0000 
     37 H         -25.8181   41.6108  -31.3524 H         1 DB8601      0.0000 
     38 H         -25.5162   41.1202  -29.6767 H         1 DB8601      0.0000 
     39 H         -16.3363   40.3476  -31.4027 H         1 DB8601      0.0000 
     40 H         -13.8132   46.5499  -27.6042 H         1 DB8601      0.0000 
     41 H         -16.4560   45.0796  -31.5739 H         1 DB8601      0.0000 
     42 H         -21.1747   40.1992  -31.8185 H         1 DB8601      0.0000 
     43 H         -20.2760   44.4274  -29.3362 H         1 DB8601      0.0000 
     44 H         -25.4020   39.0570  -31.8539 H         1 DB8601      0.0000 
     45 H         -24.5503   39.1035  -30.3007 H         1 DB8601      0.0000 
     46 H         -23.9312   40.4647  -32.8815 H         1 DB8601      0.0000 
     47 H         -22.8488   39.6372  -31.7485 H         1 DB8601      0.0000 
     48 H         -27.8158   39.8794  -28.5629 H         1 DB8601      0.0000 
     49 H         -28.1140   41.5213  -29.1589 H         1 DB8601      0.0000 
     50 H         -26.6887   38.6888  -31.9134 H         1 DB8601      0.0000 
     51 H         -27.0344   38.1440  -30.2630 H         1 DB8601      0.0000 
     52 H         -29.9101   40.7651  -30.5622 H         1 DB8601      0.0000 
     53 H         -30.1745   40.1915  -28.9066 H         1 DB8601      0.0000 
     54 H         -28.8046   37.5573  -31.8400 H         1 DB8601      0.0000 
     55 H         -29.0465   39.2718  -32.2164 H         1 DB8601      0.0000 
     56 H         -18.3687   44.7251  -28.6059 H         1 DB8601      0.0000 
     57 H         -28.8210   38.1937  -29.4067 H         1 DB8601      0.0000 
     58 H         -22.1666   44.8858  -28.1331 H         1 DB8601      0.0000 
     59 H         -22.0036   45.7579  -29.4745 H         1 DB8601      0.0000 
     60 H         -23.4432   45.6287  -28.7694 H         1 DB8601      0.0000 
     61 H         -30.6973   37.0112  -30.4449 H         1 DB8601      0.0000 
     62 H         -31.0348   37.8617  -29.1224 H         1 DB8601      0.0000 
     63 H         -31.5642   38.3611  -30.5565 H         1 DB8601      0.0000 
     64 H         -14.0675   45.8506  -34.1487 H         1 DB8601      0.0000 
     65 H         -14.1557   44.6067  -33.1332 H         1 DB8601      0.0000 
     66 H         -15.4640   45.4914  -33.4365 H         1 DB8601      0.0000 
@<TRIPOS>BOND
     1   22    1 1    
     2   58    1 1    
     3   59    1 1    
     4   60    1 1    
     5   24    2 1    
     6   36    2 1    
     7   13    3 1    
     8   34    3 1    
     9   37    3 1    
    10   38    3 1    
    11    7    4 3    
    12   25    5 1    
    13   26    6 1    
    14   27    7 1    
    15   20    8 ar   
    16   27    8 ar   
    17   39    8 1    
    18   25    9 ar   
    19   26    9 ar   
    20   40    9 1    
    21   24   10 ar   
    22   28   10 ar   
    23   41   10 1    
    24   30   11 ar   
    25   32   11 ar   
    26   42   11 1    
    27   29   12 ar   
    28   33   12 ar   
    29   43   12 1    
    30   14   13 1    
    31   44   13 1    
    32   45   13 1    
    33   23   14 1    
    34   46   14 1    
    35   47   14 1    
    36   35   15 1    
    37   61   15 1    
    38   62   15 1    
    39   63   15 1    
    40   18   16 1    
    41   34   16 1    
    42   48   16 1    
    43   49   16 1    
    44   19   17 1    
    45   34   17 1    
    46   50   17 1    
    47   51   17 1    
    48   35   18 1    
    49   52   18 1    
    50   53   18 1    
    51   35   19 1    
    52   54   19 1    
    53   55   19 1    
    54   32   20 ar   
    55   28   21 1    
    56   31   21 1    
    57   56   21 1    
    58   29   22 1    
    59   30   23 1    
    60   25   24 ar   
    61   28   26 ar   
    62   31   27 ar   
    63   30   29 ar   
    64   33   31 ar   
    65   33   32 ar   
    66   57   35 1    
    67   64   36 1    
    68   65   36 1    
    69   66   36 1    
@<TRIPOS>SUBSTRUCTURE
     1 DB8601      1 GROUP   
@<TRIPOS>SET

