#    Name: 1ecj_AMP_1_INTS_M
#    Modification time : Mon Mar 24 23:31:14 2014

@<TRIPOS>MOLECULE
1ecj_AMP_1_INTS_M
   40     0     9     0     0
SMALL
NO_CHARGES


@<TRIPOS>ATOM
      1 N          38.3350   44.3965   60.2255 N.am      2 SEC2        0.0000 
      2 N          39.1030   45.6370   59.7610 N.am      8 SEL2        0.0000 
      3 N          37.5670   43.1560   60.6900 N.am      5 SEP2        0.0000 
      4 N          38.8750   44.6595   58.9795 N.am      2 SEC2        0.0000 
      5 N          38.6470   43.6820   58.1980 N.am      5 SEP2        0.0000 
      6 N          39.7995   48.9725   60.5095 N.am      2 SEC2        0.0000 
      7 N          39.1360   47.9350   60.0020 N.am      8 SEL2        0.0000 
      8 N          40.4630   50.0100   61.0170 N.am      5 SEP2        0.0000 
      9 N          38.2650   48.7255   60.4315 N.am      2 SEC2        0.0000 
     10 N          37.3940   49.5160   60.8610 N.am      5 SEP2        0.0000 
     11 N          38.3210   47.6610   61.2810 N.am      2 SEC2        0.0000 
     12 N          37.5060   47.3870   62.5600 N.am      5 SEP2        0.0000 
     13 N          38.2130   45.3445   58.2530 N.am      2 SEC2        0.0000 
     14 N          37.7790   47.0070   58.3080 N.am      8 SEL2        0.0000 
     15 CA         42.0365   48.2360   60.1820 C.3       3 GLC5        0.0000 
     16 CA         41.5490   47.1670   58.3530 C.3       9 GLL5        0.0000 
     17 CA         42.5240   49.3050   62.0110 C.3       6 GLP5        0.0000 
     18 CA         41.0435   49.1825   58.3925 C.3       3 GLC5        0.0000 
     19 CA         40.5380   51.1980   58.4320 C.3       6 GLP5        0.0000 
     20 N          45.7810   44.9125   58.1815 N.am      2 SEC2        0.0000 
     21 N          44.6840   45.2950   57.3820 N.am      8 SEL2        0.0000 
     22 N          46.8780   44.5300   58.9810 N.am      5 SEP2        0.0000 
     23 N          46.1960   45.9535   56.9450 N.am      2 SEC2        0.0000 
     24 N          47.7080   46.6120   56.5080 N.am      5 SEP2        0.0000 
     25 CA         45.2115   47.6575   54.0185 C.3       3 GLC5        0.0000 
     26 CA         44.2750   47.0320   55.8580 C.3       9 GLL5        0.0000 
     27 CA         46.1480   48.2830   52.1790 C.3       6 GLP5        0.0000 
     28 N          46.2795   46.3345   55.7430 N.am      2 SEC2        0.0000 
     29 N          44.8510   46.0570   54.9780 N.am      8 SEL2        0.0000 
     30 CA         43.9710   48.1075   53.4740 C.3       3 GLC5        0.0000 
     31 CA         42.9480   47.3340   55.2520 C.3       9 GLL5        0.0000 
     32 CA         44.9940   48.8810   51.6960 C.3       6 GLP5        0.0000 
     33 CA         41.0850   50.8955   56.4095 C.3       3 GLC5        0.0000 
     34 CA         41.6320   50.5930   54.3870 C.3       9 GLL5        0.0000 
     35 CA         40.5480   52.9535   54.9035 C.3       3 GLC5        0.0000 
     36 CA         40.7060   51.2760   53.6170 C.3       9 GLL5        0.0000 
     37 CA         40.3900   54.6310   56.1900 C.3       6 GLP5        0.0000 
     38 O          39.6290   53.7425   53.1630 O.2       1 ALC1        0.0000 
     39 O          40.4560   52.5700   53.7400 O.2       7 ALL1        0.0000 
     40 O          38.8020   54.9150   52.5860 O.2       4 ALP1        0.0000 
@<TRIPOS>BOND
@<TRIPOS>SUBSTRUCTURE
     1 ALC1       38 GROUP        1 X    ALC  0     ROOT ALC X 1
     2 SEC2        1 GROUP        1 X    SEC  0     **** SEC X 2
     3 GLC5       15 GROUP        1 X    GLC  0     **** GLC X 6
     4 ALP1       40 GROUP        1 Y    ALP  0     ROOT ALP Y 8
     5 SEP2        3 GROUP        1 Y    SEP  0     **** SEP Y 9
     6 GLP5       17 GROUP        1 Y    GLP  0     **** GLP Y 13
     7 ALL1       39 GROUP        1 Z    ALL  0     ROOT ALL Z 15
     8 SEL2        2 GROUP        1 Z    SEL  0     **** SEL Z 16
     9 GLL5       16 GROUP        1 Z    GLL  0     **** GLL Z 20
@<TRIPOS>SET

