#    Name: 1ecj_AMP_1_ligand
#    Modification time : Mon Mar 24 23:31:14 2014

@<TRIPOS>MOLECULE
1ecj_AMP_1_ligand
   35    37     1     0     0
SMALL
NO_CHARGES


@<TRIPOS>ATOM
      1 P          38.9750   46.8710   59.0620 P.3       1 AMP505      0.0000 
      2 O1P        39.1030   45.6370   59.7610 O.co2     1 AMP505      0.0000 
      3 O2P        39.1360   47.9350   60.0020 O.co2     1 AMP505      0.0000 
      4 O3P        37.7790   47.0070   58.3080 O.co2     1 AMP505      0.0000 
      5 O5'        40.1630   47.0010   58.1060 O.3       1 AMP505      0.0000 
      6 C5'        41.5490   47.1670   58.3530 C.3       1 AMP505      0.0000 
      7 C4'        42.4310   46.3340   57.3500 C.3       1 AMP505      0.0000 
      8 O4'        41.9640   46.7810   56.0970 O.3       1 AMP505      0.0000 
      9 C3'        43.9690   46.5260   57.2610 C.3       1 AMP505      0.0000 
     10 O3'        44.6840   45.2950   57.3820 O.3       1 AMP505      0.0000 
     11 C2'        44.2750   47.0320   55.8580 C.3       1 AMP505      0.0000 
     12 O2'        44.8510   46.0570   54.9780 O.3       1 AMP505      0.0000 
     13 C1'        42.9480   47.3340   55.2520 C.3       1 AMP505      0.0000 
     14 N9         42.6340   48.7730   55.0740 N.pl3     1 AMP505      0.0000 
     15 C8         43.0860   49.8860   55.7140 C.2       1 AMP505      0.0000 
     16 N7         42.5210   51.0010   55.3390 N.2       1 AMP505      0.0000 
     17 C5         41.6320   50.5930   54.3870 C.ar      1 AMP505      0.0000 
     18 C6         40.7060   51.2760   53.6170 C.ar      1 AMP505      0.0000 
     19 N6         40.4560   52.5700   53.7400 N.pl3     1 AMP505      0.0000 
     20 N1         39.9780   50.5740   52.7570 N.ar      1 AMP505      0.0000 
     21 C2         40.1580   49.2800   52.6700 C.ar      1 AMP505      0.0000 
     22 N3         40.9870   48.5300   53.3450 N.ar      1 AMP505      0.0000 
     23 C4         41.7040   49.2540   54.2070 C.ar      1 AMP505      0.0000 
     24 H          41.8393   46.8388   59.3651 H         1 AMP505      0.0000 
     25 H          41.8729   48.2162   58.2507 H         1 AMP505      0.0000 
     26 H          42.1966   45.2969   57.4611 H         1 AMP505      0.0000 
     27 H          44.2738   47.2559   57.9546 H         1 AMP505      0.0000 
     28 H          44.8320   47.9259   55.9060 H         1 AMP505      0.0000 
     29 H          42.8931   46.8390   54.2751 H         1 AMP505      0.0000 
     30 H          43.8071   49.8235   56.4233 H         1 AMP505      0.0000 
     31 H          39.7718   52.9473   53.1159 H         1 AMP505      0.0000 
     32 H          40.9740   53.0530   54.4460 H         1 AMP505      0.0000 
     33 H          39.5225   48.7529   51.9250 H         1 AMP505      0.0000 
     34 H          45.0650   45.1268   56.4729 H         1 AMP505      0.0000 
     35 H          44.3093   46.1134   54.1393 H         1 AMP505      0.0000 
@<TRIPOS>BOND
     1    2    1 ar   
     2    3    1 ar   
     3    4    1 ar   
     4    5    1 1    
     5    6    5 1    
     6    7    6 1    
     7   24    6 1    
     8   25    6 1    
     9    8    7 1    
    10    9    7 1    
    11   26    7 1    
    12   13    8 1    
    13   10    9 1    
    14   11    9 1    
    15   27    9 1    
    16   34   10 1    
    17   12   11 1    
    18   13   11 1    
    19   28   11 1    
    20   35   12 1    
    21   14   13 1    
    22   29   13 1    
    23   15   14 1    
    24   23   14 1    
    25   16   15 2    
    26   30   15 1    
    27   17   16 1    
    28   18   17 ar   
    29   23   17 ar   
    30   19   18 1    
    31   20   18 ar   
    32   31   19 1    
    33   32   19 1    
    34   21   20 ar   
    35   22   21 ar   
    36   33   21 1    
    37   23   22 ar   
@<TRIPOS>SUBSTRUCTURE
     1 AMP505      1 GROUP   
@<TRIPOS>SET

