#    Name: 3b3k_LRG_1_INTS_M
#    Modification time : Mon Mar 24 18:50:59 2014

@<TRIPOS>MOLECULE
3b3k_LRG_1_INTS_M
   64     0     6     0     0
SMALL
NO_CHARGES


@<TRIPOS>ATOM
      1 CA         15.7335   62.6375   17.7960 C.3       2 GLC5        0.0000 
      2 CA         16.6020   61.2790   16.4460 C.3       6 GLL5        0.0000 
      3 CA         14.8650   63.9960   19.1460 C.3       4 GLP5        0.0000 
      4 CA         20.0640   60.0535   13.4415 C.3       2 GLC5        0.0000 
      5 CA         18.6700   60.6720   14.6840 C.3       6 GLL5        0.0000 
      6 CA         21.4580   59.4350   12.1990 C.3       4 GLP5        0.0000 
      7 CA         17.7220   60.6195   20.1610 C.3       2 GLC5        0.0000 
      8 CA         18.2000   61.3340   18.4120 C.3       6 GLL5        0.0000 
      9 CA         17.2440   59.9050   21.9100 C.3       4 GLP5        0.0000 
     10 CA         18.6295   59.3900   18.0860 C.3       2 GLC5        0.0000 
     11 CA         19.0590   57.4460   17.7600 C.3       4 GLP5        0.0000 
     12 N          16.9625   63.0950   19.9780 N.am      1 SEC2        0.0000 
     13 N          18.1160   63.1100   20.9320 N.am      5 SEL2        0.0000 
     14 N          15.8090   63.0800   19.0240 N.am      3 SEP2        0.0000 
     15 N          17.6550   62.1410   21.6835 N.am      1 SEC2        0.0000 
     16 N          17.1940   61.1720   22.4350 N.am      3 SEP2        0.0000 
     17 N          19.1045   62.0040   21.7135 N.am      1 SEC2        0.0000 
     18 N          20.0930   60.8980   22.4950 N.am      3 SEP2        0.0000 
     19 N          21.2385   61.9145   19.8575 N.am      1 SEC2        0.0000 
     20 N          20.2520   62.6460   20.5770 N.am      5 SEL2        0.0000 
     21 N          22.2250   61.1830   19.1380 N.am      3 SEP2        0.0000 
     22 N          20.1725   61.7720   21.5360 N.am      1 SEC2        0.0000 
     23 N          21.1065   62.0195   18.5165 N.am      1 SEC2        0.0000 
     24 N          19.9880   62.8560   17.8950 N.am      5 SEL2        0.0000 
     25 CA         18.5415   66.4705   17.7390 C.3       2 GLC5        0.0000 
     26 CA         19.9910   65.2310   18.3410 C.3       6 GLL5        0.0000 
     27 CA         17.0920   67.7100   17.1370 C.3       4 GLP5        0.0000 
     28 CA         18.6075   65.8795   19.8400 C.3       2 GLC5        0.0000 
     29 CA         17.2240   66.5280   21.3390 C.3       4 GLP5        0.0000 
     30 CA         19.2890   67.6795   17.9575 C.3       2 GLC5        0.0000 
     31 CA         20.6690   66.4430   18.3170 C.3       6 GLL5        0.0000 
     32 CA         17.9090   68.9160   17.5980 C.3       4 GLP5        0.0000 
     33 CA         20.9505   67.0615   20.3095 C.3       2 GLC5        0.0000 
     34 CA         21.2320   67.6800   22.3020 C.3       4 GLP5        0.0000 
     35 CA         19.9245   68.9200   17.7505 C.3       2 GLC5        0.0000 
     36 CA         21.9400   68.9240   17.9030 C.3       6 GLL5        0.0000 
     37 CA         17.8417   62.5780   14.9703 C.3       2 GLC5        0.0000 
     38 CA         19.2150   63.9570   14.1740 C.3       4 GLP5        0.0000 
     39 CA         18.6180   62.3507   14.3097 C.3       2 GLC5        0.0000 
     40 CA         17.3720   60.8170   14.2070 C.3       6 GLL5        0.0000 
     41 CA         17.4844   59.2105   13.7977 C.3       2 GLC5        0.0000 
     42 CA         17.2070   57.6010   12.9300 C.3       4 GLP5        0.0000 
     43 CA         18.8167   62.4698   15.3277 C.3       2 GLC5        0.0000 
     44 CA         18.9350   60.8300   16.0400 C.3       6 GLL5        0.0000 
     45 CA         15.8296   59.9320   16.8624 C.3       2 GLC5        0.0000 
     46 CA         17.9020   61.1350   16.9230 C.3       6 GLL5        0.0000 
     47 CA         14.4740   58.6970   17.3800 C.3       4 GLP5        0.0000 
     48 CA         16.6815   63.0103   18.8473 C.3       2 GLC5        0.0000 
     49 CA         20.1781   64.1669   16.0155 C.3       2 GLC5        0.0000 
     50 CA         23.3770   64.6595   18.9657 C.3       2 GLC5        0.0000 
     51 CA         21.9690   64.1090   17.5650 C.3       6 GLL5        0.0000 
     52 CA         24.4480   64.6020   20.3800 C.3       4 GLP5        0.0000 
     53 CA         22.5945   66.8885   15.8083 C.3       2 GLC5        0.0000 
     54 CA         22.6430   65.3250   17.5380 C.3       6 GLL5        0.0000 
     55 CA         22.8670   67.8620   13.8940 C.3       4 GLP5        0.0000 
     56 CA         23.8109   66.0270   19.0371 C.3       2 GLC5        0.0000 
     57 CA         24.0210   67.7860   17.5400 C.3       6 GLL5        0.0000 
     58 CA         26.0278   67.5712   17.5592 C.3       2 GLC5        0.0000 
     59 CA         27.7100   66.7440   17.6480 C.3       4 GLP5        0.0000 
     60 CA         23.5888   68.7317   15.6753 C.3       2 GLC5        0.0000 
     61 CA         24.6700   69.0110   17.4010 C.3       6 GLL5        0.0000 
     62 CA         24.7716   70.9644   17.4706 C.3       2 GLC5        0.0000 
     63 CA         26.0960   72.0520   17.3310 C.3       4 GLP5        0.0000 
     64 CA         22.7526   68.1016   15.8390 C.3       2 GLC5        0.0000 
@<TRIPOS>BOND
@<TRIPOS>SUBSTRUCTURE
     1 SEC2       12 GROUP        1 X    SEC  0     ROOT SEC X 2
     2 GLC5        1 GROUP        1 X    GLC  0     **** GLC X 6
     3 SEP2       14 GROUP        1 Y    SEP  0     ROOT SEP Y 9
     4 GLP5        3 GROUP        1 Y    GLP  0     **** GLP Y 13
     5 SEL2       13 GROUP        1 Z    SEL  0     ROOT SEL Z 16
     6 GLL5        2 GROUP        1 Z    GLL  0     **** GLL Z 20
@<TRIPOS>SET

