#    Name: 3b3k_LRG_1_ligand
#    Modification time : Mon Mar 24 18:50:59 2014

@<TRIPOS>MOLECULE
3b3k_LRG_1_ligand
   41    43     1     0     0
SMALL
NO_CHARGES


@<TRIPOS>ATOM
      1 CAI        16.6020   61.2790   16.4460 C.ar      1 LRG1        0.0000 
      2 CAE        16.3350   61.1190   15.0870 C.ar      1 LRG1        0.0000 
      3 CAC        17.3720   60.8170   14.2070 C.ar      1 LRG1        0.0000 
      4 CAF        18.6700   60.6720   14.6840 C.ar      1 LRG1        0.0000 
      5 CAJ        18.9350   60.8300   16.0400 C.ar      1 LRG1        0.0000 
      6 CAT        17.9020   61.1350   16.9230 C.ar      1 LRG1        0.0000 
      7 CAQ        18.2000   61.3340   18.4120 C.3       1 LRG1        0.0000 
      8 CAX        18.7960   62.7150   18.6850 C.3       1 LRG1        0.0000 
      9 CAS        19.0800   62.8320   20.1850 C.2       1 LRG1        0.0000 
     10 OAB        18.1160   63.1100   20.9320 O.co2     1 LRG1        0.0000 
     11 OAA        20.2520   62.6460   20.5770 O.co2     1 LRG1        0.0000 
     12 OAR        19.9880   62.8560   17.8950 O.3       1 LRG1        0.0000 
     13 CAU        20.6360   64.0580   17.9570 C.ar      1 LRG1        0.0000 
     14 CAN        19.9910   65.2310   18.3410 C.ar      1 LRG1        0.0000 
     15 CAP        20.6690   66.4430   18.3170 C.ar      1 LRG1        0.0000 
     16 CAM        21.9690   64.1090   17.5650 C.ar      1 LRG1        0.0000 
     17 CAO        22.6430   65.3250   17.5380 C.ar      1 LRG1        0.0000 
     18 CAW        22.0010   66.5050   17.9070 C.ar      1 LRG1        0.0000 
     19 CAV        22.6520   67.7310   17.7900 C.ar      1 LRG1        0.0000 
     20 CAK        24.0210   67.7860   17.5400 C.ar      1 LRG1        0.0000 
     21 CAG        24.6700   69.0110   17.4010 C.ar      1 LRG1        0.0000 
     22 CAD        23.9510   70.1920   17.5120 C.ar      1 LRG1        0.0000 
     23 CAH        22.5840   70.1520   17.7640 C.ar      1 LRG1        0.0000 
     24 CAL        21.9400   68.9240   17.9030 C.ar      1 LRG1        0.0000 
     25 H          15.8378   61.5035   17.0956 H         1 LRG1        0.0000 
     26 H          15.3763   61.2236   14.7360 H         1 LRG1        0.0000 
     27 H          17.1761   60.7015   13.2043 H         1 LRG1        0.0000 
     28 H          19.4346   60.4478   14.0337 H         1 LRG1        0.0000 
     29 H          19.8953   60.7216   16.3924 H         1 LRG1        0.0000 
     30 H          18.9034   60.5675   18.7413 H         1 LRG1        0.0000 
     31 H          17.2746   61.2233   18.9796 H         1 LRG1        0.0000 
     32 H          18.0550   63.4479   18.4187 H         1 LRG1        0.0000 
     33 H          19.0070   65.1980   18.6438 H         1 LRG1        0.0000 
     34 H          20.1847   67.3082   18.6049 H         1 LRG1        0.0000 
     35 H          22.4581   63.2447   17.2941 H         1 LRG1        0.0000 
     36 H          23.6324   65.3549   17.2407 H         1 LRG1        0.0000 
     37 H          24.5608   66.9099   17.4568 H         1 LRG1        0.0000 
     38 H          25.6810   69.0367   17.2164 H         1 LRG1        0.0000 
     39 H          24.4273   71.0978   17.4082 H         1 LRG1        0.0000 
     40 H          22.0492   71.0244   17.8477 H         1 LRG1        0.0000 
     41 H          20.9258   68.8975   18.0915 H         1 LRG1        0.0000 
@<TRIPOS>BOND
     1    2    1 ar   
     2    6    1 ar   
     3   25    1 1    
     4    3    2 ar   
     5   26    2 1    
     6    4    3 ar   
     7   27    3 1    
     8    5    4 ar   
     9   28    4 1    
    10    6    5 ar   
    11   29    5 1    
    12    7    6 1    
    13    8    7 1    
    14   30    7 1    
    15   31    7 1    
    16    9    8 1    
    17   12    8 1    
    18   32    8 1    
    19   10    9 ar   
    20   11    9 ar   
    21   13   12 1    
    22   14   13 ar   
    23   16   13 ar   
    24   15   14 ar   
    25   33   14 1    
    26   18   15 ar   
    27   34   15 1    
    28   17   16 ar   
    29   35   16 1    
    30   18   17 ar   
    31   36   17 1    
    32   19   18 1    
    33   20   19 ar   
    34   24   19 ar   
    35   21   20 ar   
    36   37   20 1    
    37   22   21 ar   
    38   38   21 1    
    39   23   22 ar   
    40   39   22 1    
    41   24   23 ar   
    42   40   23 1    
    43   41   24 1    
@<TRIPOS>SUBSTRUCTURE
     1 LRG1        1 GROUP   
@<TRIPOS>SET

