#    Name: 4nka_2K7_2_INTS_M
#    Modification time : Tue Mar 25 13:13:56 2014

@<TRIPOS>MOLECULE
4nka_2K7_2_INTS_M
   75     0     9     0     0
SMALL
NO_CHARGES


@<TRIPOS>ATOM
      1 CA         31.9175    0.3610   21.8035 C.3       3 GLC5        0.0000 
      2 CA         31.9370    2.2610   22.5100 C.3       9 GLL5        0.0000 
      3 CA         31.8980   -1.5390   21.0970 C.3       6 GLP5        0.0000 
      4 CA         28.2780   -3.0260   21.4825 C.3       3 GLC5        0.0000 
      5 CA         27.9110   -1.1030   22.5530 C.3       9 GLL5        0.0000 
      6 CA         28.6450   -4.9490   20.4120 C.3       6 GLP5        0.0000 
      7 CA         27.0395    1.8940   23.3205 C.3       3 GLC5        0.0000 
      8 CA         27.9320    0.3040   22.3260 C.3       9 GLL5        0.0000 
      9 CA         26.1470    3.4840   24.3150 C.3       6 GLP5        0.0000 
     10 CA         26.3970    2.6180   22.4600 C.3       3 GLC5        0.0000 
     11 CA         26.6470    1.7520   20.6050 C.3       9 GLL5        0.0000 
     12 CA         25.2415    1.1125   21.7305 C.3       3 GLC5        0.0000 
     13 CA         23.8360    0.4730   22.8560 C.3       6 GLP5        0.0000 
     14 CA         24.9205    1.8185   19.9835 C.3       3 GLC5        0.0000 
     15 CA         23.1940    1.8850   19.3620 C.3       6 GLP5        0.0000 
     16 CA         25.9520    1.8235   17.2725 C.3       3 GLC5        0.0000 
     17 CA         26.5380    3.5380   17.8520 C.3       9 GLL5        0.0000 
     18 CA         25.3660    0.1090   16.6930 C.3       6 GLP5        0.0000 
     19 CA         24.8660    2.7115   18.6070 C.3       3 GLC5        0.0000 
     20 CA         27.4920    5.1880   21.4030 C.3       3 GLC5        0.0000 
     21 CA         28.0230    4.6990   19.3780 C.3       9 GLL5        0.0000 
     22 CA         26.9610    5.6770   23.4280 C.3       6 GLP5        0.0000 
     23 CA         28.1375    6.4320   21.7400 C.3       3 GLC5        0.0000 
     24 CA         29.3140    7.1870   20.0520 C.3       9 GLL5        0.0000 
     25 CA         27.9250    8.3735   20.2275 C.3       3 GLC5        0.0000 
     26 CA         26.5360    9.5600   20.4030 C.3       6 GLP5        0.0000 
     27 CA         25.2995    8.0240   18.4580 C.3       3 GLC5        0.0000 
     28 CA         25.1800    7.5010   16.7050 C.3       9 GLL5        0.0000 
     29 CA         25.4190    8.5470   20.2110 C.3       6 GLP5        0.0000 
     30 CA         24.7940    9.0325   15.5855 C.3       3 GLC5        0.0000 
     31 CA         24.4080   10.5640   14.4660 C.3       6 GLP5        0.0000 
     32 CA         24.0540    6.3360   15.3930 C.3       3 GLC5        0.0000 
     33 CA         22.9280    5.1710   14.0810 C.3       6 GLP5        0.0000 
     34 CA         28.5880    5.8915   16.3015 C.3       3 GLC5        0.0000 
     35 CA         26.7890    5.9300   17.6440 C.3       9 GLL5        0.0000 
     36 CA         30.3870    5.8530   14.9590 C.3       6 GLP5        0.0000 
     37 N          27.7915    8.4355   19.1300 N.am      2 SEC2        0.0000 
     38 N          28.2420    7.1430   19.0990 N.am      8 SEL2        0.0000 
     39 N          27.3410    9.7280   19.1610 N.am      5 SEP2        0.0000 
     40 O          28.7665   -3.3395   23.3785 O.2       1 ALC1        0.0000 
     41 O          28.6540   -1.9100   23.4460 O.2       7 ALL1        0.0000 
     42 O          28.8790   -4.7690   23.3110 O.2       4 ALP1        0.0000 
     43 CA         29.4545    0.8270   26.3695 C.3       3 GLC5        0.0000 
     44 CA         30.8900    0.1890   25.2920 C.3       9 GLL5        0.0000 
     45 CA         28.0190    1.4650   27.4470 C.3       6 GLP5        0.0000 
     46 CA         29.2325    1.9900   26.0170 C.3       3 GLC5        0.0000 
     47 CA         30.4460    2.5150   24.5870 C.3       9 GLL5        0.0000 
     48 CA         30.5535    3.8395   26.2505 C.3       3 GLC5        0.0000 
     49 CA         30.6610    5.1640   27.9140 C.3       6 GLP5        0.0000 
     50 CA         28.5865    3.6845   24.6380 C.3       3 GLC5        0.0000 
     51 CA         26.7270    4.8540   24.6890 C.3       6 GLP5        0.0000 
     52 CA         34.1375    2.3175   18.5315 C.3       3 GLC5        0.0000 
     53 CA         32.7760    2.7240   20.0780 C.3       9 GLL5        0.0000 
     54 CA         35.4990    1.9110   16.9850 C.3       6 GLP5        0.0000 
     55 CA         32.3370    0.5925   20.5875 C.3       3 GLC5        0.0000 
     56 CA         31.6135    2.2820   18.4465 C.3       3 GLC5        0.0000 
     57 CA         30.4510    1.8400   16.8150 C.3       6 GLP5        0.0000 
     58 CA         32.0322   -3.3110   24.7707 C.3       3 GLC5        0.0000 
     59 CA         30.3200   -2.4790   25.1780 C.3       9 GLL5        0.0000 
     60 CA         33.2680   -4.3960   23.9230 C.3       6 GLP5        0.0000 
     61 CA         30.9385   -1.7697   22.9335 C.3       3 GLC5        0.0000 
     62 CA         27.0282   -0.0953   24.3978 C.3       3 GLC5        0.0000 
     63 CA         26.1350    0.2090   26.3560 C.3       6 GLP5        0.0000 
     64 CA         25.8788    0.0367   22.6478 C.3       3 GLC5        0.0000 
     65 CA         28.9468   -0.5847   21.0767 C.3       3 GLC5        0.0000 
     66 CA         29.9720   -0.7700   19.7140 C.3       6 GLP5        0.0000 
     67 CA         26.2858    1.0495   18.4068 C.3       3 GLC5        0.0000 
     68 CA         28.5888    0.6100   19.9172 C.3       3 GLC5        0.0000 
     69 CA         27.7640    2.2280   19.6360 C.3       9 GLL5        0.0000 
     70 CA         28.7585    2.5224   17.6928 C.3       3 GLC5        0.0000 
     71 CA         26.3380    7.2330   19.2017 C.3       3 GLC5        0.0000 
     72 CA         27.7250    5.9080   18.7410 C.3       9 GLL5        0.0000 
     73 CA         29.0870   -1.4699   26.7273 C.3       3 GLC5        0.0000 
     74 CA         29.6380   -1.5220   24.3620 C.3       9 GLL5        0.0000 
     75 CA         27.5480   -0.9530   28.0400 C.3       6 GLP5        0.0000 
@<TRIPOS>BOND
@<TRIPOS>SUBSTRUCTURE
     1 ALC1       40 GROUP        1 X    ALC  0     ROOT ALC X 1
     2 SEC2       37 GROUP        1 X    SEC  0     **** SEC X 2
     3 GLC5        1 GROUP        1 X    GLC  0     **** GLC X 6
     4 ALP1       42 GROUP        1 Y    ALP  0     ROOT ALP Y 8
     5 SEP2       39 GROUP        1 Y    SEP  0     **** SEP Y 9
     6 GLP5        3 GROUP        1 Y    GLP  0     **** GLP Y 13
     7 ALL1       41 GROUP        1 Z    ALL  0     ROOT ALL Z 15
     8 SEL2       38 GROUP        1 Z    SEL  0     **** SEL Z 16
     9 GLL5        2 GROUP        1 Z    GLL  0     **** GLL Z 20
@<TRIPOS>SET

