#    Name: 4nka_2K7_2_ligand
#    Modification time : Tue Mar 25 13:13:56 2014

@<TRIPOS>MOLECULE
4nka_2K7_2_ligand
   57    60     1     0     0
SMALL
NO_CHARGES


@<TRIPOS>ATOM
      1 C1         31.8710    2.9020   21.2630 C.2       1 2K7803      0.0000 
      2 C2         31.9370    2.2610   22.5100 C.2       1 2K7803      0.0000 
      3 C3         30.9030    2.7450   23.2100 C.2       1 2K7803      0.0000 
      4 N6         27.0730   -1.7310   21.7330 N.pl3     1 2K7803      0.0000 
      5 C7         30.3200   -2.4790   25.1780 C.ar      1 2K7803      0.0000 
      6 C8         29.6380   -1.5220   24.3620 C.ar      1 2K7803      0.0000 
      7 C9         27.9110   -1.1030   22.5530 C.2       1 2K7803      0.0000 
      8 C10        27.9320    0.3040   22.3260 C.2       1 2K7803      0.0000 
      9 C11        27.0190    0.5110   21.3060 C.2       1 2K7803      0.0000 
     10 C12        26.6470    1.7520   20.6050 C.3       1 2K7803      0.0000 
     11 C13        27.7640    2.2280   19.6360 C.3       1 2K7803      0.0000 
     12 C14        27.4240    3.5150   18.9420 C.ar      1 2K7803      0.0000 
     13 C15        26.5380    3.5380   17.8520 C.ar      1 2K7803      0.0000 
     14 C16        26.2130    4.7260   17.2040 C.ar      1 2K7803      0.0000 
     15 C19        28.0230    4.6990   19.3780 C.ar      1 2K7803      0.0000 
     16 C20        29.3140    7.1870   20.0520 C.3       1 2K7803      0.0000 
     17 C21        25.1800    7.5010   16.7050 C.3       1 2K7803      0.0000 
     18 O2         26.5340    7.1930   17.0790 O.3       1 2K7803      0.0000 
     19 C17        26.7890    5.9300   17.6440 C.ar      1 2K7803      0.0000 
     20 C18        27.7250    5.9080   18.7410 C.ar      1 2K7803      0.0000 
     21 O1         28.2420    7.1430   19.0990 O.3       1 2K7803      0.0000 
     22 N5         26.5110   -0.6940   20.9850 N.2       1 2K7803      0.0000 
     23 N4         28.6540   -1.9100   23.4460 N.pl3     1 2K7803      0.0000 
     24 C6         31.2730   -1.9730   26.0590 C.ar      1 2K7803      0.0000 
     25 N2         31.5730   -0.6170   26.1230 N.ar      1 2K7803      0.0000 
     26 N3         29.9150   -0.2000   24.4270 N.ar      1 2K7803      0.0000 
     27 C5         30.8900    0.1890   25.2920 C.ar      1 2K7803      0.0000 
     28 N1         31.2070    1.5010   25.3220 N.pl3     1 2K7803      0.0000 
     29 C4         30.4460    2.5150   24.5870 C.3       1 2K7803      0.0000 
     30 O          30.2030    3.6560   22.4490 O.3       1 2K7803      0.0000 
     31 N          30.8650    3.7250   21.1980 N.2       1 2K7803      0.0000 
     32 C          32.7760    2.7240   20.0780 C.3       1 2K7803      0.0000 
     33 H          32.5847    1.6319   22.7615 H         1 2K7803      0.0000 
     34 H          26.8784   -2.6358   21.6456 H         1 2K7803      0.0000 
     35 H          30.1117   -3.4500   25.1065 H         1 2K7803      0.0000 
     36 H          28.4491    0.9200   22.7737 H         1 2K7803      0.0000 
     37 H          26.4587    2.5629   21.3196 H         1 2K7803      0.0000 
     38 H          25.7334    1.6084   20.0147 H         1 2K7803      0.0000 
     39 H          27.9331    1.4343   18.8967 H         1 2K7803      0.0000 
     40 H          28.6890    2.3451   20.2155 H         1 2K7803      0.0000 
     41 H          26.1199    2.6471   17.5273 H         1 2K7803      0.0000 
     42 H          25.5634    4.7293   16.4164 H         1 2K7803      0.0000 
     43 H          28.6809    4.6829   20.1645 H         1 2K7803      0.0000 
     44 H          28.4265   -2.9708   23.4120 H         1 2K7803      0.0000 
     45 H          31.7765   -2.6329   26.6898 H         1 2K7803      0.0000 
     46 H          32.0164    1.8552   25.8756 H         1 2K7803      0.0000 
     47 H          29.3651    2.2277   24.5722 H         1 2K7803      0.0000 
     48 H          30.4765    3.4809   25.1504 H         1 2K7803      0.0000 
     49 H          30.1174    6.6857   19.7307 H         1 2K7803      0.0000 
     50 H          29.6082    8.1247   20.2370 H         1 2K7803      0.0000 
     51 H          29.0487    6.7848   20.9283 H         1 2K7803      0.0000 
     52 H          25.1017    8.4192   16.3167 H         1 2K7803      0.0000 
     53 H          24.8294    6.8623   16.0201 H         1 2K7803      0.0000 
     54 H          24.5599    7.4601   17.4884 H         1 2K7803      0.0000 
     55 H          33.7243    2.9534   20.2972 H         1 2K7803      0.0000 
     56 H          32.7718    1.7808   19.7459 H         1 2K7803      0.0000 
     57 H          32.5033    3.3058   19.3117 H         1 2K7803      0.0000 
@<TRIPOS>BOND
     1    2    1 1    
     2   31    1 2    
     3   32    1 1    
     4    3    2 2    
     5   33    2 1    
     6   29    3 1    
     7   30    3 1    
     8    7    4 1    
     9   22    4 1    
    10   34    4 1    
    11    6    5 ar   
    12   24    5 ar   
    13   35    5 1    
    14   23    6 1    
    15   26    6 ar   
    16    8    7 2    
    17   23    7 1    
    18    9    8 1    
    19   36    8 1    
    20   10    9 1    
    21   22    9 2    
    22   11   10 1    
    23   37   10 1    
    24   38   10 1    
    25   12   11 1    
    26   39   11 1    
    27   40   11 1    
    28   13   12 ar   
    29   15   12 ar   
    30   14   13 ar   
    31   41   13 1    
    32   19   14 ar   
    33   42   14 1    
    34   20   15 ar   
    35   43   15 1    
    36   21   16 1    
    37   49   16 1    
    38   50   16 1    
    39   51   16 1    
    40   18   17 1    
    41   52   17 1    
    42   53   17 1    
    43   54   17 1    
    44   19   18 1    
    45   20   19 ar   
    46   21   20 1    
    47   44   23 1    
    48   25   24 ar   
    49   45   24 1    
    50   27   25 ar   
    51   27   26 ar   
    52   28   27 1    
    53   29   28 1    
    54   46   28 1    
    55   47   29 1    
    56   48   29 1    
    57   31   30 1    
    58   55   32 1    
    59   56   32 1    
    60   57   32 1    
@<TRIPOS>SUBSTRUCTURE
     1 2K7803      1 GROUP   
@<TRIPOS>SET

