#    Name: 3new_3NE_1_INTS_M
#    Modification time : Tue Mar 25 01:26:45 2014

@<TRIPOS>MOLECULE
3new_3NE_1_INTS_M
   72     0     9     0     0
SMALL
NO_CHARGES


@<TRIPOS>ATOM
      1 CA         26.2125   16.9645   11.1020 C.3       3 GLC5        0.0000 
      2 CA         24.6130   15.5740   11.5250 C.3       9 GLL5        0.0000 
      3 CA         27.8120   18.3550   10.6790 C.3       6 GLP5        0.0000 
      4 CA         22.4560   21.3370    8.7510 C.3       3 GLC5        0.0000 
      5 CA         22.3440   19.2700    8.9370 C.3       9 GLL5        0.0000 
      6 CA         22.5680   23.4040    8.5650 C.3       6 GLP5        0.0000 
      7 CA         25.3190   17.7255    9.1085 C.3       3 GLC5        0.0000 
      8 CA         23.3430   17.1420    8.9450 C.3       9 GLL5        0.0000 
      9 CA         27.2950   18.3090    9.2720 C.3       6 GLP5        0.0000 
     10 CA         23.7025   12.7495   14.5635 C.3       3 GLC5        0.0000 
     11 CA         24.5020   13.4260   12.6410 C.3       9 GLL5        0.0000 
     12 CA         22.9030   12.0730   16.4860 C.3       6 GLP5        0.0000 
     13 CA         25.5075   12.6690   14.5055 C.3       3 GLC5        0.0000 
     14 CA         26.5130   11.9120   16.3700 C.3       6 GLP5        0.0000 
     15 CA         25.1155   18.4130    7.3520 C.3       3 GLC5        0.0000 
     16 CA         23.5640   17.3800    7.5910 C.3       9 GLL5        0.0000 
     17 CA         26.6670   19.4460    7.1130 C.3       6 GLP5        0.0000 
     18 O          25.2130   16.9780    6.0965 O.2       1 ALC1        0.0000 
     19 O          24.1760   16.2210    7.1650 O.2       7 ALL1        0.0000 
     20 O          26.2500   17.7350    5.0280 O.2       4 ALP1        0.0000 
     21 N          23.0050   21.7755    6.7970 N.am      2 SEC2        0.0000 
     22 N          22.2790   20.4890    6.9520 N.am      8 SEL2        0.0000 
     23 N          23.7310   23.0620    6.6420 N.am      5 SEP2        0.0000 
     24 CA         23.7060   14.2125   16.0085 C.3       3 GLC5        0.0000 
     25 CA         24.5620   15.0630   14.8590 C.3       9 GLL5        0.0000 
     26 CA         22.8500   13.3620   17.1580 C.3       6 GLP5        0.0000 
     27 CA         22.4820   14.9460   14.2975 C.3       3 GLC5        0.0000 
     28 CA         20.4020   14.8290   13.7360 C.3       6 GLP5        0.0000 
     29 CA         28.3305   15.5420   14.5245 C.3       3 GLC5        0.0000 
     30 CA         26.5740   14.6190   14.0990 C.3       9 GLL5        0.0000 
     31 CA         30.0870   16.4650   14.9500 C.3       6 GLP5        0.0000 
     32 CA         27.8320   14.0085   13.0050 C.3       3 GLC5        0.0000 
     33 CA         29.0900   13.3980   11.9110 C.3       6 GLP5        0.0000 
     34 CA         27.1785   13.2985   14.9075 C.3       3 GLC5        0.0000 
     35 CA         27.7830   11.9780   15.7160 C.3       6 GLP5        0.0000 
     36 CA         27.9545   16.5300   14.4915 C.3       3 GLC5        0.0000 
     37 CA         25.8220   16.5950   14.0330 C.3       9 GLL5        0.0000 
     38 CA         26.8170   17.4750   12.3560 C.3       3 GLC5        0.0000 
     39 CA         26.4180   17.6195   15.2725 C.3       3 GLC5        0.0000 
     40 CA         27.0140   18.6440   16.5120 C.3       6 GLP5        0.0000 
     41 CA         22.4735   20.7200   11.8790 C.3       3 GLC5        0.0000 
     42 CA         21.4870   18.9290   11.6140 C.3       9 GLL5        0.0000 
     43 CA         23.4600   22.5110   12.1440 C.3       6 GLP5        0.0000 
     44 CA         21.2890   15.4460   11.9865 C.3       3 GLC5        0.0000 
     45 CA         22.0520   16.8250   11.6040 C.3       9 GLL5        0.0000 
     46 CA         20.5260   14.0670   12.3690 C.3       6 GLP5        0.0000 
     47 CA         23.2975   18.1055   13.5605 C.3       3 GLC5        0.0000 
     48 CA         23.4530   18.3390   11.8410 C.3       9 GLL5        0.0000 
     49 CA         23.1420   17.8720   15.2800 C.3       6 GLP5        0.0000 
     50 CA         24.6405   19.4475   10.5625 C.3       3 GLC5        0.0000 
     51 CA         25.8280   20.5560    9.2840 C.3       6 GLP5        0.0000 
     52 CA         23.4565   20.4250   11.9925 C.3       3 GLC5        0.0000 
     53 CA         22.4372   14.6787   11.6630 C.3       3 GLC5        0.0000 
     54 CA         24.1698   19.6320    9.2925 C.3       3 GLC5        0.0000 
     55 CA         22.6790   18.1460    9.6650 C.3       9 GLL5        0.0000 
     56 CA         26.0183   13.7920    9.9460 C.3       3 GLC5        0.0000 
     57 CA         24.0840   15.0070   10.3890 C.3       9 GLL5        0.0000 
     58 CA         28.0920   13.2520    9.4930 C.3       6 GLP5        0.0000 
     59 CA         22.5920   14.0805   12.4970 C.3       3 GLC5        0.0000 
     60 CA         24.8140   14.7620   12.6090 C.3       9 GLL5        0.0000 
     61 CA         21.0516   17.5570    9.5120 C.3       3 GLC5        0.0000 
     62 CA         19.1760   17.1890    9.9010 C.3       6 GLP5        0.0000 
     63 CA         25.7510   13.5463   15.3640 C.3       3 GLC5        0.0000 
     64 CA         25.4160   15.2980   13.8570 C.3       9 GLL5        0.0000 
     65 CA         22.2125   13.6653   11.6672 C.3       3 GLC5        0.0000 
     66 CA         23.9930   12.8700   11.5220 C.3       9 GLL5        0.0000 
     67 CA         23.3340   11.3153   10.4187 C.3       3 GLC5        0.0000 
     68 CA         22.7690    9.3670    9.8720 C.3       6 GLP5        0.0000 
     69 CA         24.2361   16.8464   14.6597 C.3       3 GLC5        0.0000 
     70 CA         21.5192   18.3214   13.1230 C.3       3 GLC5        0.0000 
     71 CA         21.0480   18.9840   14.7620 C.3       6 GLP5        0.0000 
     72 CA         20.5832   17.4239   10.6925 C.3       3 GLC5        0.0000 
@<TRIPOS>BOND
@<TRIPOS>SUBSTRUCTURE
     1 ALC1       18 GROUP        1 X    ALC  0     ROOT ALC X 1
     2 SEC2       21 GROUP        1 X    SEC  0     **** SEC X 2
     3 GLC5        1 GROUP        1 X    GLC  0     **** GLC X 6
     4 ALP1       20 GROUP        1 Y    ALP  0     ROOT ALP Y 8
     5 SEP2       23 GROUP        1 Y    SEP  0     **** SEP Y 9
     6 GLP5        3 GROUP        1 Y    GLP  0     **** GLP Y 13
     7 ALL1       19 GROUP        1 Z    ALL  0     ROOT ALL Z 15
     8 SEL2       22 GROUP        1 Z    SEL  0     **** SEL Z 16
     9 GLL5        2 GROUP        1 Z    GLL  0     **** GLL Z 20
@<TRIPOS>SET

