#    Name: 3new_3NE_1_ligand
#    Modification time : Tue Mar 25 01:26:45 2014

@<TRIPOS>MOLECULE
3new_3NE_1_ligand
   31    33     1     0     0
SMALL
NO_CHARGES


@<TRIPOS>ATOM
      1 C4         24.6130   15.5740   11.5250 C.ar      1 3NE361      0.0000 
      2 C5         22.3440   19.2700    8.9370 C.2       1 3NE361      0.0000 
      3 C6         24.0840   15.0070   10.3890 C.ar      1 3NE361      0.0000 
      4 C7         24.8140   14.7620   12.6090 C.ar      1 3NE361      0.0000 
      5 C8         22.6790   18.1460    9.6650 C.2       1 3NE361      0.0000 
      6 C10        23.3430   17.1420    8.9450 C.2       1 3NE361      0.0000 
      7 C13        25.4160   15.2980   13.8570 C.3       1 3NE361      0.0000 
      8 C1         23.9930   12.8700   11.5220 C.ar      1 3NE361      0.0000 
      9 C2         23.8050   13.6570   10.4090 C.ar      1 3NE361      0.0000 
     10 C3         24.5020   13.4260   12.6410 C.ar      1 3NE361      0.0000 
     11 C9         22.6500   19.3420    7.5790 C.2       1 3NE361      0.0000 
     12 C11        23.8820   15.8280    9.1930 C.2       1 3NE361      0.0000 
     13 C12        23.5640   17.3800    7.5910 C.2       1 3NE361      0.0000 
     14 C14        22.3710   18.0560   11.1140 C.3       1 3NE361      0.0000 
     15 N15        24.1760   16.2210    7.1650 N.pl3     1 3NE361      0.0000 
     16 N16        23.2540   18.4460    6.8030 N.am      1 3NE361      0.0000 
     17 N17        24.3740   15.2940    8.0790 N.2       1 3NE361      0.0000 
     18 O18        22.2790   20.4890    6.9520 O.2       1 3NE361      0.0000 
     19 F19        24.5620   15.0630   14.8590 F         1 3NE361      0.0000 
     20 F20        26.5740   14.6190   14.0990 F         1 3NE361      0.0000 
     21 F21        25.8220   16.5950   14.0330 F         1 3NE361      0.0000 
     22 F22        21.4870   18.9290   11.6140 F         1 3NE361      0.0000 
     23 F23        22.0520   16.8250   11.6040 F         1 3NE361      0.0000 
     24 F24        23.4530   18.3390   11.8410 F         1 3NE361      0.0000 
     25 H          24.8465   16.5654   11.5559 H         1 3NE361      0.0000 
     26 H          21.8663   20.0612    9.3932 H         1 3NE361      0.0000 
     27 H          23.7442   11.8694   11.4888 H         1 3NE361      0.0000 
     28 H          23.4311   13.2088    9.5321 H         1 3NE361      0.0000 
     29 H          24.6547   12.8781   13.4923 H         1 3NE361      0.0000 
     30 H          24.4490   16.1163    6.1892 H         1 3NE361      0.0000 
     31 H          23.4434   18.5192    5.8663 H         1 3NE361      0.0000 
@<TRIPOS>BOND
     1    3    1 ar   
     2    4    1 ar   
     3   25    1 1    
     4    5    2 2    
     5   11    2 1    
     6   26    2 1    
     7    9    3 ar   
     8   12    3 1    
     9    7    4 1    
    10   10    4 ar   
    11    6    5 1    
    12   14    5 1    
    13   12    6 1    
    14   13    6 2    
    15   19    7 1    
    16   20    7 1    
    17   21    7 1    
    18    9    8 ar   
    19   10    8 ar   
    20   27    8 1    
    21   28    9 1    
    22   29   10 1    
    23   16   11 am   
    24   18   11 2    
    25   17   12 2    
    26   15   13 1    
    27   16   13 1    
    28   22   14 1    
    29   23   14 1    
    30   24   14 1    
    31   17   15 1    
    32   30   15 1    
    33   31   16 1    
@<TRIPOS>SUBSTRUCTURE
     1 3NE361      1 GROUP   
@<TRIPOS>SET

