#    Name: 2bpw_1IN_1_INTS_M
#    Modification time : Mon Mar 24 21:24:50 2014

@<TRIPOS>MOLECULE
2bpw_1IN_1_INTS_M
   76     0     9     0     0
SMALL
NO_CHARGES


@<TRIPOS>ATOM
      1 CA          8.3530   22.8360    5.1380 C.3       3 GLC5        0.0000 
      2 CA          9.0940   24.2220    4.2110 C.3       9 GLL5        0.0000 
      3 CA          7.6120   21.4500    6.0650 C.3       6 GLP5        0.0000 
      4 N          19.4180   20.3785    3.6775 N.am      2 SEC2        0.0000 
      5 N          18.5560   19.8590    4.7550 N.am      8 SEL2        0.0000 
      6 N          20.2800   20.8980    2.6000 N.am      5 SEP2        0.0000 
      7 O          19.8665   19.5975    5.1205 O.2       1 ALC1        0.0000 
      8 O          18.5560   19.8590    4.7550 O.2       7 ALL1        0.0000 
      9 O          21.1770   19.3360    5.4860 O.2       4 ALP1        0.0000 
     10 CA          8.0205   25.6345   10.4415 C.3       3 GLC5        0.0000 
     11 CA          8.7620   25.3260    8.7470 C.3       9 GLL5        0.0000 
     12 CA          7.2790   25.9430   12.1360 C.3       6 GLP5        0.0000 
     13 CA          8.7735   23.3800    9.1180 C.3       3 GLC5        0.0000 
     14 CA          8.7850   21.4340    9.4890 C.3       6 GLP5        0.0000 
     15 CA         11.6575   25.7075    1.0075 C.3       3 GLC5        0.0000 
     16 CA         11.4490   24.3550    2.6010 C.3       9 GLL5        0.0000 
     17 CA         11.8660   27.0600   -0.5860 C.3       6 GLP5        0.0000 
     18 CA         13.2810   26.9280    3.2965 C.3       3 GLC5        0.0000 
     19 CA         12.7650   25.2340    4.5140 C.3       9 GLL5        0.0000 
     20 CA         13.7970   28.6220    2.0790 C.3       6 GLP5        0.0000 
     21 CA         12.4195   27.3470    4.9425 C.3       3 GLC5        0.0000 
     22 CA         12.0740   29.4600    5.3710 C.3       6 GLP5        0.0000 
     23 CA         15.8205   24.3710    8.9805 C.3       3 GLC5        0.0000 
     24 CA         15.3830   22.6640    7.9670 C.3       9 GLL5        0.0000 
     25 CA         16.2580   26.0780    9.9940 C.3       6 GLP5        0.0000 
     26 CA         14.5125   19.4650    8.4855 C.3       3 GLC5        0.0000 
     27 CA         16.1590   20.7040    9.2950 C.3       9 GLL5        0.0000 
     28 CA         12.8660   18.2260    7.6760 C.3       6 GLP5        0.0000 
     29 CA         14.5330   18.8325    6.3035 C.3       3 GLC5        0.0000 
     30 CA         16.2000   19.4390    4.9310 C.3       9 GLL5        0.0000 
     31 CA         16.7630   15.7710    3.9505 C.3       3 GLC5        0.0000 
     32 CA         17.6230   17.7050    4.2180 C.3       9 GLL5        0.0000 
     33 CA         15.9030   13.8370    3.6830 C.3       6 GLP5        0.0000 
     34 CA          8.6075   29.7245    9.2105 C.3       3 GLC5        0.0000 
     35 CA          8.9790   27.8040    8.3960 C.3       9 GLL5        0.0000 
     36 CA          8.2360   31.6450   10.0250 C.3       6 GLP5        0.0000 
     37 CA          9.7075   27.9590   10.4100 C.3       3 GLC5        0.0000 
     38 CA         10.4360   28.1140   12.4240 C.3       6 GLP5        0.0000 
     39 CA         10.7335   27.2785   10.6150 C.3       3 GLC5        0.0000 
     40 CA         11.0310   26.4430    8.8060 C.3       9 GLL5        0.0000 
     41 N          15.5440   25.4860    3.2135 N.am      2 SEC2        0.0000 
     42 N          15.1130   24.8010    4.2330 N.am      8 SEL2        0.0000 
     43 N          15.9750   26.1710    2.1940 N.am      5 SEP2        0.0000 
     44 O          15.2565   25.8795    5.2580 O.2       1 ALC1        0.0000 
     45 O          15.1130   24.8010    4.2330 O.2       7 ALL1        0.0000 
     46 O          15.4000   26.9580    6.2830 O.2       4 ALP1        0.0000 
     47 O          17.2405   22.1735    5.1985 O.2       1 ALC1        0.0000 
     48 O          16.1330   20.8760    5.2780 O.2       7 ALL1        0.0000 
     49 O          18.3480   23.4710    5.1190 O.2       4 ALP1        0.0000 
     50 CA         18.1730   17.4730    1.3725 C.3       3 GLC5        0.0000 
     51 CA         16.8140   18.1110    3.0320 C.3       9 GLL5        0.0000 
     52 CA         19.5320   16.8350   -0.2870 C.3       6 GLP5        0.0000 
     53 CA         15.7055   16.4315    2.3795 C.3       3 GLC5        0.0000 
     54 CA         14.5970   14.7520    1.7270 C.3       6 GLP5        0.0000 
     55 CA         16.4620   21.3175    1.9905 C.3       3 GLC5        0.0000 
     56 CA         15.4290   20.1310    2.6060 C.3       9 GLL5        0.0000 
     57 CA         17.4950   22.5040    1.3750 C.3       6 GLP5        0.0000 
     58 CA         13.8680   20.8610    1.2680 C.3       3 GLC5        0.0000 
     59 CA         12.3070   21.5910   -0.0700 C.3       6 GLP5        0.0000 
     60 CA         11.5702   22.7815    1.1505 C.3       3 GLC5        0.0000 
     61 CA         10.2180   23.5890    2.1410 C.3       9 GLL5        0.0000 
     62 CA         19.1175   23.4810    8.4008 C.3       3 GLC5        0.0000 
     63 CA         17.8060   21.9690    8.0560 C.3       9 GLL5        0.0000 
     64 CA         19.9200   25.3780    8.4600 C.3       6 GLP5        0.0000 
     65 CA         15.9010   20.0835   11.3553 C.3       3 GLC5        0.0000 
     66 CA         17.1650   19.9220    9.8640 C.3       9 GLL5        0.0000 
     67 CA         15.1400   19.8540   13.1310 C.3       6 GLP5        0.0000 
     68 CA         13.4273   19.2675    3.2902 C.3       3 GLC5        0.0000 
     69 CA         11.3090   18.9830    3.5050 C.3       6 GLP5        0.0000 
     70 CA         11.4569   27.9884    7.6128 C.3       3 GLC5        0.0000 
     71 CA         12.7430   29.1950    6.6890 C.3       6 GLP5        0.0000 
     72 CA          5.6799   23.4113    1.6705 C.3       3 GLC5        0.0000 
     73 CA          6.8090   25.2110    2.7320 C.3       9 GLL5        0.0000 
     74 CA          6.1470   21.6950    0.7220 C.3       6 GLP5        0.0000 
     75 CA         18.1857   21.2782   10.8193 C.3       3 GLC5        0.0000 
     76 CA         18.8360   21.9570   12.3770 C.3       6 GLP5        0.0000 
@<TRIPOS>BOND
@<TRIPOS>SUBSTRUCTURE
     1 ALC1        7 GROUP        1 X    ALC  0     ROOT ALC X 1
     2 SEC2        4 GROUP        1 X    SEC  0     **** SEC X 2
     3 GLC5        1 GROUP        1 X    GLC  0     **** GLC X 6
     4 ALP1        9 GROUP        1 Y    ALP  0     ROOT ALP Y 8
     5 SEP2        6 GROUP        1 Y    SEP  0     **** SEP Y 9
     6 GLP5        3 GROUP        1 Y    GLP  0     **** GLP Y 13
     7 ALL1        8 GROUP        1 Z    ALL  0     ROOT ALL Z 15
     8 SEL2        5 GROUP        1 Z    SEL  0     **** SEL Z 16
     9 GLL5        2 GROUP        1 Z    GLL  0     **** GLL Z 20
@<TRIPOS>SET

