#    Name: 2bpw_1IN_1_ligand
#    Modification time : Mon Mar 24 21:24:50 2014

@<TRIPOS>MOLECULE
2bpw_1IN_1_ligand
   97   100     1     0     0
SMALL
NO_CHARGES


@<TRIPOS>ATOM
      1 C1          9.0940   24.2220    4.2110 C.3       1 1IN902      0.0000 
      2 C2         10.3180   25.0550    4.6380 C.3       1 1IN902      0.0000 
      3 C3         10.3730   25.1310    6.1650 C.2       1 1IN902      0.0000 
      4 O4         18.5560   19.8590    4.7550 O.3       1 1IN902      0.0000 
      5 O5          7.9310   24.6860    0.7920 O.2       1 1IN902      0.0000 
      6 C7          8.7620   25.3260    8.7470 C.3       1 1IN902      0.0000 
      7 C8         11.4490   24.3550    2.6010 C.3       1 1IN902      0.0000 
      8 C9         10.2180   23.5890    2.1410 C.3       1 1IN902      0.0000 
      9 C10        12.7650   25.2340    4.5140 C.3       1 1IN902      0.0000 
     10 C11        13.9010   24.2110    4.6820 C.3       1 1IN902      0.0000 
     11 C12        14.1110   23.7960    6.1460 C.3       1 1IN902      0.0000 
     12 C13        15.2510   22.8110    6.4510 C.3       1 1IN902      0.0000 
     13 C14        15.3830   22.6640    7.9670 C.3       1 1IN902      0.0000 
     14 C15        16.4790   21.7420    8.4210 C.ar      1 1IN902      0.0000 
     15 C16        17.8060   21.9690    8.0560 C.ar      1 1IN902      0.0000 
     16 C19        17.1650   19.9220    9.8640 C.ar      1 1IN902      0.0000 
     17 C20        16.1590   20.7040    9.2950 C.ar      1 1IN902      0.0000 
     18 C21        15.0160   21.4530    5.7800 C.2       1 1IN902      0.0000 
     19 C22        16.2000   19.4390    4.9310 C.3       1 1IN902      0.0000 
     20 C24        17.6230   17.7050    4.2180 C.3       1 1IN902      0.0000 
     21 C27         5.4980   25.1750    2.0720 C.3       1 1IN902      0.0000 
     22 C30        15.6620   18.9730    3.5450 C.3       1 1IN902      0.0000 
     23 C31         7.9880   24.6750    2.0210 C.2       1 1IN902      0.0000 
     24 C32         3.0620   24.8570    2.1850 C.ar      1 1IN902      0.0000 
     25 C33         1.8680   24.8220    2.9110 C.ar      1 1IN902      0.0000 
     26 C34         1.9540   24.9980    4.2960 C.ar      1 1IN902      0.0000 
     27 C35         4.2710   25.2160    4.2190 C.ar      1 1IN902      0.0000 
     28 N1          9.0410   24.1990    2.7430 N.am      1 1IN902      0.0000 
     29 O1         10.9500   24.2430    6.8020 O.2       1 1IN902      0.0000 
     30 N2          9.7620   26.2240    6.7000 N.am      1 1IN902      0.0000 
     31 C4          9.6420   26.4370    8.1380 C.3       1 1IN902      0.0000 
     32 C5          8.9790   27.8040    8.3960 C.3       1 1IN902      0.0000 
     33 C6         11.0310   26.4430    8.8060 C.3       1 1IN902      0.0000 
     34 N3         11.5700   24.5040    4.0610 N.4       1 1IN902      0.0000 
     35 O2         15.1130   24.8010    4.2330 O.3       1 1IN902      0.0000 
     36 C17        18.8240   21.1990    8.6270 C.ar      1 1IN902      0.0000 
     37 C18        18.5030   20.1880    9.5460 C.ar      1 1IN902      0.0000 
     38 O3         13.8860   20.9770    5.7050 O.2       1 1IN902      0.0000 
     39 N4         16.1330   20.8760    5.2780 N.am      1 1IN902      0.0000 
     40 C23        17.6170   18.8820    5.1970 C.3       1 1IN902      0.0000 
     41 C25        16.8140   18.1110    3.0320 C.3       1 1IN902      0.0000 
     42 C29        15.4290   20.1310    2.6060 C.3       1 1IN902      0.0000 
     43 C26         6.8090   25.2110    2.7320 C.3       1 1IN902      0.0000 
     44 C28         4.2720   25.0620    2.8360 C.ar      1 1IN902      0.0000 
     45 N5          3.1320   25.1810    4.8900 N.ar      1 1IN902      0.0000 
     46 H           8.2068   24.6850    4.6269 H         1 1IN902      0.0000 
     47 H           9.2069   23.2222    4.6137 H         1 1IN902      0.0000 
     48 H          10.1600   26.0711    4.2625 H         1 1IN902      0.0000 
     49 H          11.4338   25.3562    2.1164 H         1 1IN902      0.0000 
     50 H          12.3477   23.8401    2.1954 H         1 1IN902      0.0000 
     51 H          10.3226   22.5504    2.4492 H         1 1IN902      0.0000 
     52 H          10.1702   23.6328    1.0545 H         1 1IN902      0.0000 
     53 H          13.0725   25.9686    3.7828 H         1 1IN902      0.0000 
     54 H          12.5910   25.7107    5.4686 H         1 1IN902      0.0000 
     55 H          13.6638   23.3343    4.1106 H         1 1IN902      0.0000 
     56 H          13.1568   23.3596    6.5293 H         1 1IN902      0.0000 
     57 H          14.2709   24.7189    6.7548 H         1 1IN902      0.0000 
     58 H          16.1725   23.2354    6.0701 H         1 1IN902      0.0000 
     59 H          14.4122   22.3086    8.3695 H         1 1IN902      0.0000 
     60 H          15.5446   23.6712    8.4031 H         1 1IN902      0.0000 
     61 H          18.0355   22.6967    7.3724 H         1 1IN902      0.0000 
     62 H          16.9307   19.1633   10.5057 H         1 1IN902      0.0000 
     63 H          15.1726   20.5124    9.5228 H         1 1IN902      0.0000 
     64 H          15.5510   18.8806    5.7011 H         1 1IN902      0.0000 
     65 H          17.1829   16.8472    4.6997 H         1 1IN902      0.0000 
     66 H          18.6399   17.4964    3.9281 H         1 1IN902      0.0000 
     67 H           5.5206   24.3324    1.2881 H         1 1IN902      0.0000 
     68 H           5.4211   26.0987    1.3896 H         1 1IN902      0.0000 
     69 H          14.8202   18.3808    3.6863 H         1 1IN902      0.0000 
     70 H           3.0406   24.7299    1.1638 H         1 1IN902      0.0000 
     71 H           0.9819   24.6761    2.4560 H         1 1IN902      0.0000 
     72 H           1.0671   24.9810    4.8449 H         1 1IN902      0.0000 
     73 H           5.1845   25.3573    4.6974 H         1 1IN902      0.0000 
     74 H           9.3499   26.9624    6.0902 H         1 1IN902      0.0000 
     75 H          11.6541   23.4469    4.4824 H         1 1IN902      0.0000 
     76 H          19.8017   21.3705    8.3768 H         1 1IN902      0.0000 
     77 H          19.2524   19.6421    9.9861 H         1 1IN902      0.0000 
     78 H          17.0040   21.4180    5.1107 H         1 1IN902      0.0000 
     79 H          17.6894   18.5600    6.1488 H         1 1IN902      0.0000 
     80 H          16.4099   17.2433    2.5364 H         1 1IN902      0.0000 
     81 H          17.4115   18.6931    2.3495 H         1 1IN902      0.0000 
     82 H           6.7263   24.6833    3.7366 H         1 1IN902      0.0000 
     83 H           7.0333   26.2832    3.0395 H         1 1IN902      0.0000 
     84 H           9.1522   24.4179    8.5949 H         1 1IN902      0.0000 
     85 H           8.6544   25.4371    9.7350 H         1 1IN902      0.0000 
     86 H           7.8438   25.3205    8.3510 H         1 1IN902      0.0000 
     87 H           8.8695   27.9851    9.3733 H         1 1IN902      0.0000 
     88 H           9.5186   28.5559    8.0173 H         1 1IN902      0.0000 
     89 H           8.0695   27.8594    7.9839 H         1 1IN902      0.0000 
     90 H          11.5075   25.5729    8.6800 H         1 1IN902      0.0000 
     91 H          11.6210   27.1574    8.4297 H         1 1IN902      0.0000 
     92 H          10.9686   26.6031    9.7911 H         1 1IN902      0.0000 
     93 H          16.2706   20.6418    2.4302 H         1 1IN902      0.0000 
     94 H          15.0806   19.8261    1.7196 H         1 1IN902      0.0000 
     95 H          14.7637   20.7802    2.9748 H         1 1IN902      0.0000 
     96 H          19.4426   19.5326    5.0829 H         1 1IN902      0.0000 
     97 H          15.4509   25.3248    5.0149 H         1 1IN902      0.0000 
@<TRIPOS>BOND
     1    2    1 1    
     2   28    1 1    
     3   46    1 1    
     4   47    1 1    
     5    3    2 1    
     6   34    2 1    
     7   48    2 1    
     8   29    3 2    
     9   30    3 am   
    10   40    4 1    
    11   96    4 1    
    12   23    5 2    
    13   31    6 1    
    14   84    6 1    
    15   85    6 1    
    16   86    6 1    
    17    8    7 1    
    18   34    7 1    
    19   49    7 1    
    20   50    7 1    
    21   28    8 1    
    22   51    8 1    
    23   52    8 1    
    24   10    9 1    
    25   34    9 1    
    26   53    9 1    
    27   54    9 1    
    28   11   10 1    
    29   35   10 1    
    30   55   10 1    
    31   12   11 1    
    32   56   11 1    
    33   57   11 1    
    34   13   12 1    
    35   18   12 1    
    36   58   12 1    
    37   14   13 1    
    38   59   13 1    
    39   60   13 1    
    40   15   14 ar   
    41   17   14 ar   
    42   36   15 ar   
    43   61   15 1    
    44   17   16 ar   
    45   37   16 ar   
    46   62   16 1    
    47   63   17 1    
    48   38   18 2    
    49   39   18 am   
    50   22   19 1    
    51   39   19 1    
    52   40   19 1    
    53   64   19 1    
    54   40   20 1    
    55   41   20 1    
    56   65   20 1    
    57   66   20 1    
    58   43   21 1    
    59   44   21 1    
    60   67   21 1    
    61   68   21 1    
    62   41   22 1    
    63   42   22 1    
    64   69   22 1    
    65   28   23 am   
    66   43   23 1    
    67   25   24 ar   
    68   44   24 ar   
    69   70   24 1    
    70   26   25 ar   
    71   71   25 1    
    72   45   26 ar   
    73   72   26 1    
    74   44   27 ar   
    75   45   27 ar   
    76   73   27 1    
    77   31   30 1    
    78   74   30 1    
    79   32   31 1    
    80   33   31 1    
    81   87   32 1    
    82   88   32 1    
    83   89   32 1    
    84   90   33 1    
    85   91   33 1    
    86   92   33 1    
    87   75   34 1    
    88   97   35 1    
    89   37   36 ar   
    90   76   36 1    
    91   77   37 1    
    92   78   39 1    
    93   79   40 1    
    94   80   41 1    
    95   81   41 1    
    96   93   42 1    
    97   94   42 1    
    98   95   42 1    
    99   82   43 1    
   100   83   43 1    
@<TRIPOS>SUBSTRUCTURE
     1 1IN902      1 GROUP   
@<TRIPOS>SET

