#    Name: 3qbf_JHG_1_INTS_M
#    Modification time : Mon Apr  7 19:20:48 2014

@<TRIPOS>MOLECULE
3qbf_JHG_1_INTS_M
   92     0    12     0     0
SMALL
NO_CHARGES


@<TRIPOS>ATOM
      1 OD1        15.2715  -17.7465   -6.9530 O.co2     3 ASC3        0.0000 
      2 OD1        16.7070  -18.5090   -7.1200 O.co2    11 ASL3        0.0000 
      3 OD1        13.8360  -16.9840   -6.7860 O.co2     7 ASP3        0.0000 
      4 CA         16.6820  -15.9455   -9.3175 C.3       4 GLC5        0.0000 
      5 CA         18.5220  -16.9210   -8.7470 C.3      12 GLL5        0.0000 
      6 CA         14.8420  -14.9700   -9.8880 C.3       8 GLP5        0.0000 
      7 CA         19.5540  -14.2255   -6.7280 C.3       4 GLC5        0.0000 
      8 CA         21.4790  -14.2660   -7.7910 C.3      12 GLL5        0.0000 
      9 CA         17.6290  -14.1850   -5.6650 C.3       8 GLP5        0.0000 
     10 CA         21.6660  -12.9940   -6.7055 C.3       4 GLC5        0.0000 
     11 CA         21.8530  -11.7220   -5.6200 C.3       8 GLP5        0.0000 
     12 CA         20.4565  -15.1610  -11.0870 C.3       4 GLC5        0.0000 
     13 CA         21.9950  -14.9140   -9.7680 C.3      12 GLL5        0.0000 
     14 CA         18.9180  -15.4080  -12.4060 C.3       8 GLP5        0.0000 
     15 CA         22.3875  -14.1740  -11.4180 C.3       4 GLC5        0.0000 
     16 CA         22.7800  -13.4340  -13.0680 C.3       8 GLP5        0.0000 
     17 CA         23.5350  -16.7000   -9.5005 C.3       4 GLC5        0.0000 
     18 CA         23.0300  -15.7570   -8.0710 C.3      12 GLL5        0.0000 
     19 CA         24.0400  -17.6430  -10.9300 C.3       8 GLP5        0.0000 
     20 CA         22.5490  -17.6090   -9.3710 C.3       4 GLC5        0.0000 
     21 CA         21.0580  -17.5750   -7.8120 C.3      12 GLL5        0.0000 
     22 CA         20.3305  -20.4130   -8.2830 C.3       4 GLC5        0.0000 
     23 CA         20.0280  -18.5040   -7.7130 C.3      12 GLL5        0.0000 
     24 CA         20.6330  -22.3220   -8.8530 C.3       8 GLP5        0.0000 
     25 CA         16.0770  -16.4320   -3.6165 C.3       4 GLC5        0.0000 
     26 CA         16.1690  -17.7540   -4.8740 C.3      12 GLL5        0.0000 
     27 CA         15.9850  -15.1100   -2.3590 C.3       8 GLP5        0.0000 
     28 CA         16.8990  -15.9695   -5.2695 C.3       4 GLC5        0.0000 
     29 CA         13.1045  -18.9475   -4.7200 C.3       4 GLC5        0.0000 
     30 CA         15.1080  -19.9160   -4.6850 C.3      12 GLL5        0.0000 
     31 CA         11.1010  -17.9790   -4.7550 C.3       8 GLP5        0.0000 
     32 CA         13.2120  -20.5200   -3.6410 C.3       4 GLC5        0.0000 
     33 CA         11.3160  -21.1240   -2.5970 C.3       8 GLP5        0.0000 
     34 CA         17.6035  -20.2180   -1.2175 C.3       4 GLC5        0.0000 
     35 CA         17.8470  -20.2410   -3.2770 C.3      12 GLL5        0.0000 
     36 CA         17.3600  -20.1950    0.8420 C.3       8 GLP5        0.0000 
     37 CA         20.6710  -20.9185   -2.5180 C.3       4 GLC5        0.0000 
     38 CA         19.2310  -19.6860   -3.5800 C.3      12 GLL5        0.0000 
     39 CA         22.1110  -22.1510   -1.4560 C.3       8 GLP5        0.0000 
     40 CA         18.4305  -19.3580   -0.9010 C.3       4 GLC5        0.0000 
     41 CA         19.5010  -18.5210   -2.6440 C.3      12 GLL5        0.0000 
     42 CA         22.0670  -20.9020   -4.3130 C.3       4 GLC5        0.0000 
     43 CA         21.8960  -19.1000   -3.1760 C.3      12 GLL5        0.0000 
     44 CA         22.2380  -22.7040   -5.4500 C.3       8 GLP5        0.0000 
     45 N          19.7845  -23.6950   -4.4125 N.am      2 SEC2        0.0000 
     46 N          18.6950  -22.8140   -3.9930 N.am     10 SEL2        0.0000 
     47 N          20.8740  -24.5760   -4.8320 N.am      6 SEP2        0.0000 
     48 N          17.9545  -23.2145   -7.5655 N.am      2 SEC2        0.0000 
     49 N          17.7970  -22.5180   -6.2000 N.am     10 SEL2        0.0000 
     50 N          18.1120  -23.9110   -8.9310 N.am      6 SEP2        0.0000 
     51 CA         14.8590  -25.0495   -0.6740 C.3       4 GLC5        0.0000 
     52 CA         14.8670  -23.9540   -2.4700 C.3      12 GLL5        0.0000 
     53 CA         14.8510  -26.1450    1.1220 C.3       8 GLP5        0.0000 
     54 O          10.8635  -26.5655   -2.6850 O.2       1 ALC1        0.0000 
     55 O          11.9400  -25.8380   -3.5920 O.2       9 ALL1        0.0000 
     56 O           9.7870  -27.2930   -1.7780 O.2       5 ALP1        0.0000 
     57 N          10.8720  -24.4955   -1.0960 N.am      2 SEC2        0.0000 
     58 N          12.2530  -24.7140   -1.7030 N.am     10 SEL2        0.0000 
     59 N           9.4910  -24.2770   -0.4890 N.am      6 SEP2        0.0000 
     60 CA         18.8195  -20.3225   -8.9545 C.3       4 GLC5        0.0000 
     61 CA         17.6070  -19.1160   -8.0900 C.3      12 GLL5        0.0000 
     62 CA         19.4530  -22.0060   -9.7710 C.3       8 GLP5        0.0000 
     63 CA         18.9757  -15.9345  -10.6013 C.3       4 GLC5        0.0000 
     64 CA         17.9991  -15.5676   -7.8251 C.3       4 GLC5        0.0000 
     65 CA         19.5450  -16.0010   -8.8460 C.3      12 GLL5        0.0000 
     66 CA         16.9040  -14.3640   -6.9940 C.3       8 GLP5        0.0000 
     67 CA         21.0292  -16.8322  -10.4515 C.3       4 GLC5        0.0000 
     68 CA         21.8830  -17.4990  -12.2900 C.3       8 GLP5        0.0000 
     69 CA         23.2280  -15.6750  -10.2250 C.3       4 GLC5        0.0000 
     70 CA         24.5210  -16.2440  -11.3110 C.3       8 GLP5        0.0000 
     71 CA         21.5375  -13.4060   -9.6026 C.3       4 GLC5        0.0000 
     72 CA         21.2390  -11.9640  -10.2460 C.3       8 GLP5        0.0000 
     73 CA         21.7758  -20.4383   -2.1310 C.3       4 GLC5        0.0000 
     74 CA         20.9850  -18.3510   -2.4360 C.3      12 GLL5        0.0000 
     75 CA         20.9387  -18.5998   -0.1305 C.3       4 GLC5        0.0000 
     76 CA         20.6710  -19.3100    1.7050 C.3       8 GLP5        0.0000 
     77 CA         23.5075  -20.2177   -1.7748 C.3       4 GLC5        0.0000 
     78 CA         23.7040  -18.0140   -2.0120 C.3      12 GLL5        0.0000 
     79 CA         23.5320  -21.9640   -1.0630 C.3       8 GLP5        0.0000 
     80 CA         23.1555  -18.2218    0.3182 C.3       4 GLC5        0.0000 
     81 CA         23.0640  -18.8050    2.2840 C.3       8 GLP5        0.0000 
     82 CA         19.4642  -17.1520   -0.8255 C.3       4 GLC5        0.0000 
     83 CA         21.4280  -17.4280   -1.4960 C.3      12 GLL5        0.0000 
     84 CA         18.0930  -16.3720    0.3670 C.3       8 GLP5        0.0000 
     85 CA         16.6600  -24.8073   -2.5080 C.3       4 GLC5        0.0000 
     86 CA         16.0340  -23.3420   -2.9300 C.3      12 GLL5        0.0000 
     87 CA         17.8210  -26.0300   -1.9770 C.3       8 GLP5        0.0000 
     88 CA         13.3257  -22.6630   -2.1590 C.3       4 GLC5        0.0000 
     89 CA         12.2820  -21.1880   -1.4000 C.3       8 GLP5        0.0000 
     90 CA         15.9005  -24.6135   -6.1959 C.3       4 GLC5        0.0000 
     91 CA         14.0520  -24.0650   -4.7240 C.3      12 GLL5        0.0000 
     92 CA         16.9110  -25.5580   -7.6630 C.3       8 GLP5        0.0000 
@<TRIPOS>BOND
@<TRIPOS>SUBSTRUCTURE
     1 ALC1       54 GROUP        1 X    ALC  0     ROOT ALC X 1
     2 SEC2       45 GROUP        1 X    SEC  0     **** SEC X 2
     3 ASC3        1 GROUP        1 X    ASC  0     **** ASC X 3
     4 GLC5        4 GROUP        1 X    GLC  0     **** GLC X 6
     5 ALP1       56 GROUP        1 Y    ALP  0     ROOT ALP Y 8
     6 SEP2       47 GROUP        1 Y    SEP  0     **** SEP Y 9
     7 ASP3        3 GROUP        1 Y    ASP  0     **** ASP Y 10
     8 GLP5        6 GROUP        1 Y    GLP  0     **** GLP Y 13
     9 ALL1       55 GROUP        1 Z    ALL  0     ROOT ALL Z 15
    10 SEL2       46 GROUP        1 Z    SEL  0     **** SEL Z 16
    11 ASL3        2 GROUP        1 Z    ASL  0     **** ASL Z 17
    12 GLL5        5 GROUP        1 Z    GLL  0     **** GLL Z 20
@<TRIPOS>SET

