#    Name: 3qbf_JHG_1_ligand
#    Modification time : Mon Apr  7 19:20:48 2014

@<TRIPOS>MOLECULE
3qbf_JHG_1_ligand
   68    71     1     0     0
SMALL
NO_CHARGES


@<TRIPOS>ATOM
      1 C1         16.9770  -18.7270   -5.7110 C.3       1 JHG100      0.0000 
      2 C2         16.4580  -20.1190   -5.3900 C.3       1 JHG100      0.0000 
      3 N3         16.7070  -18.5090   -7.1200 N.4       1 JHG100      0.0000 
      4 C4         17.6070  -19.1160   -8.0900 C.3       1 JHG100      0.0000 
      5 C5         18.7650  -18.1620   -8.1860 C.ar      1 JHG100      0.0000 
      6 C6         18.5220  -16.9210   -8.7470 C.ar      1 JHG100      0.0000 
      7 C7         19.5450  -16.0010   -8.8460 C.ar      1 JHG100      0.0000 
      8 C8         20.8060  -16.3300   -8.3800 C.ar      1 JHG100      0.0000 
      9 C9         21.8750  -15.2980   -8.5100 C.3       1 JHG100      0.0000 
     10 F10        21.4790  -14.2660   -7.7910 F         1 JHG100      0.0000 
     11 F11        21.9950  -14.9140   -9.7680 F         1 JHG100      0.0000 
     12 F12        23.0300  -15.7570   -8.0710 F         1 JHG100      0.0000 
     13 C13        21.0580  -17.5750   -7.8120 C.ar      1 JHG100      0.0000 
     14 C14        20.0280  -18.5040   -7.7130 C.ar      1 JHG100      0.0000 
     15 C15        16.1690  -17.7540   -4.8740 C.3       1 JHG100      0.0000 
     16 N16        14.9510  -18.4700   -4.5720 N.3       1 JHG100      0.0000 
     17 C17        15.1080  -19.9160   -4.6850 C.3       1 JHG100      0.0000 
     18 N18        17.3390  -20.8790   -4.4870 N.pl3     1 JHG100      0.0000 
     19 C19        17.8470  -20.2410   -3.2770 C.3       1 JHG100      0.0000 
     20 C20        19.2310  -19.6860   -3.5800 C.3       1 JHG100      0.0000 
     21 C21        19.5010  -18.5210   -2.6440 C.3       1 JHG100      0.0000 
     22 C22        20.9850  -18.3510   -2.4360 C.ar      1 JHG100      0.0000 
     23 C23        21.8960  -19.1000   -3.1760 C.ar      1 JHG100      0.0000 
     24 C24        23.2620  -18.9290   -2.9610 C.ar      1 JHG100      0.0000 
     25 C25        23.7040  -18.0140   -2.0120 C.ar      1 JHG100      0.0000 
     26 C26        22.7900  -17.2630   -1.2830 C.ar      1 JHG100      0.0000 
     27 C27        21.4280  -17.4280   -1.4960 C.ar      1 JHG100      0.0000 
     28 S28        17.5890  -22.3580   -4.7860 S.o2      1 JHG100      0.0000 
     29 O29        18.6950  -22.8140   -3.9930 O.2       1 JHG100      0.0000 
     30 O30        17.7970  -22.5180   -6.2000 O.2       1 JHG100      0.0000 
     31 C31        16.2280  -23.0880   -4.2860 C.ar      1 JHG100      0.0000 
     32 C32        16.0340  -23.3420   -2.9300 C.ar      1 JHG100      0.0000 
     33 C33        14.8670  -23.9540   -2.4700 C.ar      1 JHG100      0.0000 
     34 C34        13.8720  -24.3220   -3.3660 C.ar      1 JHG100      0.0000 
     35 C35        12.6190  -24.9780   -2.8390 C.2       1 JHG100      0.0000 
     36 N36        11.9400  -25.8380   -3.5920 N.am      1 JHG100      0.0000 
     37 O37        12.2530  -24.7140   -1.7030 O.2       1 JHG100      0.0000 
     38 C38        14.0520  -24.0650   -4.7240 C.ar      1 JHG100      0.0000 
     39 C39        15.2280  -23.4580   -5.1810 C.ar      1 JHG100      0.0000 
     40 H          17.9889  -18.6666   -5.4763 H         1 JHG100      0.0000 
     41 H          16.2715  -20.6472   -6.2968 H         1 JHG100      0.0000 
     42 H          17.1386  -19.2029   -9.0537 H         1 JHG100      0.0000 
     43 H          17.9620  -20.0709   -7.7466 H         1 JHG100      0.0000 
     44 H          17.5793  -16.6864   -9.0893 H         1 JHG100      0.0000 
     45 H          19.3741  -15.0769   -9.2627 H         1 JHG100      0.0000 
     46 H          21.9959  -17.8053   -7.4693 H         1 JHG100      0.0000 
     47 H          20.1955  -19.4223   -7.2999 H         1 JHG100      0.0000 
     48 H          15.9779  -16.8731   -5.4567 H         1 JHG100      0.0000 
     49 H          16.7232  -17.5202   -3.9850 H         1 JHG100      0.0000 
     50 H          15.1548  -20.3847   -3.7211 H         1 JHG100      0.0000 
     51 H          14.3388  -20.3505   -5.2937 H         1 JHG100      0.0000 
     52 H          17.9316  -20.9562   -2.4639 H         1 JHG100      0.0000 
     53 H          17.2053  -19.4207   -2.9686 H         1 JHG100      0.0000 
     54 H          19.2656  -19.3433   -4.6048 H         1 JHG100      0.0000 
     55 H          19.9714  -20.4576   -3.4215 H         1 JHG100      0.0000 
     56 H          19.0162  -18.7101   -1.6867 H         1 JHG100      0.0000 
     57 H          19.0849  -17.6108   -3.0748 H         1 JHG100      0.0000 
     58 H          21.5646  -19.7726   -3.8741 H         1 JHG100      0.0000 
     59 H          23.9397  -19.4781   -3.5028 H         1 JHG100      0.0000 
     60 H          24.7143  -17.8925   -1.8488 H         1 JHG100      0.0000 
     61 H          23.1233  -16.5843   -0.5850 H         1 JHG100      0.0000 
     62 H          20.7507  -16.8711   -0.9620 H         1 JHG100      0.0000 
     63 H          16.7673  -23.0726   -2.2510 H         1 JHG100      0.0000 
     64 H          14.7466  -24.1316   -1.4636 H         1 JHG100      0.0000 
     65 H          11.1310  -26.2482   -3.1710 H         1 JHG100      0.0000 
     66 H          12.2996  -25.9971   -4.5115 H         1 JHG100      0.0000 
     67 H          13.3174  -24.3220   -5.3974 H         1 JHG100      0.0000 
     68 H          15.3510  -23.2851   -6.1894 H         1 JHG100      0.0000 
@<TRIPOS>BOND
     1    2    1 1    
     2    3    1 1    
     3   15    1 1    
     4   40    1 1    
     5   17    2 1    
     6   18    2 1    
     7   41    2 1    
     8    4    3 1    
     9    5    4 1    
    10   42    4 1    
    11   43    4 1    
    12    6    5 ar   
    13   14    5 ar   
    14    7    6 ar   
    15   44    6 1    
    16    8    7 ar   
    17   45    7 1    
    18    9    8 1    
    19   13    8 ar   
    20   10    9 1    
    21   11    9 1    
    22   12    9 1    
    23   14   13 ar   
    24   46   13 1    
    25   47   14 1    
    26   16   15 1    
    27   48   15 1    
    28   49   15 1    
    29   17   16 1    
    30   50   17 1    
    31   51   17 1    
    32   19   18 1    
    33   28   18 1    
    34   20   19 1    
    35   52   19 1    
    36   53   19 1    
    37   21   20 1    
    38   54   20 1    
    39   55   20 1    
    40   22   21 1    
    41   56   21 1    
    42   57   21 1    
    43   23   22 ar   
    44   27   22 ar   
    45   24   23 ar   
    46   58   23 1    
    47   25   24 ar   
    48   59   24 1    
    49   26   25 ar   
    50   60   25 1    
    51   27   26 ar   
    52   61   26 1    
    53   62   27 1    
    54   29   28 2    
    55   30   28 2    
    56   31   28 1    
    57   32   31 ar   
    58   39   31 ar   
    59   33   32 ar   
    60   63   32 1    
    61   34   33 ar   
    62   64   33 1    
    63   35   34 1    
    64   38   34 ar   
    65   36   35 am   
    66   37   35 2    
    67   65   36 1    
    68   66   36 1    
    69   39   38 ar   
    70   67   38 1    
    71   68   39 1    
@<TRIPOS>SUBSTRUCTURE
     1 JHG100      1 GROUP   
@<TRIPOS>SET

