#    Name: 4dfn_0K1_1_INTS_M
#    Modification time : Tue Mar 25 09:40:14 2014

@<TRIPOS>MOLECULE
4dfn_0K1_1_INTS_M
   76     0     9     0     0
SMALL
NO_CHARGES


@<TRIPOS>ATOM
      1 CA          0.9745   -4.1160   15.2920 C.3       3 GLC5        0.0000 
      2 CA          0.0500   -2.3280   14.8850 C.3       9 GLL5        0.0000 
      3 CA          1.8990   -5.9040   15.6990 C.3       6 GLP5        0.0000 
      4 CA          4.1635   -0.5770   17.4425 C.3       3 GLC5        0.0000 
      5 CA          4.8310   -0.2720   15.3800 C.3       9 GLL5        0.0000 
      6 CA          3.4960   -0.8820   19.5050 C.3       6 GLP5        0.0000 
      7 CA          3.9000   -0.2555   12.4025 C.3       3 GLC5        0.0000 
      8 CA          4.1200    0.5070   14.4820 C.3       9 GLL5        0.0000 
      9 CA          3.6800   -1.0180   10.3230 C.3       6 GLP5        0.0000 
     10 CA          5.9400    0.7170   13.2705 C.3       3 GLC5        0.0000 
     11 CA          7.7600    0.9270   12.0590 C.3       6 GLP5        0.0000 
     12 CA          3.2365   -3.4840   15.6495 C.3       3 GLC5        0.0000 
     13 CA          2.8950   -1.6720   15.6890 C.3       9 GLL5        0.0000 
     14 CA          3.5780   -5.2960   15.6100 C.3       6 GLP5        0.0000 
     15 CA          3.2260   -2.0340   17.5740 C.3       3 GLC5        0.0000 
     16 CA          3.5570   -2.3960   19.4590 C.3       6 GLP5        0.0000 
     17 O           6.9430   -1.0090   16.3085 O.2       1 ALC1        0.0000 
     18 O           6.1690    0.0200   15.6840 O.2       7 ALL1        0.0000 
     19 O           7.7170   -2.0380   16.9330 O.2       4 ALP1        0.0000 
     20 CA         -2.4540    1.1745   14.4320 C.3       3 GLC5        0.0000 
     21 CA         -2.1220    0.5950   12.6830 C.3       9 GLL5        0.0000 
     22 CA         -2.7860    1.7540   16.1810 C.3       6 GLP5        0.0000 
     23 CA         -2.2165    2.3815   13.7720 C.3       3 GLC5        0.0000 
     24 CA         -1.6260    1.6600   11.9790 C.3       9 GLL5        0.0000 
     25 CA         -2.8070    3.1030   15.5650 C.3       6 GLP5        0.0000 
     26 CA          4.6995    5.0960   14.9070 C.3       3 GLC5        0.0000 
     27 CA          3.6870    4.8710   13.0200 C.3       9 GLL5        0.0000 
     28 CA          5.7120    5.3210   16.7940 C.3       6 GLP5        0.0000 
     29 CA          1.2440    5.4065    9.2525 C.3       3 GLC5        0.0000 
     30 CA          1.6360    6.0570   11.2630 C.3       9 GLL5        0.0000 
     31 CA          0.8520    4.7560    7.2420 C.3       6 GLP5        0.0000 
     32 CA          3.1045    4.0575    8.4790 C.3       3 GLC5        0.0000 
     33 CA          3.6130    4.9690   10.0870 C.3       9 GLL5        0.0000 
     34 CA          2.5960    3.1460    6.8710 C.3       6 GLP5        0.0000 
     35 CA          5.2965    5.0680    8.8845 C.3       3 GLC5        0.0000 
     36 CA          6.9800    5.1670    7.6820 C.3       6 GLP5        0.0000 
     37 CA          1.7950    4.0660   15.2495 C.3       3 GLC5        0.0000 
     38 CA          2.1860    4.7650   13.3350 C.3       9 GLL5        0.0000 
     39 CA          1.4040    3.3670   17.1640 C.3       6 GLP5        0.0000 
     40 CA          4.5820    7.6005   13.0340 C.3       3 GLC5        0.0000 
     41 CA          3.9230    6.1780   12.2420 C.3       9 GLL5        0.0000 
     42 CA          5.2410    9.0230   13.8260 C.3       6 GLP5        0.0000 
     43 N           4.3625   -2.0995   17.2100 N.am      2 SEC2        0.0000 
     44 N           4.2150   -1.3560   15.9790 N.am      8 SEL2        0.0000 
     45 N           4.5100   -2.8430   18.4410 N.am      5 SEP2        0.0000 
     46 N          -4.8670    2.2760   12.0385 N.am      2 SEC2        0.0000 
     47 N          -3.7580    1.7910   11.7990 N.am      8 SEL2        0.0000 
     48 N          -5.9760    2.7610   12.2780 N.am      5 SEP2        0.0000 
     49 CA         -2.4855    1.5315    9.6915 C.3       3 GLC5        0.0000 
     50 CA         -2.5610    3.5420   10.6510 C.3       9 GLL5        0.0000 
     51 CA         -2.4100   -0.4790    8.7320 C.3       6 GLP5        0.0000 
     52 CA          0.7558   -3.3288   13.5673 C.3       3 GLC5        0.0000 
     53 CA          0.7110   -1.1710   14.4680 C.3       9 GLL5        0.0000 
     54 CA          1.1310   -4.9080   12.4580 C.3       6 GLP5        0.0000 
     55 CA         -0.6300   -0.4965   15.9932 C.3       3 GLC5        0.0000 
     56 CA         -1.6070   -0.2960   17.8760 C.3       6 GLP5        0.0000 
     57 CA         -1.1122   -1.3640   16.3038 C.3       3 GLC5        0.0000 
     58 CA         -1.2850   -2.5360   14.5780 C.3       9 GLL5        0.0000 
     59 CA         -1.6432   -0.6530   15.7620 C.3       3 GLC5        0.0000 
     60 CA         -1.9960   -1.5910   13.8590 C.3       9 GLL5        0.0000 
     61 CA         -1.0846   -2.8290   12.5980 C.3       3 GLC5        0.0000 
     62 CA         -0.6870   -3.8850   11.0830 C.3       6 GLP5        0.0000 
     63 CA         -2.0645    0.3977   14.9540 C.3       3 GLC5        0.0000 
     64 CA          5.1692   -1.3493   14.1640 C.3       3 GLC5        0.0000 
     65 CA          5.8630   -2.8160   13.3970 C.3       6 GLP5        0.0000 
     66 CA          4.1013    1.2862   16.0030 C.3       3 GLC5        0.0000 
     67 CA          3.7270    2.4550   17.0750 C.3       6 GLP5        0.0000 
     68 CA          4.1943   -2.0507   14.3197 C.3       3 GLC5        0.0000 
     69 CA          2.1560   -0.8990   14.7960 C.3       9 GLL5        0.0000 
     70 CA          3.1262    0.5848   16.1587 C.3       3 GLC5        0.0000 
     71 CA         -2.1420    0.3243   10.5315 C.3       3 GLC5        0.0000 
     72 CA          1.9560    3.5433    9.1760 C.3       3 GLC5        0.0000 
     73 CA          1.8170    3.5830   11.1060 C.3       9 GLL5        0.0000 
     74 CA          1.3390    3.4670    7.3750 C.3       6 GLP5        0.0000 
     75 CA          2.3740    2.1212   10.1000 C.3       3 GLC5        0.0000 
     76 CA          2.1750    0.6230    9.2230 C.3       6 GLP5        0.0000 
@<TRIPOS>BOND
@<TRIPOS>SUBSTRUCTURE
     1 ALC1       17 GROUP        1 X    ALC  0     ROOT ALC X 1
     2 SEC2       43 GROUP        1 X    SEC  0     **** SEC X 2
     3 GLC5        1 GROUP        1 X    GLC  0     **** GLC X 6
     4 ALP1       19 GROUP        1 Y    ALP  0     ROOT ALP Y 8
     5 SEP2       45 GROUP        1 Y    SEP  0     **** SEP Y 9
     6 GLP5        3 GROUP        1 Y    GLP  0     **** GLP Y 13
     7 ALL1       18 GROUP        1 Z    ALL  0     ROOT ALL Z 15
     8 SEL2       44 GROUP        1 Z    SEL  0     **** SEL Z 16
     9 GLL5        2 GROUP        1 Z    GLL  0     **** GLL Z 20
@<TRIPOS>SET

