#    Name: 4dfn_0K1_1_ligand
#    Modification time : Tue Mar 25 09:40:14 2014

@<TRIPOS>MOLECULE
4dfn_0K1_1_ligand
   61    66     1     0     0
SMALL
NO_CHARGES


@<TRIPOS>ATOM
      1 C1          0.7110   -1.1710   14.4680 C.ar      1 0K1701      0.0000 
      2 C2         -0.0170   -0.2230   13.7530 C.ar      1 0K1701      0.0000 
      3 C3          0.0500   -2.3280   14.8850 C.ar      1 0K1701      0.0000 
      4 C4         -1.3630   -0.4290   13.4370 C.ar      1 0K1701      0.0000 
      5 C5         -1.2850   -2.5360   14.5780 C.ar      1 0K1701      0.0000 
      6 C6         -1.9960   -1.5910   13.8590 C.ar      1 0K1701      0.0000 
      7 C7          4.8310   -0.2720   15.3800 C.ar      1 0K1701      0.0000 
      8 C8          4.1200    0.5070   14.4820 C.ar      1 0K1701      0.0000 
      9 N10         2.7940    0.1920   14.2170 N.ar      1 0K1701      0.0000 
     10 C11         2.8950   -1.6720   15.6890 C.ar      1 0K1701      0.0000 
     11 C12         2.1560   -0.8990   14.7960 C.ar      1 0K1701      0.0000 
     12 N13         6.1690    0.0200   15.6840 N.pl3     1 0K1701      0.0000 
     13 C17        -2.1220    0.5950   12.6830 C.2       1 0K1701      0.0000 
     14 C18        -1.6260    1.6600   11.9790 C.2       1 0K1701      0.0000 
     15 C19        -3.4860    0.7130   12.5600 C.2       1 0K1701      0.0000 
     16 C23         4.1350    3.6590   12.1810 C.3       1 0K1701      0.0000 
     17 C24         3.6870    4.8710   13.0200 C.3       1 0K1701      0.0000 
     18 C27         3.3290    3.6560   10.8480 C.3       1 0K1701      0.0000 
     19 C30         1.3770    4.7410   12.0270 C.3       1 0K1701      0.0000 
     20 C31         3.1420    6.1690   10.9290 C.3       1 0K1701      0.0000 
     21 C32         1.6360    6.0570   11.2630 C.3       1 0K1701      0.0000 
     22 O15         5.8460    2.0550   14.0550 O.2       1 0K1701      0.0000 
     23 C14         4.7170    1.7030   13.8300 C.2       1 0K1701      0.0000 
     24 N16         3.9080    2.4270   12.9790 N.am      1 0K1701      0.0000 
     25 C29         3.6130    4.9690   10.0870 C.3       1 0K1701      0.0000 
     26 O33        -0.0010    4.5960   12.3520 O.3       1 0K1701      0.0000 
     27 C28         1.8170    3.5830   11.1060 C.3       1 0K1701      0.0000 
     28 C25         2.1860    4.7650   13.3350 C.3       1 0K1701      0.0000 
     29 C26         3.9230    6.1780   12.2420 C.3       1 0K1701      0.0000 
     30 N9          4.2150   -1.3560   15.9790 N.ar      1 0K1701      0.0000 
     31 N21        -3.7580    1.7910   11.7990 N.2       1 0K1701      0.0000 
     32 N20        -2.6720    2.3350   11.4750 N.pl3     1 0K1701      0.0000 
     33 C22        -2.5610    3.5420   10.6510 C.3       1 0K1701      0.0000 
     34 H           0.4458    0.6520   13.4486 H         1 0K1701      0.0000 
     35 H           0.5688   -3.0377   15.4311 H         1 0K1701      0.0000 
     36 H          -1.7529   -3.4038   14.8886 H         1 0K1701      0.0000 
     37 H          -2.9871   -1.7462   13.6375 H         1 0K1701      0.0000 
     38 H           2.4527   -2.4905   16.1399 H         1 0K1701      0.0000 
     39 H           6.5595    0.8196   15.2278 H         1 0K1701      0.0000 
     40 H           6.6179   -0.5964   16.3309 H         1 0K1701      0.0000 
     41 H          -0.6980    1.8717   11.8743 H         1 0K1701      0.0000 
     42 H          -4.1277    0.1158   12.9580 H         1 0K1701      0.0000 
     43 H           5.1729    3.7798   11.9517 H         1 0K1701      0.0000 
     44 H           4.2344    4.9003   13.9299 H         1 0K1701      0.0000 
     45 H           3.6340    2.8380   10.2497 H         1 0K1701      0.0000 
     46 H           3.3230    7.0704   10.4047 H         1 0K1701      0.0000 
     47 H           1.3470    6.8919   11.8821 H         1 0K1701      0.0000 
     48 H           1.0685    6.0546   10.3455 H         1 0K1701      0.0000 
     49 H           2.8779    2.0401   12.8409 H         1 0K1701      0.0000 
     50 H           3.0774    4.9582    9.1483 H         1 0K1701      0.0000 
     51 H           4.6756    5.0526    9.9077 H         1 0K1701      0.0000 
     52 H           1.5788    2.6404   11.5842 H         1 0K1701      0.0000 
     53 H           1.2872    3.6592   10.1639 H         1 0K1701      0.0000 
     54 H           1.8834    5.6199   13.9263 H         1 0K1701      0.0000 
     55 H           2.0000    3.8522   13.8866 H         1 0K1701      0.0000 
     56 H           4.9840    6.2780   12.0316 H         1 0K1701      0.0000 
     57 H           3.5974    7.0163   12.8513 H         1 0K1701      0.0000 
     58 H          -2.0972    4.2824   11.1375 H         1 0K1701      0.0000 
     59 H          -2.0433    3.3728    9.8123 H         1 0K1701      0.0000 
     60 H          -3.4582    3.8883   10.3768 H         1 0K1701      0.0000 
     61 H          -0.0187    3.9665   13.1288 H         1 0K1701      0.0000 
@<TRIPOS>BOND
     1    2    1 ar   
     2    3    1 ar   
     3   11    1 1    
     4    4    2 ar   
     5   34    2 1    
     6    5    3 ar   
     7   35    3 1    
     8    6    4 ar   
     9   13    4 1    
    10    6    5 ar   
    11   36    5 1    
    12   37    6 1    
    13    8    7 ar   
    14   12    7 1    
    15   30    7 ar   
    16    9    8 ar   
    17   23    8 1    
    18   11    9 ar   
    19   11   10 ar   
    20   30   10 ar   
    21   38   10 1    
    22   39   12 1    
    23   40   12 1    
    24   14   13 2    
    25   15   13 1    
    26   32   14 1    
    27   41   14 1    
    28   31   15 2    
    29   42   15 1    
    30   17   16 1    
    31   18   16 1    
    32   24   16 1    
    33   43   16 1    
    34   28   17 1    
    35   29   17 1    
    36   44   17 1    
    37   25   18 1    
    38   27   18 1    
    39   45   18 1    
    40   21   19 1    
    41   26   19 1    
    42   27   19 1    
    43   28   19 1    
    44   21   20 1    
    45   25   20 1    
    46   29   20 1    
    47   46   20 1    
    48   47   21 1    
    49   48   21 1    
    50   23   22 2    
    51   24   23 am   
    52   49   24 1    
    53   50   25 1    
    54   51   25 1    
    55   61   26 1    
    56   52   27 1    
    57   53   27 1    
    58   54   28 1    
    59   55   28 1    
    60   56   29 1    
    61   57   29 1    
    62   32   31 1    
    63   33   32 1    
    64   58   33 1    
    65   59   33 1    
    66   60   33 1    
@<TRIPOS>SUBSTRUCTURE
     1 0K1701      1 GROUP   
@<TRIPOS>SET

