#    Name: 1csn_ATP_1_INTS_M
#    Modification time : Mon Mar 24 20:59:43 2014

@<TRIPOS>MOLECULE
1csn_ATP_1_INTS_M
   73     0    15     0     0
SMALL
NO_CHARGES


@<TRIPOS>ATOM
      1 NZ        -18.0590   44.5440   53.5560 N.4       3 LYC4        0.0000 
      2 NZ        -19.2750   45.0130   54.1870 N.4      13 LYL4        0.0000 
      3 NZ        -16.8430   44.0750   52.9250 N.4       8 LYP4        0.0000 
      4 Zn        -19.4810   45.6105   53.2250 Zn        4 ZIC7        0.0000 
      5 Zn        -19.2750   45.0130   54.1870 Zn       14 ZIL7        0.0000 
      6 Zn        -19.6870   46.2080   52.2630 Zn        9 ZIP7        0.0000 
      7 N         -18.0590   44.5440   53.5560 N.am      2 SEC2        0.0000 
      8 N         -19.2750   45.0130   54.1870 N.am     12 SEL2        0.0000 
      9 N         -16.8430   44.0750   52.9250 N.am      7 SEP2        0.0000 
     10 N         -21.6610   42.5085   55.7150 N.am      2 SEC2        0.0000 
     11 N         -20.3790   43.5790   55.9850 N.am     12 SEL2        0.0000 
     12 N         -22.9430   41.4380   55.4450 N.am      7 SEP2        0.0000 
     13 N         -20.3850   42.0330   56.1535 N.am      2 SEC2        0.0000 
     14 N         -20.3910   40.4870   56.3220 N.am      7 SEP2        0.0000 
     15 N         -21.8670   42.3315   54.4690 N.am      2 SEC2        0.0000 
     16 N         -20.7910   43.2250   53.4930 N.am     12 SEL2        0.0000 
     17 N         -24.9920   43.8745   56.8605 N.am      2 SEC2        0.0000 
     18 N         -23.5850   44.6010   56.1210 N.am     12 SEL2        0.0000 
     19 N         -26.3990   43.1480   57.6000 N.am      7 SEP2        0.0000 
     20 NZ        -22.6325   47.8950   56.9075 N.4       3 LYC4        0.0000 
     21 NZ        -22.1050   46.6390   56.5730 N.4      13 LYL4        0.0000 
     22 NZ        -23.1600   49.1510   57.2420 N.4       8 LYP4        0.0000 
     23 N         -22.6325   47.8950   56.9075 N.am      2 SEC2        0.0000 
     24 N         -22.1050   46.6390   56.5730 N.am     12 SEL2        0.0000 
     25 N         -23.1600   49.1510   57.2420 N.am      7 SEP2        0.0000 
     26 NZ        -23.0960   49.0805   55.9165 N.4       3 LYC4        0.0000 
     27 NZ        -23.0320   49.0100   54.5910 N.4      13 LYL4        0.0000 
     28 N         -23.0960   49.0805   55.9165 N.am      2 SEC2        0.0000 
     29 N         -23.0320   49.0100   54.5910 N.am     12 SEL2        0.0000 
     30 Zn        -20.5620   46.8595   52.7645 Zn        4 ZIC7        0.0000 
     31 Zn        -21.4370   47.5110   53.2660 Zn       14 ZIL7        0.0000 
     32 CA        -25.2380   47.2535   52.5445 C.3       5 GLC5        0.0000 
     33 CA        -23.7120   46.8170   51.4930 C.3      15 GLL5        0.0000 
     34 CA        -26.7640   47.6900   53.5960 C.3      10 GLP5        0.0000 
     35 CA        -25.8315   46.6810   49.4915 C.3       5 GLC5        0.0000 
     36 CA        -23.9750   47.2950   50.0600 C.3      15 GLL5        0.0000 
     37 CA        -27.6880   46.0670   48.9230 C.3      10 GLP5        0.0000 
     38 O         -20.3960   48.1765   48.8810 O.2       1 ALC1        0.0000 
     39 O         -21.7000   47.4020   49.4310 O.2      11 ALL1        0.0000 
     40 O         -19.0920   48.9510   48.3310 O.2       6 ALP1        0.0000 
     41 CA        -22.1065   50.2950   47.8475 C.3       5 GLC5        0.0000 
     42 CA        -23.4730   48.8330   48.4140 C.3      15 GLL5        0.0000 
     43 CA        -20.7400   51.7570   47.2810 C.3      10 GLP5        0.0000 
     44 CA        -26.2735   47.6335   48.9300 C.3       5 GLC5        0.0000 
     45 CA        -24.8590   49.2000   48.9370 C.3      15 GLL5        0.0000 
     46 CA        -25.6315   54.6035   52.0500 C.3       5 GLC5        0.0000 
     47 CA        -25.8480   53.8880   49.9560 C.3      15 GLL5        0.0000 
     48 CA        -25.4150   55.3190   54.1440 C.3      10 GLP5        0.0000 
     49 CA        -25.0775   55.2385   48.5645 C.3       5 GLC5        0.0000 
     50 CA        -24.3070   56.5890   47.1730 C.3      10 GLP5        0.0000 
     51 O         -26.3455   56.1540   50.8615 O.2       1 ALC1        0.0000 
     52 O         -25.6900   54.8480   50.8650 O.2      11 ALL1        0.0000 
     53 O         -27.0010   57.4600   50.8580 O.2       6 ALP1        0.0000 
     54 N         -26.5385   55.4060   48.0690 N.am      2 SEC2        0.0000 
     55 N         -26.3360   54.1370   48.7220 N.am     12 SEL2        0.0000 
     56 N         -26.7410   56.6750   47.4160 N.am      7 SEP2        0.0000 
     57 CA        -28.0045   52.2630   48.0705 C.3       5 GLC5        0.0000 
     58 CA        -26.3520   53.1860   47.7990 C.3      15 GLL5        0.0000 
     59 CA        -29.6570   51.3400   48.3420 C.3      10 GLP5        0.0000 
     60 CA        -28.2870   54.0735   47.7145 C.3       5 GLC5        0.0000 
     61 CA        -30.2220   54.9610   47.6300 C.3      10 GLP5        0.0000 
     62 CA        -25.9995   55.0015   47.1340 C.3       5 GLC5        0.0000 
     63 CA        -25.6470   56.8170   46.4690 C.3      10 GLP5        0.0000 
     64 CA        -24.4440   53.2295   47.9040 C.3       5 GLC5        0.0000 
     65 CA        -22.5360   53.2730   48.0090 C.3      10 GLP5        0.0000 
     66 CA        -27.5555   51.5280   48.7575 C.3       5 GLC5        0.0000 
     67 CA        -25.4540   51.7160   49.1730 C.3      15 GLL5        0.0000 
     68 CA        -27.0572   51.2630   50.6895 C.3       5 GLC5        0.0000 
     69 CA        -28.6920   50.3640   51.6910 C.3      10 GLP5        0.0000 
     70 CA        -27.4307   53.8290   50.7848 C.3       5 GLC5        0.0000 
     71 CA        -25.3910   52.6080   50.2030 C.3      15 GLL5        0.0000 
     72 CA        -29.2420   54.4100   51.4900 C.3      10 GLP5        0.0000 
     73 CA        -24.0364   52.8775   48.8176 C.3       5 GLC5        0.0000 
@<TRIPOS>BOND
@<TRIPOS>SUBSTRUCTURE
     1 ALC1       38 GROUP        1 X    ALC  0     ROOT ALC X 1
     2 SEC2        7 GROUP        1 X    SEC  0     **** SEC X 2
     3 LYC4        1 GROUP        1 X    LYC  0     **** LYC X 4
     4 ZIC7        4 GROUP        1 X    ZIC  0     **** ZIC X 5
     5 GLC5       32 GROUP        1 X    GLC  0     **** GLC X 6
     6 ALP1       40 GROUP        1 Y    ALP  0     ROOT ALP Y 8
     7 SEP2        9 GROUP        1 Y    SEP  0     **** SEP Y 9
     8 LYP4        3 GROUP        1 Y    LYP  0     **** LYP Y 11
     9 ZIP7        6 GROUP        1 Y    ZIP  0     **** ZIP Y 12
    10 GLP5       34 GROUP        1 Y    GLP  0     **** GLP Y 13
    11 ALL1       39 GROUP        1 Z    ALL  0     ROOT ALL Z 15
    12 SEL2        8 GROUP        1 Z    SEL  0     **** SEL Z 16
    13 LYL4        2 GROUP        1 Z    LYL  0     **** LYL Z 18
    14 ZIL7        5 GROUP        1 Z    ZIL  0     **** ZIL Z 19
    15 GLL5       33 GROUP        1 Z    GLL  0     **** GLL Z 20
@<TRIPOS>SET

