#    Name: 1csn_ATP_1_ligand
#    Modification time : Mon Mar 24 20:59:43 2014

@<TRIPOS>MOLECULE
1csn_ATP_1_ligand
   43    45     1     0     0
SMALL
NO_CHARGES


@<TRIPOS>ATOM
      1 PG        -20.3880   44.1110   54.6140 P.3       1 ATP299      0.0000 
      2 O1G       -19.2750   45.0130   54.1870 O.co2     1 ATP299      0.0000 
      3 O2G       -20.3790   43.5790   55.9850 O.co2     1 ATP299      0.0000 
      4 O3G       -20.7910   43.2250   53.4930 O.co2     1 ATP299      0.0000 
      5 PB        -22.7300   45.7160   55.6090 P.3       1 ATP299      0.0000 
      6 O1B       -23.5850   44.6010   56.1210 O.co2     1 ATP299      0.0000 
      7 O2B       -22.1050   46.6390   56.5730 O.co2     1 ATP299      0.0000 
      8 O3B       -21.6170   45.1630   54.5230 O.3       1 ATP299      0.0000 
      9 PA        -22.8280   47.8220   53.7620 P.3       1 ATP299      0.0000 
     10 O1A       -23.0320   49.0100   54.5910 O.co2     1 ATP299      0.0000 
     11 O2A       -21.4370   47.5110   53.2660 O.co2     1 ATP299      0.0000 
     12 O3A       -23.4690   46.5450   54.4450 O.3       1 ATP299      0.0000 
     13 O5'       -23.6300   47.8870   52.4100 O.3       1 ATP299      0.0000 
     14 C5'       -23.7120   46.8170   51.4930 C.3       1 ATP299      0.0000 
     15 C4'       -23.9750   47.2950   50.0600 C.3       1 ATP299      0.0000 
     16 O4'       -25.1220   48.1490   49.8950 O.3       1 ATP299      0.0000 
     17 C3'       -22.8690   48.2060   49.6650 C.3       1 ATP299      0.0000 
     18 O3'       -21.7000   47.4020   49.4310 O.3       1 ATP299      0.0000 
     19 C2'       -23.4730   48.8330   48.4140 C.3       1 ATP299      0.0000 
     20 O2'       -23.6280   47.8320   47.4100 O.3       1 ATP299      0.0000 
     21 C1'       -24.8590   49.2000   48.9370 C.3       1 ATP299      0.0000 
     22 N9        -24.9390   50.5210   49.6590 N.pl3     1 ATP299      0.0000 
     23 C8        -24.6050   50.8170   50.9640 C.2       1 ATP299      0.0000 
     24 N7        -24.8540   52.0370   51.3330 N.2       1 ATP299      0.0000 
     25 C5        -25.3910   52.6080   50.2030 C.ar      1 ATP299      0.0000 
     26 C6        -25.8480   53.8880   49.9560 C.ar      1 ATP299      0.0000 
     27 N6        -25.6900   54.8480   50.8650 N.pl3     1 ATP299      0.0000 
     28 N1        -26.3360   54.1370   48.7220 N.ar      1 ATP299      0.0000 
     29 C2        -26.3520   53.1860   47.7990 C.ar      1 ATP299      0.0000 
     30 N3        -25.9260   51.9510   47.9350 N.ar      1 ATP299      0.0000 
     31 C4        -25.4540   51.7160   49.1730 C.ar      1 ATP299      0.0000 
     32 H         -24.5245   46.1091   51.7543 H         1 ATP299      0.0000 
     33 H         -22.7788   46.2186   51.4704 H         1 ATP299      0.0000 
     34 H         -23.9905   46.4770   49.3905 H         1 ATP299      0.0000 
     35 H         -22.7573   48.9399   50.4021 H         1 ATP299      0.0000 
     36 H         -22.9631   49.6718   48.1521 H         1 ATP299      0.0000 
     37 H         -25.5570   49.1488   48.1436 H         1 ATP299      0.0000 
     38 H         -24.1968   50.1055   51.5593 H         1 ATP299      0.0000 
     39 H         -25.2103   54.5863   51.7025 H         1 ATP299      0.0000 
     40 H         -26.0653   55.7442   50.6283 H         1 ATP299      0.0000 
     41 H         -26.7651   53.4639   46.8206 H         1 ATP299      0.0000 
     42 H         -21.0164   48.0377   49.0724 H         1 ATP299      0.0000 
     43 H         -23.0325   47.0821   47.6983 H         1 ATP299      0.0000 
@<TRIPOS>BOND
     1    2    1 ar   
     2    3    1 ar   
     3    4    1 ar   
     4    8    1 1    
     5    6    5 ar   
     6    7    5 ar   
     7    8    5 1    
     8   12    5 1    
     9   10    9 ar   
    10   11    9 ar   
    11   12    9 1    
    12   13    9 1    
    13   14   13 1    
    14   15   14 1    
    15   32   14 1    
    16   33   14 1    
    17   16   15 1    
    18   17   15 1    
    19   34   15 1    
    20   21   16 1    
    21   18   17 1    
    22   19   17 1    
    23   35   17 1    
    24   42   18 1    
    25   20   19 1    
    26   21   19 1    
    27   36   19 1    
    28   43   20 1    
    29   22   21 1    
    30   37   21 1    
    31   23   22 1    
    32   31   22 1    
    33   24   23 2    
    34   38   23 1    
    35   25   24 1    
    36   26   25 ar   
    37   31   25 ar   
    38   27   26 1    
    39   28   26 ar   
    40   39   27 1    
    41   40   27 1    
    42   29   28 ar   
    43   30   29 ar   
    44   41   29 1    
    45   31   30 ar   
@<TRIPOS>SUBSTRUCTURE
     1 ATP299      1 GROUP   
@<TRIPOS>SET

