#    Name: 4bc6_XZN_1_INTS_M
#    Modification time : Tue Mar 25 07:21:06 2014

@<TRIPOS>MOLECULE
4bc6_XZN_1_INTS_M
   76     0     9     0     0
SMALL
NO_CHARGES


@<TRIPOS>ATOM
      1 CA        -12.7800  -20.4500   15.6175 C.3       3 GLC5        0.0000 
      2 CA        -11.6130  -18.6300   15.2990 C.3       9 GLL5        0.0000 
      3 CA        -13.9470  -22.2700   15.9360 C.3       6 GLP5        0.0000 
      4 CA        -10.4835  -13.0545   19.4195 C.3       3 GLC5        0.0000 
      5 CA        -11.5580  -14.4340   18.7770 C.3       9 GLL5        0.0000 
      6 CA         -9.4090  -11.6750   20.0620 C.3       6 GLP5        0.0000 
      7 CA        -11.1840  -13.3475   17.1965 C.3       3 GLC5        0.0000 
      8 CA        -10.8100  -12.2610   15.6160 C.3       6 GLP5        0.0000 
      9 CA        -13.6245  -13.7380   18.6230 C.3       3 GLC5        0.0000 
     10 CA        -15.6910  -13.0420   18.4690 C.3       6 GLP5        0.0000 
     11 CA        -11.8795  -20.3805   21.9475 C.3       3 GLC5        0.0000 
     12 CA        -10.6870  -19.0220   21.1140 C.3       9 GLL5        0.0000 
     13 CA        -13.0720  -21.7390   22.7810 C.3       6 GLP5        0.0000 
     14 CA         -8.7575  -17.9060   24.7595 C.3       3 GLC5        0.0000 
     15 CA         -9.2590  -19.0350   22.9180 C.3       9 GLL5        0.0000 
     16 CA         -8.2560  -16.7770   26.6010 C.3       6 GLP5        0.0000 
     17 CA         -9.6170  -20.2050   24.3575 C.3       3 GLC5        0.0000 
     18 CA         -9.9750  -21.3750   25.7970 C.3       6 GLP5        0.0000 
     19 CA         -6.5715  -19.7565   24.9805 C.3       3 GLC5        0.0000 
     20 CA         -5.6580  -18.9990   23.1880 C.3       9 GLL5        0.0000 
     21 CA         -7.4850  -20.5140   26.7730 C.3       6 GLP5        0.0000 
     22 CA         -6.1625  -17.0085   19.3600 C.3       3 GLC5        0.0000 
     23 CA         -5.9550  -18.7480   20.3740 C.3       9 GLL5        0.0000 
     24 CA         -6.3700  -15.2690   18.3460 C.3       6 GLP5        0.0000 
     25 CA         -3.3280  -18.2920   24.7815 C.3       3 GLC5        0.0000 
     26 CA         -2.8350  -19.8860   23.9420 C.3       9 GLL5        0.0000 
     27 CA         -3.8210  -16.6980   25.6210 C.3       6 GLP5        0.0000 
     28 CA          5.2855  -23.0140   25.4575 C.3       3 GLC5        0.0000 
     29 CA          4.6330  -21.8280   24.1180 C.3       9 GLL5        0.0000 
     30 CA          5.9380  -24.2000   26.7970 C.3       6 GLP5        0.0000 
     31 CA          4.1315  -23.4655   25.7045 C.3       3 GLC5        0.0000 
     32 CA          2.3250  -22.7310   24.6120 C.3       9 GLL5        0.0000 
     33 N          -7.8620  -19.0950   24.8740 N.am      1 SEC2        0.0000 
     34 N          -8.0100  -19.0480   23.4180 N.am      7 SEL2        0.0000 
     35 N          -7.7140  -19.1420   26.3300 N.am      4 SEP2        0.0000 
     36 CA        -10.9975  -15.4430   15.6425 C.3       3 GLC5        0.0000 
     37 CA        -11.4280  -16.6380   17.1910 C.3       9 GLL5        0.0000 
     38 CA        -10.5670  -14.2480   14.0940 C.3       6 GLP5        0.0000 
     39 CA         -8.9785  -16.1400   20.6875 C.3       3 GLC5        0.0000 
     40 CA         -9.8610  -16.6540   19.0300 C.3       9 GLL5        0.0000 
     41 CA         -8.0960  -15.6260   22.3450 C.3       6 GLP5        0.0000 
     42 CA        -11.9730  -16.6510   19.5725 C.3       3 GLC5        0.0000 
     43 CA        -14.0850  -16.6480   20.1150 C.3       6 GLP5        0.0000 
     44 CA         -7.5440  -20.2510   24.2290 C.3       3 GLC5        0.0000 
     45 CA         -6.9250  -18.9780   22.6050 C.3       9 GLL5        0.0000 
     46 CA         -8.1630  -21.5240   25.8530 C.3       6 GLP5        0.0000 
     47 CA         -8.4235  -17.2100   16.7365 C.3       3 GLC5        0.0000 
     48 CA         -9.9630  -18.5320   17.5040 C.3       9 GLL5        0.0000 
     49 CA         -6.8840  -15.8880   15.9690 C.3       6 GLP5        0.0000 
     50 OD1         3.9760  -23.6440   23.8400 O.co2     2 ASC3        0.0000 
     51 OD1         3.2270  -21.9500   23.7560 O.co2     8 ASL3        0.0000 
     52 OD1         4.7250  -25.3380   23.9240 O.co2     5 ASP3        0.0000 
     53 CA        -12.1655  -15.2535   15.3125 C.3       3 GLC5        0.0000 
     54 CA        -13.7640  -16.2590   16.5310 C.3       9 GLL5        0.0000 
     55 CA        -14.7275  -14.6505   17.5000 C.3       3 GLC5        0.0000 
     56 CA        -13.9245  -16.4535   18.3230 C.3       3 GLC5        0.0000 
     57 CA        -10.3985  -14.7115   16.7370 C.3       3 GLC5        0.0000 
     58 CA        -10.8960  -16.0330   18.3160 C.3       9 GLL5        0.0000 
     59 CA         -9.9010  -13.3900   15.1580 C.3       6 GLP5        0.0000 
     60 CA        -11.4446  -18.2176   22.6015 C.3       3 GLC5        0.0000 
     61 CA         -9.4760  -18.9170   21.5380 C.3       9 GLL5        0.0000 
     62 CA        -13.2190  -17.4330   23.0810 C.3       6 GLP5        0.0000 
     63 CA         -9.5531  -20.6981   21.9700 C.3       3 GLC5        0.0000 
     64 CA         -9.4360  -22.3940   21.8180 C.3       6 GLP5        0.0000 
     65 CA         -4.7148  -17.1052   22.3605 C.3       3 GLC5        0.0000 
     66 CA         -4.3480  -15.2390   21.9300 C.3       6 GLP5        0.0000 
     67 CA         -7.1938  -17.3072   22.6208 C.3       3 GLC5        0.0000 
     68 CA         -4.8295  -17.0018   21.2868 C.3       3 GLC5        0.0000 
     69 CA         -7.3065  -17.2133   21.5675 C.3       3 GLC5        0.0000 
     70 CA         -3.0448  -21.8888   23.6745 C.3       3 GLC5        0.0000 
     71 CA         -3.8690  -23.5300   23.6650 C.3       6 GLP5        0.0000 
     72 CA        -12.7063  -16.2919   18.9919 C.3       3 GLC5        0.0000 
     73 CA         -8.0013  -16.2797   18.5875 C.3       3 GLC5        0.0000 
     74 CA         -8.5591  -17.2651   21.8675 C.3       3 GLC5        0.0000 
     75 CA         -8.3740  -18.8060   20.6580 C.3       9 GLL5        0.0000 
     76 CA         -8.3809  -20.6489   21.7933 C.3       3 GLC5        0.0000 
@<TRIPOS>BOND
@<TRIPOS>SUBSTRUCTURE
     1 SEC2       33 GROUP        1 X    SEC  0     ROOT SEC X 2
     2 ASC3       50 GROUP        1 X    ASC  0     **** ASC X 3
     3 GLC5        1 GROUP        1 X    GLC  0     **** GLC X 6
     4 SEP2       35 GROUP        1 Y    SEP  0     ROOT SEP Y 9
     5 ASP3       52 GROUP        1 Y    ASP  0     **** ASP Y 10
     6 GLP5        3 GROUP        1 Y    GLP  0     **** GLP Y 13
     7 SEL2       34 GROUP        1 Z    SEL  0     ROOT SEL Z 16
     8 ASL3       51 GROUP        1 Z    ASL  0     **** ASL Z 17
     9 GLL5        2 GROUP        1 Z    GLL  0     **** GLL Z 20
@<TRIPOS>SET

