#    Name: 4bc6_XZN_1_ligand
#    Modification time : Tue Mar 25 07:21:06 2014

@<TRIPOS>MOLECULE
4bc6_XZN_1_ligand
   66    69     1     0     0
SMALL
NO_CHARGES


@<TRIPOS>ATOM
      1 CAA        -3.0790  -19.9580   19.5290 C.3       1 XZN1317     0.0000 
      2 O02       -12.3670  -15.9750   16.4460 O.3       1 XZN1317     0.0000 
      3 CAC        -0.4280  -20.3570   24.3600 C.3       1 XZN1317     0.0000 
      4 NAD       -11.7590  -19.1580   20.7040 N.1       1 XZN1317     0.0000 
      5 CL1       -11.6130  -18.6300   15.2990 Cl        1 XZN1317     0.0000 
      6 CL2       -11.5580  -14.4340   18.7770 Cl        1 XZN1317     0.0000 
      7 CAG       -10.6870  -19.0220   21.1140 C.1       1 XZN1317     0.0000 
      8 CAH        -9.2590  -19.0350   22.9180 C.ar      1 XZN1317     0.0000 
      9 CAK        -5.6580  -18.9990   23.1880 C.ar      1 XZN1317     0.0000 
     10 CAL        -5.9550  -18.7480   20.3740 C.ar      1 XZN1317     0.0000 
     11 CAM        -1.6060  -20.6090   23.4260 C.3       1 XZN1317     0.0000 
     12 CAN        -2.8350  -19.8860   23.9420 C.3       1 XZN1317     0.0000 
     13 CAO         4.6330  -21.8280   24.1180 C.3       1 XZN1317     0.0000 
     14 CAQ         0.8860  -22.5030   24.1350 C.3       1 XZN1317     0.0000 
     15 CAP         1.6540  -20.3250   22.9720 C.3       1 XZN1317     0.0000 
     16 CAS         2.3250  -22.7310   24.6120 C.3       1 XZN1317     0.0000 
     17 CAR         2.7660  -21.2810   22.5400 C.3       1 XZN1317     0.0000 
     18 NAT        -8.0100  -19.0480   23.4180 N.ar      1 XZN1317     0.0000 
     19 NAU        -8.4810  -18.6610   19.3030 N.pl3     1 XZN1317     0.0000 
     20 OAV        -3.5780  -18.7360   20.0780 O.3       1 XZN1317     0.0000 
     21 OAW        -3.2540  -18.9270   22.9720 O.3       1 XZN1317     0.0000 
     22 CAX       -11.4280  -16.6380   17.1910 C.ar      1 XZN1317     0.0000 
     23 CAY       -10.9460  -17.8690   16.7730 C.ar      1 XZN1317     0.0000 
     24 CAZ        -9.8610  -16.6540   19.0300 C.ar      1 XZN1317     0.0000 
     25 CBA        -9.4760  -18.9170   21.5380 C.ar      1 XZN1317     0.0000 
     26 CBB        -9.4040  -17.9270   18.6280 C.ar      1 XZN1317     0.0000 
     27 CBC        -4.6670  -18.7810   20.9130 C.ar      1 XZN1317     0.0000 
     28 CBD        -4.5050  -18.9440   22.3940 C.ar      1 XZN1317     0.0000 
     29 CBE        -8.3740  -18.8060   20.6580 C.ar      1 XZN1317     0.0000 
     30 CBF        -6.9250  -18.9780   22.6050 C.ar      1 XZN1317     0.0000 
     31 CBG        -7.0790  -18.8530   21.2060 C.ar      1 XZN1317     0.0000 
     32 NBH         0.7150  -21.0760   23.8150 N.3       1 XZN1317     0.0000 
     33 CAJ        -9.9630  -18.5320   17.5040 C.ar      1 XZN1317     0.0000 
     34 NBI         3.2270  -21.9500   23.7560 N.4       1 XZN1317     0.0000 
     35 C01       -13.7640  -16.2590   16.5310 C.3       1 XZN1317     0.0000 
     36 CAI       -10.8960  -16.0330   18.3160 C.ar      1 XZN1317     0.0000 
     37 H          -0.6871  -20.7201   25.3464 H         1 XZN1317     0.0000 
     38 H          -0.2407  -19.2915   24.3979 H         1 XZN1317     0.0000 
     39 H         -10.0876  -19.1117   23.5401 H         1 XZN1317     0.0000 
     40 H          -5.5663  -19.0555   24.2129 H         1 XZN1317     0.0000 
     41 H          -6.0830  -18.6458   19.3579 H         1 XZN1317     0.0000 
     42 H          -1.8042  -21.6759   23.3790 H         1 XZN1317     0.0000 
     43 H          -1.3599  -20.2452   22.4327 H         1 XZN1317     0.0000 
     44 H          -2.5756  -19.4119   24.8940 H         1 XZN1317     0.0000 
     45 H          -3.6122  -20.6324   24.1352 H         1 XZN1317     0.0000 
     46 H           0.2091  -22.8058   24.9281 H         1 XZN1317     0.0000 
     47 H           0.7128  -23.1199   23.2585 H         1 XZN1317     0.0000 
     48 H           1.1613  -19.9457   22.0847 H         1 XZN1317     0.0000 
     49 H           2.0990  -19.5045   23.5222 H         1 XZN1317     0.0000 
     50 H           2.5447  -23.7914   24.5437 H         1 XZN1317     0.0000 
     51 H           2.3975  -22.4125   25.6468 H         1 XZN1317     0.0000 
     52 H           3.5563  -20.7061   22.0859 H         1 XZN1317     0.0000 
     53 H           2.3578  -21.9870   21.8355 H         1 XZN1317     0.0000 
     54 H          -7.7464  -19.1918   18.7029 H         1 XZN1317     0.0000 
     55 H          -9.4388  -16.1917   19.8351 H         1 XZN1317     0.0000 
     56 H          -9.6500  -19.4667   17.2148 H         1 XZN1317     0.0000 
     57 H           3.5362  -23.1364   22.9887 H         1 XZN1317     0.0000 
     58 H          -2.2843  -19.8042   18.9418 H         1 XZN1317     0.0000 
     59 H          -2.7960  -20.5979   20.2435 H         1 XZN1317     0.0000 
     60 H          -3.7678  -20.4243   18.9739 H         1 XZN1317     0.0000 
     61 H           5.0840  -22.7195   24.1617 H         1 XZN1317     0.0000 
     62 H           5.1401  -21.2751   23.4568 H         1 XZN1317     0.0000 
     63 H           4.7501  -21.3961   25.0123 H         1 XZN1317     0.0000 
     64 H         -13.9651  -17.2089   16.2916 H         1 XZN1317     0.0000 
     65 H         -14.1182  -16.1080   17.4539 H         1 XZN1317     0.0000 
     66 H         -14.2986  -15.6817   15.9138 H         1 XZN1317     0.0000 
@<TRIPOS>BOND
     1   20    1 1    
     2   58    1 1    
     3   59    1 1    
     4   60    1 1    
     5   22    2 1    
     6   35    2 1    
     7   11    3 1    
     8   32    3 1    
     9   37    3 1    
    10   38    3 1    
    11    7    4 3    
    12   23    5 1    
    13   36    6 1    
    14   25    7 1    
    15   18    8 ar   
    16   25    8 ar   
    17   39    8 1    
    18   28    9 ar   
    19   30    9 ar   
    20   40    9 1    
    21   27   10 ar   
    22   31   10 ar   
    23   41   10 1    
    24   12   11 1    
    25   42   11 1    
    26   43   11 1    
    27   21   12 1    
    28   44   12 1    
    29   45   12 1    
    30   34   13 1    
    31   61   13 1    
    32   62   13 1    
    33   63   13 1    
    34   16   14 1    
    35   32   14 1    
    36   46   14 1    
    37   47   14 1    
    38   17   15 1    
    39   32   15 1    
    40   48   15 1    
    41   49   15 1    
    42   34   16 1    
    43   50   16 1    
    44   51   16 1    
    45   34   17 1    
    46   52   17 1    
    47   53   17 1    
    48   30   18 ar   
    49   26   19 1    
    50   29   19 1    
    51   54   19 1    
    52   27   20 1    
    53   28   21 1    
    54   23   22 ar   
    55   36   22 ar   
    56   33   23 ar   
    57   26   24 ar   
    58   36   24 ar   
    59   55   24 1    
    60   29   25 ar   
    61   33   26 ar   
    62   28   27 ar   
    63   31   29 ar   
    64   31   30 ar   
    65   56   33 1    
    66   57   34 1    
    67   64   35 1    
    68   65   35 1    
    69   66   35 1    
@<TRIPOS>SUBSTRUCTURE
     1 XZN1317     1 GROUP   
@<TRIPOS>SET

