#    Name: 3vt6_5YI_1_INTS_M
#    Modification time : Tue Mar 25 01:33:18 2014

@<TRIPOS>MOLECULE
3vt6_5YI_1_INTS_M
  122     0     9     0     0
SMALL
NO_CHARGES


@<TRIPOS>ATOM
      1 CA         11.1905   10.0620   28.0800 C.3       3 GLC5        0.0000 
      2 CA         13.2390    9.4570   27.5750 C.3       9 GLL5        0.0000 
      3 CA          9.1420   10.6670   28.5850 C.3       6 GLP5        0.0000 
      4 CA         14.7425    6.6335   23.0230 C.3       3 GLC5        0.0000 
      5 CA         14.8020    7.1580   24.9900 C.3       9 GLL5        0.0000 
      6 CA         14.6830    6.1090   21.0560 C.3       6 GLP5        0.0000 
      7 CA         14.3350    4.2530   25.4505 C.3       3 GLC5        0.0000 
      8 CA         14.4410    6.2250   26.1650 C.3       9 GLL5        0.0000 
      9 CA         14.2290    2.2810   24.7360 C.3       6 GLP5        0.0000 
     10 CA         16.4080    5.3180   25.5860 C.3       3 GLC5        0.0000 
     11 CA         18.3750    4.4110   25.0070 C.3       6 GLP5        0.0000 
     12 CA         14.3870    4.0040   30.2025 C.3       3 GLC5        0.0000 
     13 CA         13.4680    4.8350   28.5780 C.3       9 GLL5        0.0000 
     14 CA         15.3060    3.1730   31.8270 C.3       6 GLP5        0.0000 
     15 CA         13.3830    3.1090   28.4920 C.3       3 GLC5        0.0000 
     16 CA         13.2980    1.3830   28.4060 C.3       6 GLP5        0.0000 
     17 CA         10.3035    5.5725   25.3345 C.3       3 GLC5        0.0000 
     18 CA         10.6010    5.1540   27.1490 C.3       9 GLL5        0.0000 
     19 CA         10.0060    5.9910   23.5200 C.3       6 GLP5        0.0000 
     20 CA          7.8455    7.7950   27.3870 C.3       3 GLC5        0.0000 
     21 CA          7.8060    5.9220   28.1020 C.3       9 GLL5        0.0000 
     22 CA          7.8850    9.6680   26.6720 C.3       6 GLP5        0.0000 
     23 CA          6.5490    6.2485   26.2810 C.3       3 GLC5        0.0000 
     24 CA          5.2920    6.5750   24.4600 C.3       6 GLP5        0.0000 
     25 CA          8.0525    7.1370   29.6935 C.3       3 GLC5        0.0000 
     26 CA          8.2990    8.3520   31.2850 C.3       6 GLP5        0.0000 
     27 CA          6.7325    5.1075   24.9715 C.3       3 GLC5        0.0000 
     28 CA          8.1730    3.6400   25.4830 C.3       9 GLL5        0.0000 
     29 CA          7.0765    2.2490   24.4585 C.3       3 GLC5        0.0000 
     30 CA          5.9800    0.8580   23.4340 C.3       6 GLP5        0.0000 
     31 N          10.8070    3.3760   29.7495 N.am      2 SEC2        0.0000 
     32 N          10.4890    3.1910   28.5360 N.am      8 SEL2        0.0000 
     33 N          11.1250    3.5610   30.9630 N.am      5 SEP2        0.0000 
     34 O          11.3345    2.2030   28.0810 O.2       1 ALC1        0.0000 
     35 O          10.4890    3.1910   28.5360 O.2       7 ALL1        0.0000 
     36 O          12.1800    1.2150   27.6260 O.2       4 ALP1        0.0000 
     37 CA         11.2415    5.5620   30.0270 C.3       3 GLC5        0.0000 
     38 CA         11.1680    6.4000   28.3850 C.3       9 GLL5        0.0000 
     39 CA         11.3150    4.7240   31.6690 C.3       6 GLP5        0.0000 
     40 CA         13.0605    7.4285   30.1300 C.3       3 GLC5        0.0000 
     41 CA         13.0030    6.2870   28.3650 C.3       9 GLL5        0.0000 
     42 CA         13.1180    8.5700   31.8950 C.3       6 GLP5        0.0000 
     43 CA          9.9335    8.9570   26.1680 C.3       3 GLC5        0.0000 
     44 CA         11.9820    8.2460   25.6640 C.3       9 GLL5        0.0000 
     45 CA         10.9940    7.1185   24.5920 C.3       3 GLC5        0.0000 
     46 CA         11.2650   11.3275   26.6410 C.3       3 GLC5        0.0000 
     47 CA         13.3250   10.8890   26.9470 C.3       9 GLL5        0.0000 
     48 CA          9.2050   11.7660   26.3350 C.3       6 GLP5        0.0000 
     49 CA         15.0860   12.0025   27.3980 C.3       3 GLC5        0.0000 
     50 CA         16.8470   13.1160   27.8490 C.3       6 GLP5        0.0000 
     51 CA         12.9815   13.0015   27.2365 C.3       3 GLC5        0.0000 
     52 CA         12.6380   15.1140   27.5260 C.3       6 GLP5        0.0000 
     53 CA         15.9170   11.9825   26.2425 C.3       3 GLC5        0.0000 
     54 CA         14.4870   11.0620   25.9280 C.3       9 GLL5        0.0000 
     55 CA         17.3470   12.9030   26.5570 C.3       6 GLP5        0.0000 
     56 CA         16.4070   10.8095   25.6460 C.3       3 GLC5        0.0000 
     57 CA         14.6300    9.8300   24.9670 C.3       9 GLL5        0.0000 
     58 CA         18.1840   11.7890   26.3250 C.3       6 GLP5        0.0000 
     59 CA         12.5100   11.5605   22.7180 C.3       3 GLC5        0.0000 
     60 CA         14.6390   11.1060   22.8200 C.3       9 GLL5        0.0000 
     61 CA         10.3810   12.0150   22.6160 C.3       6 GLP5        0.0000 
     62 CA         16.1120    9.9690   21.3220 C.3       3 GLC5        0.0000 
     63 CA         14.1810    9.9640   20.5160 C.3       9 GLL5        0.0000 
     64 CA         18.0430    9.9740   22.1280 C.3       6 GLP5        0.0000 
     65 CA         16.2735    8.9430   18.4020 C.3       3 GLC5        0.0000 
     66 CA         14.8650   10.1080   19.1290 C.3       9 GLL5        0.0000 
     67 CA         17.6820    7.7780   17.6750 C.3       6 GLP5        0.0000 
     68 CA         16.7875   10.3200   19.9980 C.3       3 GLC5        0.0000 
     69 CA         18.7100   10.5320   20.8670 C.3       6 GLP5        0.0000 
     70 N          14.6520    8.8180   16.9355 N.am      2 SEC2        0.0000 
     71 N          14.3600    9.1040   18.2450 N.am      8 SEL2        0.0000 
     72 N          14.9440    8.5320   15.6260 N.am      5 SEP2        0.0000 
     73 O          13.0565    8.7180   18.3815 O.2       1 ALC1        0.0000 
     74 O          14.3600    9.1040   18.2450 O.2       7 ALL1        0.0000 
     75 O          11.7530    8.3320   18.5180 O.2       4 ALP1        0.0000 
     76 CA         12.4415   11.8055   20.6010 C.3       3 GLC5        0.0000 
     77 CA         14.3870   12.6450   20.8510 C.3       9 GLL5        0.0000 
     78 CA         10.4960   10.9660   20.3510 C.3       6 GLP5        0.0000 
     79 CA         16.2280   13.1410   17.7540 C.3       3 GLC5        0.0000 
     80 CA         14.9980   12.7610   19.4270 C.3       9 GLL5        0.0000 
     81 CA         17.4580   13.5210   16.0810 C.3       6 GLP5        0.0000 
     82 CA         14.9765   14.5110   18.3380 C.3       3 GLC5        0.0000 
     83 CA         14.9550   16.2610   17.2490 C.3       6 GLP5        0.0000 
     84 CA         16.3145   14.2625   20.0360 C.3       3 GLC5        0.0000 
     85 CA         17.6310   15.7640   20.6450 C.3       6 GLP5        0.0000 
     86 N          16.9725   13.4605   18.4370 N.am      2 SEC2        0.0000 
     87 N          16.4140   12.8420   19.5350 N.am      8 SEL2        0.0000 
     88 N          17.5310   14.0790   17.3390 N.am      5 SEP2        0.0000 
     89 O          16.8800   13.7915   20.5590 O.2       1 ALC1        0.0000 
     90 O          16.4140   12.8420   19.5350 O.2       7 ALL1        0.0000 
     91 O          17.3460   14.7410   21.5830 O.2       4 ALP1        0.0000 
     92 CA         14.3535   14.5450   16.8930 C.3       3 GLC5        0.0000 
     93 CA         13.7520   12.8290   16.5370 C.3       9 GLL5        0.0000 
     94 CA         13.4520   10.5070   29.1225 C.3       3 GLC5        0.0000 
     95 CA         13.6220   10.8410   30.9840 C.3       6 GLP5        0.0000 
     96 CA         12.2752    5.1425   30.0703 C.3       3 GLC5        0.0000 
     97 CA         10.2105    4.5165   29.8873 C.3       3 GLC5        0.0000 
     98 CA          9.6960    4.0070   27.6790 C.3       9 GLL5        0.0000 
     99 CA          6.2945    5.3972   28.8695 C.3       3 GLC5        0.0000 
    100 CA          8.5160    4.6110   28.5320 C.3       9 GLL5        0.0000 
    101 CA          4.4280    5.5280   29.4220 C.3       6 GLP5        0.0000 
    102 CA          9.3545    4.6867   24.7473 C.3       3 GLC5        0.0000 
    103 CA          9.3810    2.0312   24.8477 C.3       3 GLC5        0.0000 
    104 CA         10.0590    0.6800   23.7210 C.3       6 GLP5        0.0000 
    105 CA         16.3525    9.9225   23.1977 C.3       3 GLC5        0.0000 
    106 CA         16.3053   11.7010   23.7965 C.3       3 GLC5        0.0000 
    107 CA         14.6940    9.9120   23.5680 C.3       9 GLL5        0.0000 
    108 CA         17.9440   12.8930   24.3990 C.3       6 GLP5        0.0000 
    109 CA         16.2840   10.5635   22.1310 C.3       3 GLC5        0.0000 
    110 CA         12.3960   10.7740   20.6665 C.3       3 GLC5        0.0000 
    111 CA         14.4110   11.2000   21.4480 C.3       9 GLL5        0.0000 
    112 CA         13.1910    8.4995   18.9948 C.3       3 GLC5        0.0000 
    113 CA         11.8590    6.9630   18.1670 C.3       6 GLP5        0.0000 
    114 CA         14.6030    8.0725   20.4393 C.3       3 GLC5        0.0000 
    115 CA         12.8648   13.6535   19.4650 C.3       3 GLC5        0.0000 
    116 CA         11.0370   14.6040   18.7910 C.3       6 GLP5        0.0000 
    117 CA         14.3302   14.4070   20.6035 C.3       3 GLC5        0.0000 
    118 CA         13.9680   16.1110   21.0680 C.3       6 GLP5        0.0000 
    119 CA         12.4725   13.4285   17.8455 C.3       3 GLC5        0.0000 
    120 CA         14.0640   11.6770   17.2630 C.3       9 GLL5        0.0000 
    121 CA         15.6922   12.1813   16.5824 C.3       3 GLC5        0.0000 
    122 CA         17.3370   12.1460   15.9430 C.3       6 GLP5        0.0000 
@<TRIPOS>BOND
@<TRIPOS>SUBSTRUCTURE
     1 ALC1       34 GROUP        1 X    ALC  0     ROOT ALC X 1
     2 SEC2       31 GROUP        1 X    SEC  0     **** SEC X 2
     3 GLC5        1 GROUP        1 X    GLC  0     **** GLC X 6
     4 ALP1       36 GROUP        1 Y    ALP  0     ROOT ALP Y 8
     5 SEP2       33 GROUP        1 Y    SEP  0     **** SEP Y 9
     6 GLP5        3 GROUP        1 Y    GLP  0     **** GLP Y 13
     7 ALL1       35 GROUP        1 Z    ALL  0     ROOT ALL Z 15
     8 SEL2       32 GROUP        1 Z    SEL  0     **** SEL Z 16
     9 GLL5        2 GROUP        1 Z    GLL  0     **** GLL Z 20
@<TRIPOS>SET

