#    Name: 3vt6_5YI_1_ligand
#    Modification time : Tue Mar 25 01:33:18 2014

@<TRIPOS>MOLECULE
3vt6_5YI_1_ligand
   77    79     1     0     0
SMALL
NO_CHARGES


@<TRIPOS>ATOM
      1 C12        13.2390    9.4570   27.5750 C.3       1 5YI500      0.0000 
      2 C13        13.3220    8.3010   26.5100 C.3       1 5YI500      0.0000 
      3 C14        14.6790    8.4660   25.7700 C.3       1 5YI500      0.0000 
      4 C15        14.8020    7.1580   24.9900 C.3       1 5YI500      0.0000 
      5 C16        14.4410    6.2250   26.1650 C.2       1 5YI500      0.0000 
      6 C21        13.4680    4.8350   28.5780 C.3       1 5YI500      0.0000 
      7 C23        10.6010    5.1540   27.1490 C.3       1 5YI500      0.0000 
      8 C24         9.6960    4.0070   27.6790 C.3       1 5YI500      0.0000 
      9 C29         7.8060    5.9220   28.1020 C.3       1 5YI500      0.0000 
     10 C27         8.5160    4.6110   28.5320 C.3       1 5YI500      0.0000 
     11 C26         9.2330    3.1250   26.4660 C.3       1 5YI500      0.0000 
     12 C28         8.1730    3.6400   25.4830 C.3       1 5YI500      0.0000 
     13 O03        10.4890    3.1910   28.5360 O.3       1 5YI500      0.0000 
     14 S22        11.1680    6.4000   28.3850 S.3       1 5YI500      0.0000 
     15 C20        13.0030    6.2870   28.3650 C.3       1 5YI500      0.0000 
     16 C17        13.6020    6.8670   27.0300 C.2       1 5YI500      0.0000 
     17 C18        11.9820    8.2460   25.6640 C.3       1 5YI500      0.0000 
     18 C11        13.3250   10.8890   26.9470 C.3       1 5YI500      0.0000 
     19 C09        14.4870   11.0620   25.9280 C.3       1 5YI500      0.0000 
     20 C08        14.6300    9.8300   24.9670 C.2       1 5YI500      0.0000 
     21 C07        14.6940    9.9120   23.5680 C.2       1 5YI500      0.0000 
     22 C06        14.6390   11.1060   22.8200 C.2       1 5YI500      0.0000 
     23 C05        14.4110   11.2000   21.4480 C.2       1 5YI500      0.0000 
     24 C10        14.1810    9.9640   20.5160 C.3       1 5YI500      0.0000 
     25 C01        14.8650   10.1080   19.1290 C.3       1 5YI500      0.0000 
     26 O01        14.3600    9.1040   18.2450 O.3       1 5YI500      0.0000 
     27 C04        14.3870   12.6450   20.8510 C.3       1 5YI500      0.0000 
     28 C03        14.9980   12.7610   19.4270 C.3       1 5YI500      0.0000 
     29 O02        16.4140   12.8420   19.5350 O.3       1 5YI500      0.0000 
     30 C02        14.6220   11.5310   18.5500 C.2       1 5YI500      0.0000 
     31 C30        14.0640   11.6770   17.2630 C.2       1 5YI500      0.0000 
     32 C31        13.7520   12.8290   16.5370 C.3       1 5YI500      0.0000 
     33 O04        12.6260   12.5680   15.6940 O.3       1 5YI500      0.0000 
     34 H          14.0583    9.3339   28.2846 H         1 5YI500      0.0000 
     35 H          12.2949    9.3648   28.1136 H         1 5YI500      0.0000 
     36 H          15.4302    8.5167   26.5272 H         1 5YI500      0.0000 
     37 H          15.7819    6.9996   24.7097 H         1 5YI500      0.0000 
     38 H          14.0695    7.1032   24.2659 H         1 5YI500      0.0000 
     39 H          14.7974    5.3564   26.1932 H         1 5YI500      0.0000 
     40 H          10.1052    5.7798   26.4136 H         1 5YI500      0.0000 
     41 H          11.5429    4.7980   26.7438 H         1 5YI500      0.0000 
     42 H           8.8992    4.7469   29.5842 H         1 5YI500      0.0000 
     43 H           7.7336    3.8054   28.6383 H         1 5YI500      0.0000 
     44 H           8.8826    2.1379   26.8861 H         1 5YI500      0.0000 
     45 H          10.1585    2.8484   25.8825 H         1 5YI500      0.0000 
     46 H          13.2825    6.9048   29.1926 H         1 5YI500      0.0000 
     47 H          13.4516   11.6159   27.7563 H         1 5YI500      0.0000 
     48 H          12.3766   11.1048   26.4436 H         1 5YI500      0.0000 
     49 H          15.4216   11.1878   26.4714 H         1 5YI500      0.0000 
     50 H          14.3044   11.9508   25.3269 H         1 5YI500      0.0000 
     51 H          14.7916    9.0050   23.0272 H         1 5YI500      0.0000 
     52 H          14.7857   12.0152   23.3576 H         1 5YI500      0.0000 
     53 H          13.1063    9.8335   20.3709 H         1 5YI500      0.0000 
     54 H          14.5724    9.0749   21.0152 H         1 5YI500      0.0000 
     55 H          15.9314    9.9954   19.2837 H         1 5YI500      0.0000 
     56 H          14.9379   13.3101   21.5284 H         1 5YI500      0.0000 
     57 H          13.3457   12.9907   20.8192 H         1 5YI500      0.0000 
     58 H          14.5860   13.6383   18.9600 H         1 5YI500      0.0000 
     59 H          13.8402   10.7294   16.7529 H         1 5YI500      0.0000 
     60 H          14.6127   13.1546   15.9189 H         1 5YI500      0.0000 
     61 H          13.5219   13.6756   17.2145 H         1 5YI500      0.0000 
     62 H          14.4651    4.7593   28.5696 H         1 5YI500      0.0000 
     63 H          13.1537    4.4691   29.4540 H         1 5YI500      0.0000 
     64 H          13.1218    4.2257   27.8646 H         1 5YI500      0.0000 
     65 H           8.4434    6.6911   28.0542 H         1 5YI500      0.0000 
     66 H           7.3820    5.8362   27.2004 H         1 5YI500      0.0000 
     67 H           7.0828    6.1800   28.7426 H         1 5YI500      0.0000 
     68 H           8.4626    4.4851   25.0337 H         1 5YI500      0.0000 
     69 H           7.9816    2.9750   24.7611 H         1 5YI500      0.0000 
     70 H           7.3052    3.8338   25.9405 H         1 5YI500      0.0000 
     71 H          11.8148    9.1032   25.1769 H         1 5YI500      0.0000 
     72 H          12.0055    7.5188   24.9779 H         1 5YI500      0.0000 
     73 H          11.1841    8.0773   26.2427 H         1 5YI500      0.0000 
     74 H          11.1953    2.8036   27.9435 H         1 5YI500      0.0000 
     75 H          13.3850    9.3065   18.1535 H         1 5YI500      0.0000 
     76 H          16.5804   13.5167   20.2541 H         1 5YI500      0.0000 
     77 H          12.9367   11.8609   15.0589 H         1 5YI500      0.0000 
@<TRIPOS>BOND
     1    2    1 1    
     2   18    1 1    
     3   34    1 1    
     4   35    1 1    
     5    3    2 1    
     6   16    2 1    
     7   17    2 1    
     8    4    3 1    
     9   20    3 1    
    10   36    3 1    
    11    5    4 1    
    12   37    4 1    
    13   38    4 1    
    14   16    5 2    
    15   39    5 1    
    16   15    6 1    
    17   62    6 1    
    18   63    6 1    
    19   64    6 1    
    20    8    7 1    
    21   14    7 1    
    22   40    7 1    
    23   41    7 1    
    24   10    8 1    
    25   11    8 1    
    26   13    8 1    
    27   10    9 1    
    28   65    9 1    
    29   66    9 1    
    30   67    9 1    
    31   42   10 1    
    32   43   10 1    
    33   12   11 1    
    34   44   11 1    
    35   45   11 1    
    36   68   12 1    
    37   69   12 1    
    38   70   12 1    
    39   74   13 1    
    40   15   14 1    
    41   16   15 1    
    42   46   15 1    
    43   71   17 1    
    44   72   17 1    
    45   73   17 1    
    46   19   18 1    
    47   47   18 1    
    48   48   18 1    
    49   20   19 1    
    50   49   19 1    
    51   50   19 1    
    52   21   20 2    
    53   22   21 1    
    54   51   21 1    
    55   23   22 2    
    56   52   22 1    
    57   24   23 1    
    58   27   23 1    
    59   25   24 1    
    60   53   24 1    
    61   54   24 1    
    62   26   25 1    
    63   30   25 1    
    64   55   25 1    
    65   75   26 1    
    66   28   27 1    
    67   56   27 1    
    68   57   27 1    
    69   29   28 1    
    70   30   28 1    
    71   58   28 1    
    72   76   29 1    
    73   31   30 2    
    74   32   31 1    
    75   59   31 1    
    76   33   32 1    
    77   60   32 1    
    78   61   32 1    
    79   77   33 1    
@<TRIPOS>SUBSTRUCTURE
     1 5YI500      1 GROUP   
@<TRIPOS>SET

