#    Name: 3mla_JJZ_1_INTS_M
#    Modification time : Mon Mar 24 23:25:48 2014

@<TRIPOS>MOLECULE
3mla_JJZ_1_INTS_M
   70     0     6     0     0
SMALL
NO_CHARGES


@<TRIPOS>ATOM
      1 CA          2.7900  -32.1320  -13.1830 C.3       2 GLC5        0.0000 
      2 CA          4.2440  -32.2900  -11.6960 C.3       6 GLL5        0.0000 
      3 CA          1.3360  -31.9740  -14.6700 C.3       4 GLP5        0.0000 
      4 CA          7.4055  -34.2615   -8.4505 C.3       2 GLC5        0.0000 
      5 CA          5.5530  -35.0870   -9.1990 C.3       6 GLL5        0.0000 
      6 CA          9.2580  -33.4360   -7.7020 C.3       4 GLP5        0.0000 
      7 CA          5.4595  -35.9690   -7.9735 C.3       2 GLC5        0.0000 
      8 CA          5.3660  -36.8510   -6.7480 C.3       4 GLP5        0.0000 
      9 CA          7.9425  -33.1770   -9.0565 C.3       2 GLC5        0.0000 
     10 CA          6.6270  -32.9180  -10.4110 C.3       6 GLL5        0.0000 
     11 O           7.1440  -30.0505  -12.3980 O.2       1 ALC1        0.0000 
     12 O           7.6940  -30.9600  -11.4940 O.2       5 ALL1        0.0000 
     13 O           6.5940  -29.1410  -13.3020 O.2       3 ALP1        0.0000 
     14 CA         11.3645  -31.4770   -9.8425 C.3       2 GLC5        0.0000 
     15 CA         11.3270  -30.8570  -12.0050 C.3       6 GLL5        0.0000 
     16 CA         11.4020  -32.0970   -7.6800 C.3       4 GLP5        0.0000 
     17 CA         12.8740  -30.7435  -10.7950 C.3       2 GLC5        0.0000 
     18 CA         14.4210  -30.6300   -9.5850 C.3       4 GLP5        0.0000 
     19 CA         19.6470  -31.2430  -15.8885 C.3       2 GLC5        0.0000 
     20 CA         19.0920  -32.0770  -13.9800 C.3       6 GLL5        0.0000 
     21 CA         20.2020  -30.4090  -17.7970 C.3       4 GLP5        0.0000 
     22 CA         18.6780  -36.1865  -12.6670 C.3       2 GLC5        0.0000 
     23 CA         18.9230  -34.4700  -14.0300 C.3       6 GLL5        0.0000 
     24 CA         18.4330  -37.9030  -11.3040 C.3       4 GLP5        0.0000 
     25 CA         17.6005  -36.7140  -12.6790 C.3       2 GLC5        0.0000 
     26 CA         16.7680  -35.5250  -14.0540 C.3       6 GLL5        0.0000 
     27 CA          3.3040  -31.5170  -10.6625 C.3       2 GLC5        0.0000 
     28 CA          4.3100  -33.3920  -10.8660 C.3       6 GLL5        0.0000 
     29 CA          2.3310  -30.1930  -10.0440 C.3       4 GLP5        0.0000 
     30 CA          2.9535  -34.1845  -10.6360 C.3       2 GLC5        0.0000 
     31 CA          1.6300  -35.5280   -9.9910 C.3       4 GLP5        0.0000 
     32 CA          4.7973  -30.4905  -10.8415 C.3       2 GLC5        0.0000 
     33 CA          5.3710  -31.5020  -11.8700 C.3       6 GLL5        0.0000 
     34 CA          3.6270  -29.3290  -10.1320 C.3       4 GLP5        0.0000 
     35 CA          3.5777  -34.9615   -9.8530 C.3       2 GLC5        0.0000 
     36 CA          5.4980  -33.7030  -10.2310 C.3       6 GLL5        0.0000 
     37 CA          6.9128  -35.6525   -9.3175 C.3       2 GLC5        0.0000 
     38 CA          8.3000  -36.9100   -8.9200 C.3       4 GLP5        0.0000 
     39 CA          5.7231  -32.8283   -8.2355 C.3       2 GLC5        0.0000 
     40 CA          5.3700  -32.0000   -6.4080 C.3       4 GLP5        0.0000 
     41 CA         10.9825  -29.4460  -10.2673 C.3       2 GLC5        0.0000 
     42 CA          9.9350  -30.3210  -11.8040 C.3       6 GLL5        0.0000 
     43 CA         11.3340  -28.3030   -8.6300 C.3       4 GLP5        0.0000 
     44 CA         10.3115  -30.5140  -13.6572 C.3       2 GLC5        0.0000 
     45 CA          9.9920  -30.4390  -15.4100 C.3       4 GLP5        0.0000 
     46 CA         20.1825  -31.7847  -12.3855 C.3       2 GLC5        0.0000 
     47 CA         20.9680  -30.8710  -10.7780 C.3       4 GLP5        0.0000 
     48 CA         15.5690  -34.2678  -15.6215 C.3       2 GLC5        0.0000 
     49 CA         16.9230  -33.1280  -14.0040 C.3       6 GLL5        0.0000 
     50 CA         14.9110  -35.4570  -17.2410 C.3       4 GLP5        0.0000 
     51 CA         14.7665  -34.0875  -12.5625 C.3       2 GLC5        0.0000 
     52 CA         14.7590  -34.1910  -14.0320 C.3       6 GLL5        0.0000 
     53 CA         14.3880  -34.5650  -11.1090 C.3       4 GLP5        0.0000 
     54 CA         14.4883  -34.8062  -15.6363 C.3       2 GLC5        0.0000 
     55 CA         13.3720  -34.1200  -14.0310 C.3       6 GLL5        0.0000 
     56 CA         13.6623  -32.8890  -15.5448 C.3       2 GLC5        0.0000 
     57 CA         13.0660  -31.9130  -17.0660 C.3       4 GLP5        0.0000 
     58 CA         13.9180  -35.6800  -15.6542 C.3       2 GLC5        0.0000 
     59 CA         12.6160  -35.2820  -14.0560 C.3       6 GLL5        0.0000 
     60 CA         20.9842  -34.5125  -13.0120 C.3       2 GLC5        0.0000 
     61 CA         22.6560  -35.1300  -12.0060 C.3       4 GLP5        0.0000 
     62 CA         17.0000  -34.7960  -12.5532 C.3       2 GLC5        0.0000 
     63 CA         15.9230  -35.4820  -11.0840 C.3       4 GLP5        0.0000 
     64 CA         16.0323  -35.2028  -15.6405 C.3       2 GLC5        0.0000 
     65 CA         17.5390  -34.3720  -14.0260 C.3       6 GLL5        0.0000 
     66 CA         14.9555  -35.7375  -15.6537 C.3       2 GLC5        0.0000 
     67 CA         15.3810  -35.4360  -14.0550 C.3       6 GLL5        0.0000 
     68 CA         15.6349  -35.7611  -12.5751 C.3       2 GLC5        0.0000 
     69 CA         13.7510  -35.0887  -12.5851 C.3       2 GLC5        0.0000 
     70 CA         13.2340  -36.5240  -14.0790 C.3       6 GLL5        0.0000 
@<TRIPOS>BOND
@<TRIPOS>SUBSTRUCTURE
     1 ALC1       11 GROUP        1 X    ALC  0     ROOT ALC X 1
     2 GLC5        1 GROUP        1 X    GLC  0     **** GLC X 6
     3 ALP1       13 GROUP        1 Y    ALP  0     ROOT ALP Y 8
     4 GLP5        3 GROUP        1 Y    GLP  0     **** GLP Y 13
     5 ALL1       12 GROUP        1 Z    ALL  0     ROOT ALL Z 15
     6 GLL5        2 GROUP        1 Z    GLL  0     **** GLL Z 20
@<TRIPOS>SET

