#    Name: 3mla_JJZ_1_ligand
#    Modification time : Mon Mar 24 23:25:48 2014

@<TRIPOS>MOLECULE
3mla_JJZ_1_ligand
   51    54     1     0     0
SMALL
NO_CHARGES


@<TRIPOS>ATOM
      1 CAA         4.3100  -33.3920  -10.8660 C.ar      1 JJZ190      0.0000 
      2 CAB         4.2440  -32.2900  -11.6960 C.ar      1 JJZ190      0.0000 
      3 CAC         5.3710  -31.5020  -11.8700 C.ar      1 JJZ190      0.0000 
      4 OAD         9.6090  -32.5390  -11.1240 O.2       1 JJZ190      0.0000 
      5 OAE        11.7020  -28.6140  -12.4240 O.2       1 JJZ190      0.0000 
      6 CLAF        5.5530  -35.0870   -9.1990 Cl        1 JJZ190      0.0000 
      7 CAG         5.4980  -33.7030  -10.2310 C.ar      1 JJZ190      0.0000 
      8 CAH         6.6270  -32.9180  -10.4110 C.ar      1 JJZ190      0.0000 
      9 CAI         6.5640  -31.8020  -11.2320 C.ar      1 JJZ190      0.0000 
     10 NAJ         7.6940  -30.9600  -11.4940 N.am      1 JJZ190      0.0000 
     11 CAK         8.9560  -31.4180  -11.4680 C.2       1 JJZ190      0.0000 
     12 CAL         9.9350  -30.3210  -11.8040 C.3       1 JJZ190      0.0000 
     13 CAM        11.3270  -30.8570  -12.0050 C.3       1 JJZ190      0.0000 
     14 CAN        12.3150  -29.8010  -12.4170 C.2       1 JJZ190      0.0000 
     15 NAO        13.5450  -30.3100  -12.6730 N.am      1 JJZ190      0.0000 
     16 NAP        13.7460  -31.4480  -13.3670 N.2       1 JJZ190      0.0000 
     17 CAQ        14.8880  -31.6800  -13.9670 C.2       1 JJZ190      0.0000 
     18 CAR        19.0920  -32.0770  -13.9800 C.ar      1 JJZ190      0.0000 
     19 CAS        17.7070  -31.9830  -13.9820 C.ar      1 JJZ190      0.0000 
     20 CAT        16.9230  -33.1280  -14.0040 C.ar      1 JJZ190      0.0000 
     21 CAU        15.5310  -33.0290  -14.0000 C.ar      1 JJZ190      0.0000 
     22 CAV        14.7590  -34.1910  -14.0320 C.ar      1 JJZ190      0.0000 
     23 CAW        13.3720  -34.1200  -14.0310 C.ar      1 JJZ190      0.0000 
     24 CAX        12.6160  -35.2820  -14.0560 C.ar      1 JJZ190      0.0000 
     25 CAY        19.7020  -33.3200  -14.0060 C.ar      1 JJZ190      0.0000 
     26 CAZ        18.9230  -34.4700  -14.0300 C.ar      1 JJZ190      0.0000 
     27 CBA        17.5390  -34.3720  -14.0260 C.ar      1 JJZ190      0.0000 
     28 CBB        16.7680  -35.5250  -14.0540 C.ar      1 JJZ190      0.0000 
     29 CBC        15.3810  -35.4360  -14.0550 C.ar      1 JJZ190      0.0000 
     30 CBD        14.6190  -36.6000  -14.0780 C.ar      1 JJZ190      0.0000 
     31 CBE        13.2340  -36.5240  -14.0790 C.ar      1 JJZ190      0.0000 
     32 H           3.4776  -33.9802  -10.7203 H         1 JJZ190      0.0000 
     33 H           3.3703  -32.0550  -12.1801 H         1 JJZ190      0.0000 
     34 H           5.3202  -30.6706  -12.4906 H         1 JJZ190      0.0000 
     35 H           7.5060  -33.1620   -9.9384 H         1 JJZ190      0.0000 
     36 H           7.4877  -29.9561  -11.7099 H         1 JJZ190      0.0000 
     37 H           9.9429  -29.5818  -10.9929 H         1 JJZ190      0.0000 
     38 H           9.6061  -29.8095  -12.7176 H         1 JJZ190      0.0000 
     39 H          11.3022  -31.6504  -12.7725 H         1 JJZ190      0.0000 
     40 H          11.6712  -31.3310  -11.0690 H         1 JJZ190      0.0000 
     41 H          14.3930  -29.7821  -12.3061 H         1 JJZ190      0.0000 
     42 H          15.4341  -30.9376  -14.4674 H         1 JJZ190      0.0000 
     43 H          19.6646  -31.2214  -13.9592 H         1 JJZ190      0.0000 
     44 H          17.2566  -31.0538  -13.9670 H         1 JJZ190      0.0000 
     45 H          12.9051  -33.2021  -14.0116 H         1 JJZ190      0.0000 
     46 H          11.5847  -35.2230  -14.0575 H         1 JJZ190      0.0000 
     47 H          20.7271  -33.3935  -14.0076 H         1 JJZ190      0.0000 
     48 H          19.3737  -35.3953  -14.0508 H         1 JJZ190      0.0000 
     49 H          17.2228  -36.4485  -14.0741 H         1 JJZ190      0.0000 
     50 H          15.0853  -37.5173  -14.0943 H         1 JJZ190      0.0000 
     51 H          12.6696  -37.3813  -14.0966 H         1 JJZ190      0.0000 
@<TRIPOS>BOND
     1    2    1 ar   
     2    7    1 ar   
     3   32    1 1    
     4    3    2 ar   
     5   33    2 1    
     6    9    3 ar   
     7   34    3 1    
     8   11    4 2    
     9   14    5 2    
    10    7    6 1    
    11    8    7 ar   
    12    9    8 ar   
    13   35    8 1    
    14   10    9 1    
    15   11   10 am   
    16   36   10 1    
    17   12   11 1    
    18   13   12 1    
    19   37   12 1    
    20   38   12 1    
    21   14   13 1    
    22   39   13 1    
    23   40   13 1    
    24   15   14 am   
    25   16   15 1    
    26   41   15 1    
    27   17   16 2    
    28   21   17 1    
    29   42   17 1    
    30   19   18 ar   
    31   25   18 ar   
    32   43   18 1    
    33   20   19 ar   
    34   44   19 1    
    35   21   20 ar   
    36   27   20 ar   
    37   22   21 ar   
    38   23   22 ar   
    39   29   22 ar   
    40   24   23 ar   
    41   45   23 1    
    42   31   24 ar   
    43   46   24 1    
    44   26   25 ar   
    45   47   25 1    
    46   27   26 ar   
    47   48   26 1    
    48   28   27 ar   
    49   29   28 ar   
    50   49   28 1    
    51   30   29 ar   
    52   31   30 ar   
    53   50   30 1    
    54   51   31 1    
@<TRIPOS>SUBSTRUCTURE
     1 JJZ190      1 GROUP   
@<TRIPOS>SET

