#    Name: 3nay_MP6_2_INTS_M
#    Modification time : Tue Mar 25 01:10:37 2014

@<TRIPOS>MOLECULE
3nay_MP6_2_INTS_M
   78     0     9     0     0
SMALL
NO_CHARGES


@<TRIPOS>ATOM
      1 N          -7.6460  -61.8740    1.7490 N.am      2 SEC2        0.0000 
      2 N          -6.7680  -60.9380    2.5640 N.am      8 SEL2        0.0000 
      3 N          -8.5240  -62.8100    0.9340 N.am      5 SEP2        0.0000 
      4 CA         -3.6510  -55.1545    3.1480 C.3       3 GLC5        0.0000 
      5 CA         -5.4360  -55.6260    1.9810 C.3       9 GLL5        0.0000 
      6 CA         -1.8660  -54.6830    4.3150 C.3       6 GLP5        0.0000 
      7 CA         -4.8575  -59.9345    3.1630 C.3       3 GLC5        0.0000 
      8 CA         -6.7070  -58.7840    3.7120 C.3       9 GLL5        0.0000 
      9 CA         -3.0080  -61.0850    2.6140 C.3       6 GLP5        0.0000 
     10 CA        -10.1725  -52.7745    5.1065 C.3       3 GLC5        0.0000 
     11 CA         -8.1820  -53.4240    5.7470 C.3       9 GLL5        0.0000 
     12 CA        -12.1630  -52.1250    4.4660 C.3       6 GLP5        0.0000 
     13 CA         -8.8575  -54.6190    3.9660 C.3       3 GLC5        0.0000 
     14 CA         -9.5330  -55.8140    2.1850 C.3       6 GLP5        0.0000 
     15 CA         -4.4425  -52.3500    9.2040 C.3       3 GLC5        0.0000 
     16 CA         -6.1080  -53.2540    8.1610 C.3       9 GLL5        0.0000 
     17 CA         -2.7770  -51.4460   10.2470 C.3       6 GLP5        0.0000 
     18 CA         -3.2175  -54.7010    5.6165 C.3       3 GLC5        0.0000 
     19 CA         -4.5690  -54.7190    6.9180 C.3       9 GLL5        0.0000 
     20 CA         -2.6370  -53.6695    7.1035 C.3       3 GLC5        0.0000 
     21 CA         -0.7050  -52.6200    7.2890 C.3       6 GLP5        0.0000 
     22 CA         -4.1980  -56.3155    7.5370 C.3       3 GLC5        0.0000 
     23 CA         -3.8270  -57.9120    8.1560 C.3       6 GLP5        0.0000 
     24 CA         -3.4515  -53.5385    5.1510 C.3       3 GLC5        0.0000 
     25 CA         -5.0370  -52.3940    5.9870 C.3       9 GLL5        0.0000 
     26 CA         -9.9370  -57.1660    8.2950 C.3       3 GLC5        0.0000 
     27 CA         -8.2620  -57.1580    9.6760 C.3       9 GLL5        0.0000 
     28 CA        -11.6120  -57.1740    6.9140 C.3       6 GLP5        0.0000 
     29 CA         -5.4595  -57.1730    9.2280 C.3       3 GLC5        0.0000 
     30 CA         -7.0920  -56.4340   10.3000 C.3       9 GLL5        0.0000 
     31 CA         -6.1930  -57.4925   11.6810 C.3       3 GLC5        0.0000 
     32 CA         -5.2940  -58.5510   13.0620 C.3       6 GLP5        0.0000 
     33 CA         -9.4650  -55.8680    7.9330 C.3       3 GLC5        0.0000 
     34 CA         -8.1640  -55.6470    9.6270 C.3       9 GLL5        0.0000 
     35 CA        -10.7660  -56.0890    6.2390 C.3       6 GLP5        0.0000 
     36 O          -5.0695  -60.1320   -3.5255 O.2       1 ALC1        0.0000 
     37 O          -4.2190  -59.4150   -2.5830 O.2       7 ALL1        0.0000 
     38 O          -5.9200  -60.8490   -4.4680 O.2       4 ALP1        0.0000 
     39 CA         -5.9410  -60.8695   -2.2990 C.3       3 GLC5        0.0000 
     40 CA         -4.9480  -59.2290   -1.4830 C.3       9 GLL5        0.0000 
     41 CA         -6.9340  -62.5100   -3.1150 C.3       6 GLP5        0.0000 
     42 CA         -4.1405  -57.9608    2.5877 C.3       3 GLC5        0.0000 
     43 CA         -6.0020  -56.5020    2.9770 C.3       9 GLL5        0.0000 
     44 CA         -2.2140  -58.7100    2.3420 C.3       6 GLP5        0.0000 
     45 CA         -8.2437  -58.1632    3.2380 C.3       3 GLC5        0.0000 
     46 CA         -6.1320  -57.9210    2.6900 C.3       9 GLL5        0.0000 
     47 CA        -10.0680  -57.9740    3.2750 C.3       6 GLP5        0.0000 
     48 CA         -3.7948  -58.3122    1.6330 C.3       3 GLC5        0.0000 
     49 CA         -5.6640  -58.3490    1.3990 C.3       9 GLL5        0.0000 
     50 CA         -6.2468  -56.8355   -0.9557 C.3       3 GLC5        0.0000 
     51 CA         -5.0870  -57.4800    0.4490 C.3       9 GLL5        0.0000 
     52 CA         -7.4610  -56.8740   -2.5100 C.3       6 GLP5        0.0000 
     53 CA         -3.7105  -57.2900    1.8533 C.3       3 GLC5        0.0000 
     54 CA         -4.9780  -56.1140    0.7480 C.3       9 GLL5        0.0000 
     55 CA         -6.3880  -54.3425    0.6148 C.3       3 GLC5        0.0000 
     56 CA         -7.5690  -52.8150   -0.1350 C.3       6 GLP5        0.0000 
     57 CA         -7.6814  -55.8811    2.4925 C.3       3 GLC5        0.0000 
     58 CA         -8.7190  -58.2777    4.3975 C.3       3 GLC5        0.0000 
     59 CA         -7.0720  -58.1960    4.9550 C.3       9 GLL5        0.0000 
     60 CA         -9.0680  -57.3353    5.8795 C.3       3 GLC5        0.0000 
     61 CA         -5.4514  -59.1568    5.7606 C.3       3 GLC5        0.0000 
     62 CA         -7.6680  -58.9670    6.0850 C.3       9 GLL5        0.0000 
     63 CA         -3.6240  -59.5850    6.3120 C.3       6 GLP5        0.0000 
     64 CA         -7.4817  -59.9965    8.2380 C.3       3 GLC5        0.0000 
     65 CA         -7.1850  -61.3300    9.7610 C.3       6 GLP5        0.0000 
     66 CA         -9.1480  -54.9567    6.0347 C.3       3 GLC5        0.0000 
     67 CA         -6.8780  -54.2250    5.9140 C.3       9 GLL5        0.0000 
     68 CA         -5.9043  -58.0067    8.0177 C.3       3 GLC5        0.0000 
     69 CA         -7.8890  -58.3590    7.3450 C.3       9 GLL5        0.0000 
     70 CA         -9.3738  -57.0953    7.0592 C.3       3 GLC5        0.0000 
     71 CA         -7.6765  -59.4155    9.4030 C.3       3 GLC5        0.0000 
     72 CA         -8.0740  -57.8440    8.4140 C.3       9 GLL5        0.0000 
     73 CA         -9.8275  -55.4162   10.0092 C.3       3 GLC5        0.0000 
     74 CA        -11.4420  -54.4300   10.3670 C.3       6 GLP5        0.0000 
     75 CA         -3.2660  -59.5490   -0.2825 C.3       3 GLC5        0.0000 
     76 CA         -4.5980  -58.0470   -0.7870 C.3       9 GLL5        0.0000 
     77 CA         -1.7590  -60.4600    0.5700 C.3       6 GLP5        0.0000 
     78 CA         -6.1170  -57.7560   -1.8225 C.3       3 GLC5        0.0000 
@<TRIPOS>BOND
@<TRIPOS>SUBSTRUCTURE
     1 ALC1       36 GROUP        1 X    ALC  0     ROOT ALC X 1
     2 SEC2        1 GROUP        1 X    SEC  0     **** SEC X 2
     3 GLC5        4 GROUP        1 X    GLC  0     **** GLC X 6
     4 ALP1       38 GROUP        1 Y    ALP  0     ROOT ALP Y 8
     5 SEP2        3 GROUP        1 Y    SEP  0     **** SEP Y 9
     6 GLP5        6 GROUP        1 Y    GLP  0     **** GLP Y 13
     7 ALL1       37 GROUP        1 Z    ALL  0     ROOT ALL Z 15
     8 SEL2        2 GROUP        1 Z    SEL  0     **** SEL Z 16
     9 GLL5        5 GROUP        1 Z    GLL  0     **** GLL Z 20
@<TRIPOS>SET

