#    Name: 3nay_MP6_2_ligand
#    Modification time : Tue Mar 25 01:10:37 2014

@<TRIPOS>MOLECULE
3nay_MP6_2_ligand
   61    65     1     0     0
SMALL
NO_CHARGES


@<TRIPOS>ATOM
      1 C          -6.4450  -56.0390    4.2610 C.ar      1 MP62        0.0000 
      2 N          -6.9060  -56.8940    5.1990 N.ar      1 MP62        0.0000 
      3 O          -6.7680  -60.9380    2.5640 O.2       1 MP62        0.0000 
      4 C1         -6.0020  -56.5020    2.9770 C.ar      1 MP62        0.0000 
      5 C2         -6.1320  -57.9210    2.6900 C.ar      1 MP62        0.0000 
      6 C3         -5.6640  -58.3490    1.3990 C.ar      1 MP62        0.0000 
      7 C4         -5.0870  -57.4800    0.4490 C.ar      1 MP62        0.0000 
      8 C5         -4.9780  -56.1140    0.7480 C.ar      1 MP62        0.0000 
      9 C6         -5.4360  -55.6260    1.9810 C.ar      1 MP62        0.0000 
     10 C7         -6.7070  -58.7840    3.7120 C.ar      1 MP62        0.0000 
     11 C8         -7.0720  -58.1960    4.9550 C.ar      1 MP62        0.0000 
     12 C9         -7.6680  -58.9670    6.0850 C.2       1 MP62        0.0000 
     13 C10        -7.8920  -60.2920    5.9110 C.2       1 MP62        0.0000 
     14 N11        -7.5980  -60.9140    4.7120 N.2       1 MP62        0.0000 
     15 C12        -6.9840  -60.2900    3.5900 C.2       1 MP62        0.0000 
     16 N13        -6.4050  -54.6940    4.6050 N.pl3     1 MP62        0.0000 
     17 C14        -6.8780  -54.2250    5.9140 C.3       1 MP62        0.0000 
     18 C15        -8.1820  -53.4240    5.7470 C.3       1 MP62        0.0000 
     19 C16        -5.6580  -53.6270    6.7400 C.3       1 MP62        0.0000 
     20 C17        -6.1080  -53.2540    8.1610 C.3       1 MP62        0.0000 
     21 C18        -4.5690  -54.7190    6.9180 C.3       1 MP62        0.0000 
     22 C19        -5.0370  -52.3940    5.9870 C.3       1 MP62        0.0000 
     23 C20        -7.8890  -58.3590    7.3450 C.2       1 MP62        0.0000 
     24 C21        -8.0740  -57.8440    8.4140 C.3       1 MP62        0.0000 
     25 C22        -8.2620  -57.1580    9.6760 C.3       1 MP62        0.0000 
     26 C23        -7.0920  -56.4340   10.3000 C.3       1 MP62        0.0000 
     27 C24        -8.1640  -55.6470    9.6270 C.3       1 MP62        0.0000 
     28 C25        -4.5980  -58.0470   -0.7870 C.2       1 MP62        0.0000 
     29 C26        -3.5660  -57.5150   -1.5430 C.2       1 MP62        0.0000 
     30 N27        -3.3880  -58.3560   -2.5880 N.2       1 MP62        0.0000 
     31 N28        -4.2190  -59.4150   -2.5830 N.pl3     1 MP62        0.0000 
     32 C29        -4.9480  -59.2290   -1.4830 C.2       1 MP62        0.0000 
     33 H          -5.7616  -59.3606    1.1624 H         1 MP62        0.0000 
     34 H          -4.5636  -55.4719    0.0655 H         1 MP62        0.0000 
     35 H          -5.3739  -54.6214    2.1958 H         1 MP62        0.0000 
     36 H          -8.2924  -60.8624    6.6871 H         1 MP62        0.0000 
     37 H          -6.0438  -53.9868    3.9552 H         1 MP62        0.0000 
     38 H          -7.1666  -55.1795    6.4825 H         1 MP62        0.0000 
     39 H          -7.8770  -58.3900    7.2813 H         1 MP62        0.0000 
     40 H          -7.8306  -59.0985    9.1649 H         1 MP62        0.0000 
     41 H          -9.3956  -58.4887    8.6003 H         1 MP62        0.0000 
     42 H          -8.8756  -57.3541   10.3964 H         1 MP62        0.0000 
     43 H          -6.3505  -56.5095    9.7082 H         1 MP62        0.0000 
     44 H          -7.2340  -56.4026   11.2405 H         1 MP62        0.0000 
     45 H          -8.7478  -55.2962   10.2905 H         1 MP62        0.0000 
     46 H          -7.8644  -55.4032    8.7582 H         1 MP62        0.0000 
     47 H          -3.0925  -56.7208   -1.3504 H         1 MP62        0.0000 
     48 H          -4.2667  -60.1126   -3.2084 H         1 MP62        0.0000 
     49 H          -5.6618  -59.8229   -1.1531 H         1 MP62        0.0000 
     50 H          -8.0542  -52.6246    5.1600 H         1 MP62        0.0000 
     51 H          -8.9072  -53.9765    5.3361 H         1 MP62        0.0000 
     52 H          -8.5283  -53.0912    6.6241 H         1 MP62        0.0000 
     53 H          -5.3564  -52.8754    8.7012 H         1 MP62        0.0000 
     54 H          -6.8366  -52.5691    8.1521 H         1 MP62        0.0000 
     55 H          -6.4573  -54.0470    8.6601 H         1 MP62        0.0000 
     56 H          -4.2227  -55.0450    6.0383 H         1 MP62        0.0000 
     57 H          -3.7831  -54.3791    7.4346 H         1 MP62        0.0000 
     58 H          -4.9196  -55.5166    7.4088 H         1 MP62        0.0000 
     59 H          -4.2667  -52.0014    6.4895 H         1 MP62        0.0000 
     60 H          -4.6982  -52.6448    5.0802 H         1 MP62        0.0000 
     61 H          -5.7062  -51.6622    5.8578 H         1 MP62        0.0000 
@<TRIPOS>BOND
     1    2    1 ar   
     2    4    1 ar   
     3   16    1 1    
     4   11    2 ar   
     5   15    3 2    
     6    5    4 ar   
     7    9    4 ar   
     8    6    5 ar   
     9   10    5 ar   
    10    7    6 ar   
    11   33    6 1    
    12    8    7 ar   
    13   28    7 1    
    14    9    8 ar   
    15   34    8 1    
    16   35    9 1    
    17   11   10 ar   
    18   15   10 1    
    19   12   11 1    
    20   13   12 1    
    21   23   12 2    
    22   14   13 2    
    23   36   13 1    
    24   15   14 1    
    25   17   16 1    
    26   37   16 1    
    27   18   17 1    
    28   19   17 1    
    29   38   17 1    
    30   50   18 1    
    31   51   18 1    
    32   52   18 1    
    33   20   19 1    
    34   21   19 1    
    35   22   19 1    
    36   53   20 1    
    37   54   20 1    
    38   55   20 1    
    39   56   21 1    
    40   57   21 1    
    41   58   21 1    
    42   59   22 1    
    43   60   22 1    
    44   61   22 1    
    45   24   23 1    
    46   39   23 1    
    47   25   24 1    
    48   40   24 1    
    49   41   24 1    
    50   26   25 1    
    51   27   25 1    
    52   42   25 1    
    53   27   26 1    
    54   43   26 1    
    55   44   26 1    
    56   45   27 1    
    57   46   27 1    
    58   29   28 1    
    59   32   28 2    
    60   30   29 2    
    61   47   29 1    
    62   31   30 1    
    63   32   31 1    
    64   48   31 1    
    65   49   32 1    
@<TRIPOS>SUBSTRUCTURE
     1 MP62        1 GROUP   
@<TRIPOS>SET

