#    Name: 1ps9_FAD_2_INTS_M
#    Modification time : Mon Mar 24 22:13:06 2014

@<TRIPOS>MOLECULE
1ps9_FAD_2_INTS_M
  131     0     9     0     0
SMALL
NO_CHARGES


@<TRIPOS>ATOM
      1 N           8.3020   28.2010   30.3760 N.am      2 SEC2        0.0000 
      2 N           7.2530   27.2980   30.6520 N.am      8 SEL2        0.0000 
      3 N           9.3510   29.1040   30.1000 N.am      5 SEP2        0.0000 
      4 N           8.5455   26.4015   33.2255 N.am      2 SEC2        0.0000 
      5 N           7.4810   27.3250   33.0610 N.am      8 SEL2        0.0000 
      6 N           9.6100   25.4780   33.3900 N.am      5 SEP2        0.0000 
      7 CA          3.1180   28.5760   34.6110 C.3       3 GLC5        0.0000 
      8 CA          4.6860   29.0360   33.1910 C.3       9 GLL5        0.0000 
      9 CA          1.5500   28.1160   36.0310 C.3       6 GLP5        0.0000 
     10 CA          4.9365   28.0935   34.5995 C.3       3 GLC5        0.0000 
     11 CA          5.1870   27.1510   36.0080 C.3       6 GLP5        0.0000 
     12 CA          2.4280   30.6365   32.5580 C.3       3 GLC5        0.0000 
     13 CA          4.2600   30.4440   32.9100 C.3       9 GLL5        0.0000 
     14 CA          0.5960   30.8290   32.2060 C.3       6 GLP5        0.0000 
     15 CA          6.4650   31.0080   31.3860 C.3       3 GLC5        0.0000 
     16 CA          5.4510   31.4150   33.0630 C.3       9 GLL5        0.0000 
     17 CA          7.4790   30.6010   29.7090 C.3       6 GLP5        0.0000 
     18 O           4.5500   32.6335   31.2790 O.2       1 ALC1        0.0000 
     19 O           5.8280   31.9520   31.7690 O.2       7 ALL1        0.0000 
     20 O           3.2720   33.3150   30.7890 O.2       4 ALP1        0.0000 
     21 O           4.4865   34.6460   32.2230 O.2       1 ALC1        0.0000 
     22 O           4.9020   33.9560   33.3310 O.2       7 ALL1        0.0000 
     23 O           4.0710   35.3360   31.1150 O.2       4 ALP1        0.0000 
     24 O           4.0870   33.6355   32.0600 O.2       1 ALC1        0.0000 
     25 CA          2.0185   31.5135   33.2235 C.3       3 GLC5        0.0000 
     26 CA          3.4410   32.1980   34.2410 C.3       9 GLL5        0.0000 
     27 CA          1.1970   35.7425   38.8625 C.3       3 GLC5        0.0000 
     28 CA          0.8110   33.6940   38.1500 C.3       9 GLL5        0.0000 
     29 CA          1.5830   37.7910   39.5750 C.3       6 GLP5        0.0000 
     30 O          -0.9160   34.4010   39.8020 O.2       1 ALC1        0.0000 
     31 O           0.5120   33.6440   39.5180 O.2       7 ALL1        0.0000 
     32 O          -2.3440   35.1580   40.0860 O.2       4 ALP1        0.0000 
     33 N          -0.8095   35.7410   37.5500 N.am      2 SEC2        0.0000 
     34 N           0.1140   34.5450   37.2960 N.am      8 SEL2        0.0000 
     35 N          -1.7330   36.9370   37.8040 N.am      5 SEP2        0.0000 
     36 CA         -0.8295   33.1395   35.9405 C.3       3 GLC5        0.0000 
     37 CA          0.4080   34.6090   35.9000 C.3       9 GLL5        0.0000 
     38 CA         -2.0670   31.6700   35.9810 C.3       6 GLP5        0.0000 
     39 CA          0.7290   35.1090   33.8545 C.3       3 GLC5        0.0000 
     40 CA          1.0500   35.6090   31.8090 C.3       6 GLP5        0.0000 
     41 CA          2.0195   35.9200   35.7155 C.3       3 GLC5        0.0000 
     42 CA          3.6310   37.2310   35.5310 C.3       6 GLP5        0.0000 
     43 CA          0.3070   36.4875   36.7255 C.3       3 GLC5        0.0000 
     44 CA          0.2060   38.3660   37.5510 C.3       6 GLP5        0.0000 
     45 CA         -1.6035   35.3190   35.8845 C.3       3 GLC5        0.0000 
     46 CA         -3.6150   36.0290   35.8690 C.3       6 GLP5        0.0000 
     47 N           1.9365   35.2355   34.3715 N.am      2 SEC2        0.0000 
     48 N           1.4090   33.8360   35.2610 N.am      8 SEL2        0.0000 
     49 N           2.4640   36.6350   33.4820 N.am      5 SEP2        0.0000 
     50 N          10.6515   20.3780   27.7145 N.am      2 SEC2        0.0000 
     51 N          12.1600   20.9120   27.5520 N.am      8 SEL2        0.0000 
     52 N           9.1430   19.8440   27.8770 N.am      5 SEP2        0.0000 
     53 N          11.7650   18.0345   25.6565 N.am      2 SEC2        0.0000 
     54 N          11.3240   19.2580   26.2700 N.am      8 SEL2        0.0000 
     55 N          12.2060   16.8110   25.0430 N.am      5 SEP2        0.0000 
     56 N          10.2335   19.5510   27.0735 N.am      2 SEC2        0.0000 
     57 O          13.4830   19.1775   24.7810 O.2       1 ALC1        0.0000 
     58 O          13.4720   20.1480   25.7050 O.2       7 ALL1        0.0000 
     59 O          13.4940   18.2070   23.8570 O.2       4 ALP1        0.0000 
     60 N          16.9045   21.3725   25.3355 N.am      2 SEC2        0.0000 
     61 N          15.6210   21.0090   25.1170 N.am      8 SEL2        0.0000 
     62 N          18.1880   21.7360   25.5540 N.am      5 SEP2        0.0000 
     63 CA         18.1925   25.8285   27.7205 C.3       3 GLC5        0.0000 
     64 CA         16.5620   24.6630   28.6710 C.3       9 GLL5        0.0000 
     65 CA         19.8230   26.9940   26.7700 C.3       6 GLP5        0.0000 
     66 CA         18.7450   24.2610   28.7465 C.3       3 GLC5        0.0000 
     67 CA         20.9280   23.8590   28.8220 C.3       6 GLP5        0.0000 
     68 CA         19.2315   27.0640   28.8815 C.3       3 GLC5        0.0000 
     69 CA         17.7960   26.5010   29.9050 C.3       9 GLL5        0.0000 
     70 CA         20.6670   27.6270   27.8580 C.3       6 GLP5        0.0000 
     71 CA         18.9005   27.4870   30.7800 C.3       3 GLC5        0.0000 
     72 CA         20.0050   28.4730   31.6550 C.3       6 GLP5        0.0000 
     73 CA         19.3620   25.1800   29.3635 C.3       3 GLC5        0.0000 
     74 CA         13.0730   27.0110   31.3800 C.3       3 GLC5        0.0000 
     75 CA         15.2160   26.6480   31.9350 C.3       9 GLL5        0.0000 
     76 CA         10.9300   27.3740   30.8250 C.3       6 GLP5        0.0000 
     77 CA         15.7115   26.9645   33.7065 C.3       3 GLC5        0.0000 
     78 CA         16.2070   27.2810   35.4780 C.3       6 GLP5        0.0000 
     79 CA         15.6540   25.1200   33.1710 C.3       3 GLC5        0.0000 
     80 CA         16.0920   23.5920   34.4070 C.3       6 GLP5        0.0000 
     81 CA         12.5715   26.0945   30.6845 C.3       3 GLC5        0.0000 
     82 CA         14.2130   24.8150   30.5440 C.3       9 GLL5        0.0000 
     83 CA         14.4500   25.2050   27.7970 C.3       3 GLC5        0.0000 
     84 CA         14.1800   23.8150   29.4180 C.3       9 GLL5        0.0000 
     85 CA         14.7200   26.5950   26.1760 C.3       6 GLP5        0.0000 
     86 CA         12.9200   21.2465   31.0970 C.3       3 GLC5        0.0000 
     87 CA         11.7620   22.7300   29.9210 C.3       9 GLL5        0.0000 
     88 CA         14.0780   19.7630   32.2730 C.3       6 GLP5        0.0000 
     89 CA          9.8535   22.4340   27.4240 C.3       3 GLC5        0.0000 
     90 CA         10.7790   23.5300   28.8820 C.3       9 GLL5        0.0000 
     91 CA          8.9280   21.3380   25.9660 C.3       6 GLP5        0.0000 
     92 CA          7.6440   24.2620   28.2730 C.3       3 GLC5        0.0000 
     93 CA          9.1660   23.6450   29.3990 C.3       9 GLL5        0.0000 
     94 CA          6.1220   24.8790   27.1470 C.3       6 GLP5        0.0000 
     95 CA          8.6745   22.0680   28.1950 C.3       3 GLC5        0.0000 
     96 CA          8.1830   20.4910   26.9910 C.3       6 GLP5        0.0000 
     97 O           8.2490   20.4360   30.0185 O.2       1 ALC1        0.0000 
     98 O           8.9170   21.6890   30.7010 O.2       7 ALL1        0.0000 
     99 O           7.5810   19.1830   29.3360 O.2       4 ALP1        0.0000 
    100 CA          6.6375   24.0875   29.0280 C.3       3 GLC5        0.0000 
    101 CA          7.1530   23.2960   30.9090 C.3       9 GLL5        0.0000 
    102 CA          6.6765   21.4465   31.5745 C.3       3 GLC5        0.0000 
    103 CA          6.2000   19.5970   32.2400 C.3       6 GLP5        0.0000 
    104 CA          5.9165   22.1840   29.8785 C.3       3 GLC5        0.0000 
    105 CA          4.6800   21.0720   28.8480 C.3       6 GLP5        0.0000 
    106 N           3.4765   25.0470   29.0300 N.am      2 SEC2        0.0000 
    107 N           4.2640   25.4030   30.1920 N.am      8 SEL2        0.0000 
    108 N           2.6890   24.6910   27.8680 N.am      5 SEP2        0.0000 
    109 N           4.3490   22.8800   33.0930 N.am      2 SEC2        0.0000 
    110 N           4.4850   23.8790   32.1420 N.am      8 SEL2        0.0000 
    111 N           4.2130   21.8810   34.0440 N.am      5 SEP2        0.0000 
    112 N           3.3490   24.1085   32.9980 N.am      2 SEC2        0.0000 
    113 N           2.2130   24.3380   33.8540 N.am      5 SEP2        0.0000 
    114 CA          6.3438   33.4868   32.9922 C.3       3 GLC5        0.0000 
    115 CA          7.5090   34.9770   32.4760 C.3       6 GLP5        0.0000 
    116 CA         -0.1813   32.4109   36.4693 C.3       3 GLC5        0.0000 
    117 CA          1.8730   32.8590   37.5200 C.3       9 GLL5        0.0000 
    118 CA         15.3513   25.3987   27.3675 C.3       3 GLC5        0.0000 
    119 CA         15.4030   23.7420   28.4470 C.3       9 GLL5        0.0000 
    120 CA         16.9015   27.9902   30.1818 C.3       3 GLC5        0.0000 
    121 CA         16.5880   25.6280   29.7660 C.3       9 GLL5        0.0000 
    122 CA         16.6110   29.9160   30.5280 C.3       6 GLP5        0.0000 
    123 CA         16.5130   26.8358   28.1463 C.3       3 GLC5        0.0000 
    124 CA         15.8340   27.6070   26.4570 C.3       6 GLP5        0.0000 
    125 CA         15.9467   28.0438   30.9320 C.3       3 GLC5        0.0000 
    126 CA         15.3490   25.6950   30.7370 C.3       9 GLL5        0.0000 
    127 CA         16.0604   24.1836   31.8589 C.3       3 GLC5        0.0000 
    128 CA         17.0300   23.1290   33.3200 C.3       6 GLP5        0.0000 
    129 CA         10.4512   25.4808   29.9828 C.3       3 GLC5        0.0000 
    130 CA         10.0823   24.0888   27.1878 C.3       3 GLC5        0.0000 
    131 CA         10.1920   24.5900   25.2350 C.3       6 GLP5        0.0000 
@<TRIPOS>BOND
@<TRIPOS>SUBSTRUCTURE
     1 ALC1       18 GROUP        1 X    ALC  0     ROOT ALC X 1
     2 SEC2        1 GROUP        1 X    SEC  0     **** SEC X 2
     3 GLC5        7 GROUP        1 X    GLC  0     **** GLC X 6
     4 ALP1       20 GROUP        1 Y    ALP  0     ROOT ALP Y 8
     5 SEP2        3 GROUP        1 Y    SEP  0     **** SEP Y 9
     6 GLP5        9 GROUP        1 Y    GLP  0     **** GLP Y 13
     7 ALL1       19 GROUP        1 Z    ALL  0     ROOT ALL Z 15
     8 SEL2        2 GROUP        1 Z    SEL  0     **** SEL Z 16
     9 GLL5        8 GROUP        1 Z    GLL  0     **** GLL Z 20
@<TRIPOS>SET

