#    Name: 1ps9_FAD_2_ligand
#    Modification time : Mon Mar 24 22:13:06 2014

@<TRIPOS>MOLECULE
1ps9_FAD_2_ligand
   84    89     1     0     0
SMALL
NO_CHARGES


@<TRIPOS>ATOM
      1 PA          6.5220   27.3110   31.9550 P.3       1 FAD701      0.0000 
      2 O1A         7.2530   27.2980   30.6520 O.co2     1 FAD701      0.0000 
      3 O2A         7.4810   27.3250   33.0610 O.co2     1 FAD701      0.0000 
      4 O5B         5.5610   28.6000   32.1220 O.3       1 FAD701      0.0000 
      5 C5B         4.6860   29.0360   33.1910 C.3       1 FAD701      0.0000 
      6 C4B         4.2600   30.4440   32.9100 C.3       1 FAD701      0.0000 
      7 O4B         3.1340   30.9560   33.6230 O.3       1 FAD701      0.0000 
      8 C3B         5.4510   31.4150   33.0630 C.3       1 FAD701      0.0000 
      9 O3B         5.8280   31.9520   31.7690 O.3       1 FAD701      0.0000 
     10 C2B         4.9060   32.5780   33.9540 C.3       1 FAD701      0.0000 
     11 O2B         4.9020   33.9560   33.3310 O.3       1 FAD701      0.0000 
     12 C1B         3.4410   32.1980   34.2410 C.3       1 FAD701      0.0000 
     13 N9A         3.0780   32.1890   35.6670 N.pl3     1 FAD701      0.0000 
     14 C8A         3.5130   31.5120   36.7960 C.2       1 FAD701      0.0000 
     15 N7A         2.8230   31.8750   37.9450 N.2       1 FAD701      0.0000 
     16 C5A         1.8730   32.8590   37.5200 C.ar      1 FAD701      0.0000 
     17 C6A         0.8110   33.6940   38.1500 C.ar      1 FAD701      0.0000 
     18 N6A         0.5120   33.6440   39.5180 N.pl3     1 FAD701      0.0000 
     19 N1A         0.1140   34.5450   37.2960 N.ar      1 FAD701      0.0000 
     20 C2A         0.4080   34.6090   35.9000 C.ar      1 FAD701      0.0000 
     21 N3A         1.4090   33.8360   35.2610 N.ar      1 FAD701      0.0000 
     22 C4A         2.0670   33.0270   36.0800 C.ar      1 FAD701      0.0000 
     23 N1         12.1600   20.9120   27.5520 N.2       1 FAD701      0.0000 
     24 C2         12.2520   20.0420   26.4840 C.2       1 FAD701      0.0000 
     25 O2         11.3240   19.2580   26.2700 O.2       1 FAD701      0.0000 
     26 N3         13.4720   20.1480   25.7050 N.am      1 FAD701      0.0000 
     27 C4         14.6310   21.0600   25.9080 C.2       1 FAD701      0.0000 
     28 O4         15.6210   21.0090   25.1170 O.2       1 FAD701      0.0000 
     29 C4X        14.4720   21.9580   27.0670 C.2       1 FAD701      0.0000 
     30 N5         15.5250   22.8660   27.3460 N.2       1 FAD701      0.0000 
     31 C5X        15.4030   23.7420   28.4470 C.ar      1 FAD701      0.0000 
     32 C6         16.5620   24.6630   28.6710 C.ar      1 FAD701      0.0000 
     33 C7         16.5880   25.6280   29.7660 C.ar      1 FAD701      0.0000 
     34 C7M        17.7960   26.5010   29.9050 C.3       1 FAD701      0.0000 
     35 C8         15.3490   25.6950   30.7370 C.ar      1 FAD701      0.0000 
     36 C8M        15.2160   26.6480   31.9350 C.3       1 FAD701      0.0000 
     37 C9         14.2130   24.8150   30.5440 C.ar      1 FAD701      0.0000 
     38 C9A        14.1800   23.8150   29.4180 C.ar      1 FAD701      0.0000 
     39 N10        13.0470   22.8300   29.1080 N.pl3     1 FAD701      0.0000 
     40 C10        13.1760   21.8470   27.8860 C.2       1 FAD701      0.0000 
     41 C1'        11.7620   22.7300   29.9210 C.3       1 FAD701      0.0000 
     42 C2'        10.7790   23.5300   28.8820 C.3       1 FAD701      0.0000 
     43 O2'        11.3530   24.8690   28.7110 O.3       1 FAD701      0.0000 
     44 C3'         9.1660   23.6450   29.3990 C.3       1 FAD701      0.0000 
     45 O3'         8.9160   25.0530   29.5070 O.3       1 FAD701      0.0000 
     46 C4'         8.7100   23.0770   30.7030 C.3       1 FAD701      0.0000 
     47 O4'         8.9170   21.6890   30.7010 O.3       1 FAD701      0.0000 
     48 C5'         7.1530   23.2960   30.9090 C.3       1 FAD701      0.0000 
     49 O5'         6.5860   24.5210   30.6210 O.3       1 FAD701      0.0000 
     50 P           5.1340   24.9330   31.2670 P.3       1 FAD701      0.0000 
     51 O1P         4.2640   25.4030   30.1920 O.co2     1 FAD701      0.0000 
     52 O2P         4.4850   23.8790   32.1420 O.co2     1 FAD701      0.0000 
     53 O3P         5.4950   26.1110   32.1620 O.3       1 FAD701      0.0000 
     54 H           5.2007   29.0067   34.1528 H         1 FAD701      0.0000 
     55 H           3.7993   28.4029   33.2520 H         1 FAD701      0.0000 
     56 H           4.0261   30.4932   31.7953 H         1 FAD701      0.0000 
     57 H           6.2261   30.9409   33.5709 H         1 FAD701      0.0000 
     58 H           5.4219   32.5721   34.8854 H         1 FAD701      0.0000 
     59 H           2.8251   32.9942   33.7385 H         1 FAD701      0.0000 
     60 H           4.2331   30.8458   36.7854 H         1 FAD701      0.0000 
     61 H           1.0820   33.0364   40.0710 H         1 FAD701      0.0000 
     62 H          -0.2459   34.2202   39.8241 H         1 FAD701      0.0000 
     63 H          -0.1549   35.2712   35.3146 H         1 FAD701      0.0000 
     64 H          13.5632   19.4879   24.8703 H         1 FAD701      0.0000 
     65 H          17.3485   24.6023   28.0316 H         1 FAD701      0.0000 
     66 H          13.4172   24.8547   31.1633 H         1 FAD701      0.0000 
     67 H          11.8112   23.2911   30.7803 H         1 FAD701      0.0000 
     68 H          11.4198   21.7626   29.9737 H         1 FAD701      0.0000 
     69 H          10.7699   22.9867   27.9663 H         1 FAD701      0.0000 
     70 H           8.5778   23.2599   28.5705 H         1 FAD701      0.0000 
     71 H           9.2012   23.5583   31.5154 H         1 FAD701      0.0000 
     72 H           6.9612   22.9734   31.9878 H         1 FAD701      0.0000 
     73 H           6.6665   22.4454   30.3221 H         1 FAD701      0.0000 
     74 H          18.6282   25.9642   30.0437 H         1 FAD701      0.0000 
     75 H          17.9427   27.0643   29.0919 H         1 FAD701      0.0000 
     76 H          17.7162   27.1243   30.6829 H         1 FAD701      0.0000 
     77 H          15.9469   26.5089   32.6032 H         1 FAD701      0.0000 
     78 H          15.2552   27.6066   31.6531 H         1 FAD701      0.0000 
     79 H          14.3495   26.5195   32.4174 H         1 FAD701      0.0000 
     80 H           5.0008   32.3931   31.4210 H         1 FAD701      0.0000 
     81 H           4.3895   33.8530   32.4785 H         1 FAD701      0.0000 
     82 H          10.5935   25.4988   28.8741 H         1 FAD701      0.0000 
     83 H           7.9204   25.1418   29.4789 H         1 FAD701      0.0000 
     84 H           8.2169   21.3239   30.0874 H         1 FAD701      0.0000 
@<TRIPOS>BOND
     1    2    1 ar   
     2    3    1 ar   
     3    4    1 1    
     4   53    1 1    
     5    5    4 1    
     6    6    5 1    
     7   54    5 1    
     8   55    5 1    
     9    7    6 1    
    10    8    6 1    
    11   56    6 1    
    12   12    7 1    
    13    9    8 1    
    14   10    8 1    
    15   57    8 1    
    16   80    9 1    
    17   11   10 1    
    18   12   10 1    
    19   58   10 1    
    20   81   11 1    
    21   13   12 1    
    22   59   12 1    
    23   14   13 1    
    24   22   13 1    
    25   15   14 2    
    26   60   14 1    
    27   16   15 1    
    28   17   16 ar   
    29   22   16 ar   
    30   18   17 1    
    31   19   17 ar   
    32   61   18 1    
    33   62   18 1    
    34   20   19 ar   
    35   21   20 ar   
    36   63   20 1    
    37   22   21 ar   
    38   24   23 1    
    39   40   23 2    
    40   25   24 2    
    41   26   24 am   
    42   27   26 am   
    43   64   26 1    
    44   28   27 2    
    45   29   27 1    
    46   30   29 2    
    47   40   29 1    
    48   31   30 1    
    49   32   31 ar   
    50   38   31 ar   
    51   33   32 ar   
    52   65   32 1    
    53   34   33 1    
    54   35   33 ar   
    55   74   34 1    
    56   75   34 1    
    57   76   34 1    
    58   36   35 1    
    59   37   35 ar   
    60   77   36 1    
    61   78   36 1    
    62   79   36 1    
    63   38   37 ar   
    64   66   37 1    
    65   39   38 1    
    66   40   39 1    
    67   41   39 1    
    68   42   41 1    
    69   67   41 1    
    70   68   41 1    
    71   43   42 1    
    72   44   42 1    
    73   69   42 1    
    74   82   43 1    
    75   45   44 1    
    76   46   44 1    
    77   70   44 1    
    78   83   45 1    
    79   47   46 1    
    80   48   46 1    
    81   71   46 1    
    82   84   47 1    
    83   49   48 1    
    84   72   48 1    
    85   73   48 1    
    86   50   49 1    
    87   51   50 ar   
    88   52   50 ar   
    89   53   50 1    
@<TRIPOS>SUBSTRUCTURE
     1 FAD701      1 GROUP   
@<TRIPOS>SET

