#    Name: 2ZNT_1_CAVITY_N1_6.mol2
#    Modification time : Tue Mar 11 06:06:43 2014

@<TRIPOS>MOLECULE
2ZNT_1_CAVITY_N1_6.mol2
   55     0     6     0     0
SMALL
NO_CHARGES


@<TRIPOS>ATOM
      1 CA         26.2870    1.0537   14.4112 C.3       5 GLY6        0.0000 
      2 CA         26.1495   -0.0861   13.4459 C.3       5 GLY6        0.0000 
      3 OG         26.0596    0.8879   12.3087 O.2       1 SER1        0.0000 
      4 CA         26.1018   -2.1999   13.6178 C.3       5 GLY6        0.0000 
      5 CA         26.0120   -1.2260   12.4806 C.3       5 GLY6        0.0000 
      6 N          26.2339   -6.2617   16.0641 N.2       2 ALA2        0.0000 
      7 CA         26.0542   -4.3137   13.7897 C.3       5 GLY6        0.0000 
      8 CA         25.9643   -3.3398   12.6525 C.3       5 GLY6        0.0000 
      9 N          26.0964   -7.4015   15.0988 N.2       2 ALA2        0.0000 
     10 N          26.0065   -6.4275   13.9616 N.2       2 ALA2        0.0000 
     11 OG         24.8859    0.1262   15.7061 O.2       1 SER1        0.0000 
     12 OG         24.7960    1.1001   14.5688 O.2       1 SER1        0.0000 
     13 O          24.7062    2.0741   13.4316 O.2       2 ALA2        0.0000 
     14 CA         24.9281   -2.9616   17.0152 C.3       5 GLY6        0.0000 
     15 CA         24.8383   -1.9877   15.8780 C.3       5 GLY6        0.0000 
     16 CA         24.7484   -1.0137   14.7407 C.3       5 GLY6        0.0000 
     17 DU         24.6585   -0.0397   13.6035 H         6 CUB7        0.0000 
     18 CA         24.5686    0.9343   12.4663 C.3       5 GLY6        0.0000 
     19 N          24.9704   -6.0494   18.3243 N.2       2 ALA2        0.0000 
     20 CA         24.8805   -5.0754   17.1871 C.3       5 GLY6        0.0000 
     21 CA         24.7906   -4.1015   16.0498 C.3       5 GLY6        0.0000 
     22 CA         24.7007   -3.1275   14.9126 C.3       5 GLY6        0.0000 
     23 CA         24.6109   -2.1535   13.7754 C.3       5 GLY6        0.0000 
     24 DU         24.5210   -1.1795   12.6382 H         6 CUB7        0.0000 
     25 OG         24.4311   -0.2055   11.5009 O.2       1 SER1        0.0000 
     26 N          24.8328   -7.1892   17.3590 N.2       2 ALA2        0.0000 
     27 CZ         24.7429   -6.2153   16.2217 C.ar      4 PHE5        0.0000 
     28 CZ         24.6531   -5.2413   15.0845 C.ar      4 PHE5        0.0000 
     29 CZ         24.5632   -4.2673   13.9473 C.ar      4 PHE5        0.0000 
     30 CA         24.4733   -3.2933   12.8101 C.3       5 GLY6        0.0000 
     31 O          24.3834   -2.3194   11.6728 O.2       2 ALA2        0.0000 
     32 O          24.6054   -7.3551   15.2564 O.2       2 ALA2        0.0000 
     33 CZ         24.5155   -6.3811   14.1192 C.ar      4 PHE5        0.0000 
     34 CA         24.4257   -5.4071   12.9819 C.3       5 GLY6        0.0000 
     35 O          24.4679   -8.4949   14.2911 O.2       2 ALA2        0.0000 
     36 CA         24.3780   -7.5209   13.1538 C.3       5 GLY6        0.0000 
     37 CA         23.6646   -2.7493   19.2753 C.3       5 GLY6        0.0000 
     38 OG         23.3051    1.1466   14.7264 O.2       1 SER1        0.0000 
     39 CZ         23.5270   -3.8892   18.3100 C.ar      4 PHE5        0.0000 
     40 NZ         23.4372   -2.9152   17.1728 N.2       3 LYS4        0.0000 
     41 NZ         23.3473   -1.9412   16.0356 N.2       3 LYS4        0.0000 
     42 NZ         23.2574   -0.9672   14.8983 N.2       3 LYS4        0.0000 
     43 NZ         23.1675    0.0067   13.7611 N.2       3 LYS4        0.0000 
     44 N          23.4794   -6.0030   18.4819 N.2       2 ALA2        0.0000 
     45 CZ         23.3895   -5.0290   17.3447 C.ar      4 PHE5        0.0000 
     46 CZ         23.1199   -2.1071   13.9330 C.ar      4 PHE5        0.0000 
     47 NZ         23.0300   -1.1331   12.7958 N.2       3 LYS4        0.0000 
     48 CZ         22.9823   -3.2469   12.9677 C.ar      4 PHE5        0.0000 
     49 NZ         22.8925   -2.2729   11.8304 N.2       3 LYS4        0.0000 
     50 CZ         22.8448   -4.3867   12.0023 C.ar      4 PHE5        0.0000 
     51 OG         22.7549   -3.4128   10.8651 O.2       1 SER1        0.0000 
     52 NZ         22.3111   -1.5631   20.3983 N.2       3 LYS4        0.0000 
     53 NZ         22.0361   -3.8427   18.4676 N.2       3 LYS4        0.0000 
     54 NZ         21.5390   -1.0867   12.9534 N.2       3 LYS4        0.0000 
     55 NZ         21.4015   -2.2265   11.9880 N.2       3 LYS4        0.0000 
@<TRIPOS>BOND
@<TRIPOS>SUBSTRUCTURE
     1 SER1        3 GROUP   
     2 ALA2        6 GROUP   
     3 LYS4       40 GROUP   
     4 PHE5       27 GROUP   
     5 GLY6        1 GROUP   
     6 CUB7       17 GROUP   
@<TRIPOS>SET

