#    Name: 2znt_DYH_1_INTS_M
#    Modification time : Tue Mar 25 10:54:06 2014

@<TRIPOS>MOLECULE
2znt_DYH_1_INTS_M
   84     0    15     0     0
SMALL
NO_CHARGES


@<TRIPOS>ATOM
      1 CA         19.6605    0.3385   16.0905 C.3       5 GLC5        0.0000 
      2 CA         20.1240    0.8320   14.2990 C.3      15 GLL5        0.0000 
      3 CA         19.1970   -0.1550   17.8820 C.3      10 GLP5        0.0000 
      4 CA         18.3225    1.9000   14.8705 C.3       5 GLC5        0.0000 
      5 CA         16.5210    2.9680   15.4420 C.3      10 GLP5        0.0000 
      6 CA         18.4340    0.1340   14.0625 C.3       5 GLC5        0.0000 
      7 CA         16.7440   -0.5640   13.8260 C.3      10 GLP5        0.0000 
      8 CA         18.9440    1.2525   12.5875 C.3       5 GLC5        0.0000 
      9 CA         17.7640    1.6730   10.8760 C.3      10 GLP5        0.0000 
     10 OD1        21.2420    1.1805   12.5595 O.co2     3 ASC3        0.0000 
     11 OD1        21.4030    1.4660   13.9610 O.co2    13 ASL3        0.0000 
     12 OD1        21.0810    0.8950   11.1580 O.co2     8 ASP3        0.0000 
     13 CA         23.0010    2.6665   12.4425 C.3       5 GLC5        0.0000 
     14 CA         23.8100    1.8490   14.3520 C.3      15 GLL5        0.0000 
     15 CA         22.1920    3.4840   10.5330 C.3      10 GLP5        0.0000 
     16 N          24.1685    3.0375   12.0670 N.am      2 SEC2        0.0000 
     17 N          23.9270    1.8970   12.9140 N.am     12 SEL2        0.0000 
     18 N          24.4100    4.1780   11.2200 N.am      7 SEP2        0.0000 
     19 CA         26.4800    0.1535   15.6055 C.3       5 GLC5        0.0000 
     20 CA         25.1210    1.2810   14.9450 C.3      15 GLL5        0.0000 
     21 CA         27.8390   -0.9740   16.2660 C.3      10 GLP5        0.0000 
     22 CA         24.7995    1.2770   17.0710 C.3       5 GLC5        0.0000 
     23 CA         24.4780    1.2730   19.1970 C.3      10 GLP5        0.0000 
     24 CA         26.0535   -0.9880   15.5785 C.3       5 GLC5        0.0000 
     25 CA         24.2680   -1.0020   14.8910 C.3      15 GLL5        0.0000 
     26 CA         25.9125   -2.8675   14.9930 C.3       5 GLC5        0.0000 
     27 CA         24.3330   -2.2850   14.0340 C.3      15 GLL5        0.0000 
     28 CA         27.4920   -3.4500   15.9520 C.3      10 GLP5        0.0000 
     29 CA         21.6690   -2.1475   14.9635 C.3       5 GLC5        0.0000 
     30 CA         22.8470   -0.5090   14.5970 C.3      15 GLL5        0.0000 
     31 CA         20.4910   -3.7860   15.3300 C.3      10 GLP5        0.0000 
     32 N          25.2355    0.1335   10.3420 N.am      2 SEC2        0.0000 
     33 N          24.5490   -0.1820   11.4240 N.am     12 SEL2        0.0000 
     34 N          25.9220    0.4490    9.2600 N.am      7 SEP2        0.0000 
     35 N          25.6705   -2.2845    9.7055 N.am      2 SEC2        0.0000 
     36 N          25.1600   -2.3010   11.0940 N.am     12 SEL2        0.0000 
     37 N          26.1810   -2.2680    8.3170 N.am      7 SEP2        0.0000 
     38 N          25.5410   -0.9260   10.1770 N.am      2 SEC2        0.0000 
     39 CA         21.9305   -4.5485   13.0695 C.3       5 GLC5        0.0000 
     40 CA         22.6620   -3.0660   12.3170 C.3      15 GLL5        0.0000 
     41 CA         21.1990   -6.0310   13.8220 C.3      10 GLP5        0.0000 
     42 CA         24.3130   -4.3945   11.6635 C.3       5 GLC5        0.0000 
     43 CA         25.9640   -5.7230   11.0100 C.3      10 GLP5        0.0000 
     44 CA         20.9845   -4.0830   12.2620 C.3       5 GLC5        0.0000 
     45 CA         21.9450   -2.8420   10.9850 C.3      15 GLL5        0.0000 
     46 CA         20.0240   -5.3240   13.5390 C.3      10 GLP5        0.0000 
     47 CA         20.8305   -2.6675    9.1310 C.3       5 GLC5        0.0000 
     48 CA         19.7160   -2.4930    7.2770 C.3      10 GLP5        0.0000 
     49 CA         22.7130   -3.3295    9.0930 C.3       5 GLC5        0.0000 
     50 CA         23.4810   -3.8170    7.2010 C.3      10 GLP5        0.0000 
     51 NZ         20.2890   -5.3590    9.1295 N.4       4 LYC4        0.0000 
     52 NZ         20.3060   -4.4090   10.1780 N.4      14 LYL4        0.0000 
     53 NZ         20.9360   -7.4460    8.2610 N.4       9 LYP4        0.0000 
     54 N          19.1715   -4.0275    9.3945 N.am      2 SEC2        0.0000 
     55 N          20.3060   -4.4090   10.1780 N.am     12 SEL2        0.0000 
     56 N          18.0370   -3.6460    8.6110 N.am      7 SEP2        0.0000 
     57 N          20.2890   -5.3590    9.1295 N.am      2 SEC2        0.0000 
     58 N          20.2720   -6.3090    8.0810 N.am      7 SEP2        0.0000 
     59 NZ         22.1040   -6.3280    9.7575 N.4       4 LYC4        0.0000 
     60 NZ         22.4090   -5.0950   10.2560 N.4      14 LYL4        0.0000 
     61 N          21.3405   -5.7020    9.1685 N.am      2 SEC2        0.0000 
     62 N          22.4090   -5.0950   10.2560 N.am     12 SEL2        0.0000 
     63 N          22.1040   -6.3280    9.7575 N.am      2 SEC2        0.0000 
     64 N          21.7990   -7.5610    9.2590 N.am      7 SEP2        0.0000 
     65 N          23.6810   -4.8865    9.6500 N.am      2 SEC2        0.0000 
     66 N          24.9530   -4.6780    9.0440 N.am      7 SEP2        0.0000 
     67 OD1        20.9140   -0.5540   11.1705 O.co2     3 ASC3        0.0000 
     68 OD1        20.7470   -2.0030   11.1830 O.co2    13 ASL3        0.0000 
     69 OD1        21.2610   -0.9465   10.1920 O.co2     3 ASC3        0.0000 
     70 OD1        21.7750    0.1100    9.2010 O.co2     8 ASP3        0.0000 
     71 O          19.3680   -2.2130   11.6895 O.2       1 ALC1        0.0000 
     72 O          20.7470   -2.0030   11.1830 O.2      11 ALL1        0.0000 
     73 O          17.9890   -2.4230   12.1960 O.2       6 ALP1        0.0000 
     74 O          20.3185   -1.8225    9.7990 O.2       1 ALC1        0.0000 
     75 O          19.8900   -1.6420    8.4150 O.2       6 ALP1        0.0000 
     76 O          20.9140   -0.5540   11.1705 O.2       1 ALC1        0.0000 
     77 O          21.0810    0.8950   11.1580 O.2       6 ALP1        0.0000 
     78 CA         22.5472    3.2908   14.8938 C.3       5 GLC5        0.0000 
     79 CA         22.5790    1.0120   14.7710 C.3      15 GLL5        0.0000 
     80 CA         21.9000    5.1510   15.2260 C.3      10 GLP5        0.0000 
     81 CA         25.0102    3.2615   14.4283 C.3       5 GLC5        0.0000 
     82 CA         25.5550    4.9580   14.2080 C.3      10 GLP5        0.0000 
     83 CA         22.7761   -3.1231   14.6281 C.3       5 GLC5        0.0000 
     84 CA         21.6350   -4.4810   15.6350 C.3      10 GLP5        0.0000 
@<TRIPOS>BOND
@<TRIPOS>SUBSTRUCTURE
     1 ALC1       71 GROUP        1 X    ALC  0     ROOT ALC X 1
     2 SEC2       16 GROUP        1 X    SEC  0     **** SEC X 2
     3 ASC3       10 GROUP        1 X    ASC  0     **** ASC X 3
     4 LYC4       51 GROUP        1 X    LYC  0     **** LYC X 4
     5 GLC5        1 GROUP        1 X    GLC  0     **** GLC X 6
     6 ALP1       73 GROUP        1 Y    ALP  0     ROOT ALP Y 8
     7 SEP2       18 GROUP        1 Y    SEP  0     **** SEP Y 9
     8 ASP3       12 GROUP        1 Y    ASP  0     **** ASP Y 10
     9 LYP4       53 GROUP        1 Y    LYP  0     **** LYP Y 11
    10 GLP5        3 GROUP        1 Y    GLP  0     **** GLP Y 13
    11 ALL1       72 GROUP        1 Z    ALL  0     ROOT ALL Z 15
    12 SEL2       17 GROUP        1 Z    SEL  0     **** SEL Z 16
    13 ASL3       11 GROUP        1 Z    ASL  0     **** ASL Z 17
    14 LYL4       52 GROUP        1 Z    LYL  0     **** LYL Z 18
    15 GLL5        2 GROUP        1 Z    GLL  0     **** GLL Z 20
@<TRIPOS>SET

