#    Name: 2znt_DYH_1_ligand
#    Modification time : Tue Mar 25 10:54:06 2014

@<TRIPOS>MOLECULE
2znt_DYH_1_ligand
   39    40     1     0     0
SMALL
NO_CHARGES


@<TRIPOS>ATOM
      1 CAA        20.1240    0.8320   14.2990 C.3       1 DYH1        0.0000 
      2 NH         21.4030    1.4660   13.9610 N.4       1 DYH1        0.0000 
      3 CAH        22.5790    1.0120   14.7710 C.3       1 DYH1        0.0000 
      4 CAG        23.8100    1.8490   14.3520 C.3       1 DYH1        0.0000 
      5 OAC        23.9270    1.8970   12.9140 O.3       1 DYH1        0.0000 
      6 CAP        25.1210    1.2810   14.9450 C.3       1 DYH1        0.0000 
      7 OAQ        25.2840   -0.0710   14.4180 O.3       1 DYH1        0.0000 
      8 CAR        24.2680   -1.0020   14.8910 C.3       1 DYH1        0.0000 
      9 CAS        24.3330   -2.2850   14.0340 C.3       1 DYH1        0.0000 
     10 CAI        22.8470   -0.5090   14.5970 C.3       1 DYH1        0.0000 
     11 OAJ        22.6080   -0.8350   13.1880 O.3       1 DYH1        0.0000 
     12 CAK        23.5340   -1.8870   12.7800 C.3       1 DYH1        0.0000 
     13 CAE        24.5020   -1.4140   11.6760 C.2       1 DYH1        0.0000 
     14 OAB        24.5490   -0.1820   11.4240 O.co2     1 DYH1        0.0000 
     15 OAF        25.1600   -2.3010   11.0940 O.co2     1 DYH1        0.0000 
     16 CB         22.6620   -3.0660   12.3170 C.3       1 DYH1        0.0000 
     17 CA         21.9450   -2.8420   10.9850 C.3       1 DYH1        0.0000 
     18 C          21.5120   -4.2310   10.4480 C.2       1 DYH1        0.0000 
     19 OXT        20.3060   -4.4090   10.1780 O.co2     1 DYH1        0.0000 
     20 O          22.4090   -5.0950   10.2560 O.co2     1 DYH1        0.0000 
     21 N          20.7470   -2.0030   11.1830 N.4       1 DYH1        0.0000 
     22 H          22.3893    1.2078   15.8184 H         1 DYH1        0.0000 
     23 H          23.6812    2.8527   14.7522 H         1 DYH1        0.0000 
     24 H          25.0279    1.2789   16.0209 H         1 DYH1        0.0000 
     25 H          25.9323    1.9257   14.6411 H         1 DYH1        0.0000 
     26 H          24.3500   -1.2676   15.8899 H         1 DYH1        0.0000 
     27 H          23.8435   -3.0699   14.5350 H         1 DYH1        0.0000 
     28 H          25.3321   -2.4849   13.7722 H         1 DYH1        0.0000 
     29 H          22.1484   -1.0607   15.2006 H         1 DYH1        0.0000 
     30 H          21.9109   -3.2772   13.0978 H         1 DYH1        0.0000 
     31 H          23.2980   -3.9645   12.2356 H         1 DYH1        0.0000 
     32 H          22.6172   -2.4087   10.2910 H         1 DYH1        0.0000 
     33 H          20.1564   -0.1596   14.1736 H         1 DYH1        0.0000 
     34 H          19.8669    0.9988   15.2509 H         1 DYH1        0.0000 
     35 H          19.3773    1.1753   13.7292 H         1 DYH1        0.0000 
     36 H          20.9800   -1.1053   11.5570 H         1 DYH1        0.0000 
     37 H          20.2582   -1.8452   10.3250 H         1 DYH1        0.0000 
     38 H          20.0985   -2.4251   11.8165 H         1 DYH1        0.0000 
     39 H          24.1783    0.9676   12.6437 H         1 DYH1        0.0000 
@<TRIPOS>BOND
     1    2    1 1    
     2   33    1 1    
     3   34    1 1    
     4   35    1 1    
     5    3    2 1    
     6    4    3 1    
     7   10    3 1    
     8   22    3 1    
     9    5    4 1    
    10    6    4 1    
    11   23    4 1    
    12   39    5 1    
    13    7    6 1    
    14   24    6 1    
    15   25    6 1    
    16    8    7 1    
    17    9    8 1    
    18   10    8 1    
    19   26    8 1    
    20   12    9 1    
    21   27    9 1    
    22   28    9 1    
    23   11   10 1    
    24   29   10 1    
    25   12   11 1    
    26   13   12 1    
    27   16   12 1    
    28   14   13 ar   
    29   15   13 ar   
    30   17   16 1    
    31   30   16 1    
    32   31   16 1    
    33   18   17 1    
    34   21   17 1    
    35   32   17 1    
    36   19   18 ar   
    37   20   18 ar   
    38   36   21 1    
    39   37   21 1    
    40   38   21 1    
@<TRIPOS>SUBSTRUCTURE
     1 DYH1        1 GROUP   
@<TRIPOS>SET

