#    Name: 2JK6_1_CAVITY_N1_ALL.mol2
#    Modification time : Mon Mar 10 23:01:52 2014

@<TRIPOS>MOLECULE
2JK6_1_CAVITY_N1_ALL.mol2
   73     0     7     0     0
SMALL
NO_CHARGES


@<TRIPOS>ATOM
      1 CA         32.6229   53.5804   -2.6833 C.3       6 GLY6        0.0000 
      2 OG         35.0882   49.7628   -0.6588 O.2       1 SER1        0.0000 
      3 CA         33.9938   50.7861   -0.7307 C.3       6 GLY6        0.0000 
      4 O          32.8994   51.8094   -0.8025 O.2       2 ALA2        0.0000 
      5 O          31.8050   52.8327   -0.8744 O.2       2 ALA2        0.0000 
      6 NZ         30.7107   53.8560   -0.9462 N.2       4 LYS4        0.0000 
      7 N          33.8037   50.4805   -2.1868 N.2       2 ALA2        0.0000 
      8 CA         32.7093   51.5038   -2.2587 C.3       6 GLY6        0.0000 
      9 CA         31.6149   52.5271   -2.3306 C.3       6 GLY6        0.0000 
     10 NZ         30.5205   53.5504   -2.4024 N.2       4 LYS4        0.0000 
     11 CA         31.4247   52.2215   -3.7867 C.3       6 GLY6        0.0000 
     12 CA         34.0802   48.7095   -0.3061 C.3       6 GLY6        0.0000 
     13 CA         32.9858   49.7328   -0.3779 C.3       6 GLY6        0.0000 
     14 OG         31.8914   50.7561   -0.4498 O.2       1 SER1        0.0000 
     15 OG         29.7026   52.8027   -0.5935 O.2       1 SER1        0.0000 
     16 N          33.8900   48.4039   -1.7623 N.2       2 ALA2        0.0000 
     17 CA         32.7956   49.4272   -1.8341 C.3       6 GLY6        0.0000 
     18 CA         31.7012   50.4505   -1.9060 C.3       6 GLY6        0.0000 
     19 OG         30.6069   51.4738   -1.9778 O.2       1 SER1        0.0000 
     20 OG         29.5125   52.4971   -2.0497 O.2       1 SER1        0.0000 
     21 N          28.4181   53.5204   -2.1216 N.2       2 ALA2        0.0000 
     22 CA         30.4167   51.1682   -3.4340 C.3       6 GLY6        0.0000 
     23 CZ         34.1665   46.6329    0.1185 C.ar      5 PHE5        0.0000 
     24 CA         33.0721   47.6562    0.0466 C.3       6 GLY6        0.0000 
     25 CA         31.9777   48.6795   -0.0252 C.3       6 GLY6        0.0000 
     26 OG         30.8834   49.7028   -0.0971 O.2       1 SER1        0.0000 
     27 CA         32.8820   47.3506   -1.4095 C.3       6 GLY6        0.0000 
     28 CA         31.7876   48.3739   -1.4814 C.3       6 GLY6        0.0000 
     29 O          30.6932   49.3972   -1.5533 O.2       2 ALA2        0.0000 
     30 OG         29.5988   50.4205   -1.6251 O.2       1 SER1        0.0000 
     31 OG         28.5044   51.4438   -1.6970 O.2       1 SER1        0.0000 
     32 N          27.4100   52.4671   -1.7689 N.2       2 ALA2        0.0000 
     33 CA         29.4087   50.1148   -3.0813 C.3       6 GLY6        0.0000 
     34 CA         28.3143   51.1381   -3.1532 C.3       6 GLY6        0.0000 
     35 OG         27.2199   52.1614   -3.2250 O.2       1 SER1        0.0000 
     36 CZ         27.3527   52.9419    5.8647 C.ar      5 PHE5        0.0000 
     37 CA         26.0682   53.6596    4.3367 C.3       6 GLY6        0.0000 
     38 CZ         26.9724   52.3307    2.9523 C.ar      5 PHE5        0.0000 
     39 CA         26.7823   52.0250    1.4962 C.3       6 GLY6        0.0000 
     40 OD1        30.9697   47.6262    0.3275 O.3       3 ASP3        0.0000 
     41 CZ         29.8753   48.6495    0.2556 C.ar      5 PHE5        0.0000 
     42 OG         27.6865   50.6961    0.1119 O.2       1 SER1        0.0000 
     43 CA         26.5921   51.7194    0.0400 C.3       6 GLY6        0.0000 
     44 OD1        30.7795   47.3206   -1.1287 O.3       3 ASP3        0.0000 
     45 O          29.6852   48.3439   -1.2006 O.2       2 ALA2        0.0000 
     46 OG         28.5908   49.3672   -1.2724 O.2       1 SER1        0.0000 
     47 OG         27.4964   50.3905   -1.3443 O.2       1 SER1        0.0000 
     48 CA         26.4020   51.4138   -1.4162 C.3       6 GLY6        0.0000 
     49 O          26.2118   51.1081   -2.8723 O.2       2 ALA2        0.0000 
     50 CZ         26.3447   51.8886    6.2174 C.ar      5 PHE5        0.0000 
     51 DU         25.2503   52.9119    6.1455 H         7 CUB7        0.0000 
     52 CZ         26.1545   51.5830    4.7612 C.ar      5 PHE5        0.0000 
     53 CA         25.0602   52.6063    4.6894 C.3       6 GLY6        0.0000 
     54 CA         25.9644   51.2773    3.3051 C.3       6 GLY6        0.0000 
     55 CA         25.7742   50.9717    1.8489 C.3       6 GLY6        0.0000 
     56 CZ         26.6785   49.6428    0.4646 C.ar      5 PHE5        0.0000 
     57 CA         25.5841   50.6661    0.3927 C.3       6 GLY6        0.0000 
     58 OD1        27.5827   48.3139   -0.9197 O.3       3 ASP3        0.0000 
     59 N          26.4883   49.3372   -0.9916 N.2       2 ALA2        0.0000 
     60 CA         25.3939   50.3605   -1.0635 C.3       6 GLY6        0.0000 
     61 CA         26.2982   49.0315   -2.4478 C.3       6 GLY6        0.0000 
     62 N          25.2038   50.0548   -2.5196 N.2       2 ALA2        0.0000 
     63 CZ         24.2423   51.8586    6.4982 C.ar      5 PHE5        0.0000 
     64 CZ         25.1465   50.5297    5.1139 C.ar      5 PHE5        0.0000 
     65 CA         24.0521   51.5530    5.0421 C.3       6 GLY6        0.0000 
     66 N          24.9564   50.2240    3.6578 N.2       2 ALA2        0.0000 
     67 CA         23.8620   51.2473    3.5859 C.3       6 GLY6        0.0000 
     68 N          25.8606   48.8951    2.2735 N.2       2 ALA2        0.0000 
     69 N          24.7662   49.9184    2.2016 N.2       2 ALA2        0.0000 
     70 N          25.6704   48.5895    0.8173 N.2       2 ALA2        0.0000 
     71 N          24.5760   49.6128    0.7454 N.2       2 ALA2        0.0000 
     72 N          25.4803   48.2839   -0.6389 N.2       2 ALA2        0.0000 
     73 N          24.3859   49.3072   -0.7108 N.2       2 ALA2        0.0000 
@<TRIPOS>BOND
@<TRIPOS>SUBSTRUCTURE
     1 SER1        2 GROUP   
     2 ALA2        4 GROUP   
     3 ASP3       40 GROUP   
     4 LYS4        6 GROUP   
     5 PHE5       23 GROUP   
     6 GLY6        1 GROUP   
     7 CUB7       51 GROUP   
@<TRIPOS>SET

