#    Name: 2jk6_FAD_1_INTS_M
#    Modification time : Tue Mar 25 21:00:13 2014

@<TRIPOS>MOLECULE
2jk6_FAD_1_INTS_M
  129     0     9     0     0
SMALL
NO_CHARGES


@<TRIPOS>ATOM
      1 N          33.0200   54.5285   -7.6165 N.am      2 SEC2        0.0000 
      2 N          32.7430   55.8610   -6.9340 N.am      8 SEL2        0.0000 
      3 N          33.2970   53.1960   -8.2990 N.am      5 SEP2        0.0000 
      4 N          33.6390   55.0520   -6.4065 N.am      2 SEC2        0.0000 
      5 N          34.5350   54.2430   -5.8790 N.am      5 SEP2        0.0000 
      6 N          29.6820   55.3600   -9.4590 N.am      2 SEC2        0.0000 
      7 N          30.7240   55.3630   -8.3480 N.am      8 SEL2        0.0000 
      8 N          28.6400   55.3570  -10.5700 N.am      5 SEP2        0.0000 
      9 N          32.0105   54.2795   -8.3235 N.am      2 SEC2        0.0000 
     10 CA         33.1015   58.9390   -7.1460 C.3       3 GLC5        0.0000 
     11 CA         33.5400   57.9450   -8.9210 C.3       9 GLL5        0.0000 
     12 CA         32.6630   59.9330   -5.3710 C.3       6 GLP5        0.0000 
     13 CA         34.0265   59.2705  -11.4965 C.3       3 GLC5        0.0000 
     14 CA         34.4270   57.8620  -10.1470 C.3       9 GLL5        0.0000 
     15 CA         33.6260   60.6790  -12.8460 C.3       6 GLP5        0.0000 
     16 O          36.3855   56.3060  -12.2250 O.2       1 ALC1        0.0000 
     17 O          35.4220   55.8430  -10.9580 O.2       7 ALL1        0.0000 
     18 O          37.3490   56.7690  -13.4920 O.2       4 ALP1        0.0000 
     19 O          35.3185   56.5535  -12.2155 O.2       1 ALC1        0.0000 
     20 O          35.2150   57.2640  -13.4730 O.2       4 ALP1        0.0000 
     21 O          37.5525   56.8480  -12.2025 O.2       1 ALC1        0.0000 
     22 O          37.7560   56.9270  -10.9130 O.2       7 ALL1        0.0000 
     23 CA         35.0080   59.7895  -11.7970 C.3       3 GLC5        0.0000 
     24 CA         36.3900   58.9000  -10.7480 C.3       9 GLL5        0.0000 
     25 CA         35.1620   60.3600   -9.5975 C.3       3 GLC5        0.0000 
     26 CA         33.9340   61.8200   -8.4470 C.3       6 GLP5        0.0000 
     27 CA         40.6015   63.1970  -12.7285 C.3       3 GLC5        0.0000 
     28 CA         38.9590   63.0250  -11.2060 C.3       9 GLL5        0.0000 
     29 CA         42.2440   63.3690  -14.2510 C.3       6 GLP5        0.0000 
     30 CA         38.3840   64.8540  -10.3090 C.3       3 GLC5        0.0000 
     31 CA         37.8090   66.6830   -9.4120 C.3       6 GLP5        0.0000 
     32 O          39.7760   65.4255  -11.3730 O.2       1 ALC1        0.0000 
     33 O          39.5100   64.0150  -10.5150 O.2       7 ALL1        0.0000 
     34 O          40.0420   66.8360  -12.2310 O.2       4 ALP1        0.0000 
     35 N          39.5625   64.0445  -13.3980 N.am      2 SEC2        0.0000 
     36 N          38.7370   63.1840  -12.5570 N.am      8 SEL2        0.0000 
     37 N          40.3880   64.9050  -14.2390 N.am      5 SEP2        0.0000 
     38 CA         37.1805   64.2460  -13.2535 C.3       3 GLC5        0.0000 
     39 CA         37.9750   62.2630  -13.2570 C.3       9 GLL5        0.0000 
     40 CA         36.3860   66.2290  -13.2500 C.3       6 GLP5        0.0000 
     41 CA         37.9355   62.6915  -15.1225 C.3       3 GLC5        0.0000 
     42 CA         37.8960   63.1200  -16.9880 C.3       6 GLP5        0.0000 
     43 CA         37.6430   60.6230  -14.4295 C.3       3 GLC5        0.0000 
     44 CA         37.3110   58.9830  -15.6020 C.3       6 GLP5        0.0000 
     45 CA         39.4675   60.6640  -12.7450 C.3       3 GLC5        0.0000 
     46 CA         40.9600   59.0650  -12.2330 C.3       6 GLP5        0.0000 
     47 CA         38.8285   64.2070  -13.8815 C.3       3 GLC5        0.0000 
     48 CA         39.6820   66.1510  -14.5060 C.3       6 GLP5        0.0000 
     49 CA         35.6350   60.8470  -12.0550 C.3       3 GLC5        0.0000 
     50 CA         37.6440   61.0150  -11.2640 C.3       9 GLL5        0.0000 
     51 N          24.7895   52.0835   -3.2345 N.am      2 SEC2        0.0000 
     52 N          24.5930   50.7260   -2.5410 N.am      8 SEL2        0.0000 
     53 N          24.9860   53.4410   -3.9280 N.am      5 SEP2        0.0000 
     54 O          24.7420   47.9175   -2.2525 O.2       1 ALC1        0.0000 
     55 O          25.6370   48.8570   -1.8340 O.2       7 ALL1        0.0000 
     56 O          23.8470   46.9780   -2.6710 O.2       4 ALP1        0.0000 
     57 N          27.6760   46.3345   -0.3455 N.am      2 SEC2        0.0000 
     58 N          26.7740   47.0530   -1.1290 N.am      8 SEL2        0.0000 
     59 N          28.5780   45.6160    0.4380 N.am      5 SEP2        0.0000 
     60 N          28.8830   46.9635   -0.3195 N.am      2 SEC2        0.0000 
     61 N          29.1880   48.3110   -1.0770 N.am      8 SEL2        0.0000 
     62 CA         29.8510   47.7765   -2.6225 C.3       3 GLC5        0.0000 
     63 CA         30.3850   48.9980   -1.0710 C.3       9 GLL5        0.0000 
     64 CA         29.3170   46.5550   -4.1740 C.3       6 GLP5        0.0000 
     65 CA         31.3690   46.1335   -0.6800 C.3       3 GLC5        0.0000 
     66 CA         31.5590   48.3450   -0.6910 C.3       9 GLL5        0.0000 
     67 CA         31.1790   43.9220   -0.6690 C.3       6 GLP5        0.0000 
     68 CA         32.1675   48.9670    1.3145 C.3       3 GLC5        0.0000 
     69 CA         32.7760   49.5890    3.3200 C.3       6 GLP5        0.0000 
     70 CA         35.9325   48.4990    0.2585 C.3       3 GLC5        0.0000 
     71 CA         34.0280   48.3060   -0.2640 C.3       9 GLL5        0.0000 
     72 CA         37.8370   48.6920    0.7810 C.3       6 GLP5        0.0000 
     73 CA         35.4145   47.2240   -1.5455 C.3       3 GLC5        0.0000 
     74 CA         36.8010   46.1420   -2.8270 C.3       6 GLP5        0.0000 
     75 CA         34.9160   46.8640    0.6610 C.3       3 GLC5        0.0000 
     76 CA         35.8040   45.4220    1.5860 C.3       6 GLP5        0.0000 
     77 CA         34.1930   52.7740    0.0935 C.3       3 GLC5        0.0000 
     78 CA         34.1080   51.1350   -1.0540 C.3       9 GLL5        0.0000 
     79 CA         34.2780   54.4130    1.2410 C.3       6 GLP5        0.0000 
     80 CA         29.2405   49.6690   -3.1790 C.3       3 GLC5        0.0000 
     81 CA         30.4140   50.3400   -1.4470 C.3       9 GLL5        0.0000 
     82 CA         28.0670   48.9980   -4.9110 C.3       6 GLP5        0.0000 
     83 CA         29.2065   51.6570   -5.3845 C.3       3 GLC5        0.0000 
     84 CA         29.1770   52.8180   -3.4790 C.3       9 GLL5        0.0000 
     85 CA         29.2360   50.4960   -7.2900 C.3       6 GLP5        0.0000 
     86 CA         28.6220   50.9080   -4.1950 C.3       3 GLC5        0.0000 
     87 O          28.4415   56.3330   -2.6885 O.2       1 ALC1        0.0000 
     88 O          28.3720   54.9540   -2.8200 O.2       7 ALL1        0.0000 
     89 O          28.5110   57.7120   -2.5570 O.2       4 ALP1        0.0000 
     90 O          29.4165   55.8800   -2.4535 O.2       1 ALC1        0.0000 
     91 O          30.4610   56.8060   -2.0870 O.2       4 ALP1        0.0000 
     92 CA         27.9025   54.6025   -7.1205 C.3       3 GLC5        0.0000 
     93 CA         28.9380   54.7130   -5.1330 C.3       9 GLL5        0.0000 
     94 CA         26.8670   54.4920   -9.1080 C.3       6 GLP5        0.0000 
     95 CA         26.9355   54.0550   -5.2600 C.3       3 GLC5        0.0000 
     96 CA         24.9330   53.3970   -5.3870 C.3       6 GLP5        0.0000 
     97 CA         29.7115   57.6835   -3.9040 C.3       3 GLC5        0.0000 
     98 CA         28.9980   56.2250   -5.2940 C.3       9 GLL5        0.0000 
     99 CA         30.4250   59.1420   -2.5140 C.3       6 GLP5        0.0000 
    100 CA         27.0790   57.0415   -5.9810 C.3       3 GLC5        0.0000 
    101 CA         25.1600   57.8580   -6.6680 C.3       6 GLP5        0.0000 
    102 N          27.7675   57.6585   -9.5425 N.am      2 SEC2        0.0000 
    103 N          28.9860   58.0550   -8.6970 N.am      8 SEL2        0.0000 
    104 N          26.5490   57.2620  -10.3880 N.am      5 SEP2        0.0000 
    105 N          28.7985   59.6895   -5.0380 N.am      2 SEC2        0.0000 
    106 N          29.0450   59.1220   -6.4180 N.am      8 SEL2        0.0000 
    107 N          28.5520   60.2570   -3.6580 N.am      5 SEP2        0.0000 
    108 CA         32.3098   57.0958  -10.5365 C.3       3 GLC5        0.0000 
    109 CA         30.6360   56.2880  -11.5390 C.3       6 GLP5        0.0000 
    110 CA         33.9587   59.8618   -8.9905 C.3       3 GLC5        0.0000 
    111 CA         33.9587   55.5583  -10.3315 C.3       3 GLC5        0.0000 
    112 CA         32.9400   53.7710  -10.6110 C.3       6 GLP5        0.0000 
    113 CA         37.0245   55.6895   -9.4020 C.3       3 GLC5        0.0000 
    114 CA         35.5280   56.8290   -9.9570 C.3       9 GLL5        0.0000 
    115 CA         37.8710   54.1640   -8.7790 C.3       6 GLP5        0.0000 
    116 CA         39.4928   60.2685  -11.5693 C.3       3 GLC5        0.0000 
    117 CA         36.7592   62.6045  -10.3936 C.3       3 GLC5        0.0000 
    118 CA         38.4070   61.9290  -10.5470 C.3       9 GLL5        0.0000 
    119 CA         35.3550   63.4630   -9.7170 C.3       6 GLP5        0.0000 
    120 CA         33.0772   48.4515   -2.3632 C.3       3 GLC5        0.0000 
    121 CA         32.7770   49.0260   -0.6810 C.3       9 GLL5        0.0000 
    122 CA         32.7520   48.2370   -4.2540 C.3       6 GLP5        0.0000 
    123 CA         33.4147   49.7440    1.1223 C.3       3 GLC5        0.0000 
    124 CA         33.4270   50.8220    2.7170 C.3       6 GLP5        0.0000 
    125 CA         33.4442   50.7875    0.8310 C.3       3 GLC5        0.0000 
    126 CA         32.8150   50.3710   -1.0560 C.3       9 GLL5        0.0000 
    127 CA         33.2619   51.5718   -2.9518 C.3       3 GLC5        0.0000 
    128 CA         33.9740   52.2580   -4.6580 C.3       6 GLP5        0.0000 
    129 CA         32.1059   49.1686   -2.7295 C.3       3 GLC5        0.0000 
@<TRIPOS>BOND
@<TRIPOS>SUBSTRUCTURE
     1 ALC1       16 GROUP        1 X    ALC  0     ROOT ALC X 1
     2 SEC2        1 GROUP        1 X    SEC  0     **** SEC X 2
     3 GLC5       10 GROUP        1 X    GLC  0     **** GLC X 6
     4 ALP1       18 GROUP        1 Y    ALP  0     ROOT ALP Y 8
     5 SEP2        3 GROUP        1 Y    SEP  0     **** SEP Y 9
     6 GLP5       12 GROUP        1 Y    GLP  0     **** GLP Y 13
     7 ALL1       17 GROUP        1 Z    ALL  0     ROOT ALL Z 15
     8 SEL2        2 GROUP        1 Z    SEL  0     **** SEL Z 16
     9 GLL5       11 GROUP        1 Z    GLL  0     **** GLL Z 20
@<TRIPOS>SET

