#    Name: 2jk6_FAD_1_ligand
#    Modification time : Tue Mar 25 21:00:14 2014

@<TRIPOS>MOLECULE
2jk6_FAD_1_ligand
   84    89     1     0     0
SMALL
NO_CHARGES


@<TRIPOS>ATOM
      1 PA         31.7060   56.4150   -7.8760 P.3       1 FAD1490     0.0000 
      2 O1A        32.7430   55.8610   -6.9340 O.co2     1 FAD1490     0.0000 
      3 O2A        30.7240   55.3630   -8.3480 O.co2     1 FAD1490     0.0000 
      4 O5B        32.4340   57.1060   -9.1250 O.3       1 FAD1490     0.0000 
      5 C5B        33.5400   57.9450   -8.9210 C.3       1 FAD1490     0.0000 
      6 C4B        34.4270   57.8620  -10.1470 C.3       1 FAD1490     0.0000 
      7 O4B        35.0470   59.1130  -10.3620 O.3       1 FAD1490     0.0000 
      8 C3B        35.5280   56.8290   -9.9570 C.3       1 FAD1490     0.0000 
      9 O3B        35.4220   55.8430  -10.9580 O.3       1 FAD1490     0.0000 
     10 C2B        36.8280   57.6010  -10.0930 C.3       1 FAD1490     0.0000 
     11 O2B        37.7560   56.9270  -10.9130 O.3       1 FAD1490     0.0000 
     12 C1B        36.3900   58.9000  -10.7480 C.3       1 FAD1490     0.0000 
     13 N9A        37.2310   60.0530  -10.3800 N.pl3     1 FAD1490     0.0000 
     14 C8A        37.7290   60.3740   -9.1450 C.2       1 FAD1490     0.0000 
     15 N7A        38.4430   61.5170   -9.2600 N.2       1 FAD1490     0.0000 
     16 C5A        38.4070   61.9290  -10.5470 C.ar      1 FAD1490     0.0000 
     17 C6A        38.9590   63.0250  -11.2060 C.ar      1 FAD1490     0.0000 
     18 N6A        39.5100   64.0150  -10.5150 N.pl3     1 FAD1490     0.0000 
     19 N1A        38.7370   63.1840  -12.5570 N.ar      1 FAD1490     0.0000 
     20 C2A        37.9750   62.2630  -13.2570 C.ar      1 FAD1490     0.0000 
     21 N3A        37.4310   61.1780  -12.5970 N.ar      1 FAD1490     0.0000 
     22 C4A        37.6440   61.0150  -11.2640 C.ar      1 FAD1490     0.0000 
     23 N1         26.8410   50.8900   -2.2030 N.2       1 FAD1490     0.0000 
     24 C2         25.6480   50.1840   -2.2070 C.2       1 FAD1490     0.0000 
     25 O2         24.5930   50.7260   -2.5410 O.2       1 FAD1490     0.0000 
     26 N3         25.6370   48.8570   -1.8340 N.am      1 FAD1490     0.0000 
     27 C4         26.8080   48.2350   -1.4560 C.2       1 FAD1490     0.0000 
     28 O4         26.7740   47.0530   -1.1290 O.2       1 FAD1490     0.0000 
     29 C4X        28.0130   48.9380   -1.4500 C.2       1 FAD1490     0.0000 
     30 N5         29.1880   48.3110   -1.0770 N.2       1 FAD1490     0.0000 
     31 C5X        30.3850   48.9980   -1.0710 C.ar      1 FAD1490     0.0000 
     32 C6         31.5590   48.3450   -0.6910 C.ar      1 FAD1490     0.0000 
     33 C7         32.7770   49.0260   -0.6810 C.ar      1 FAD1490     0.0000 
     34 C7M        34.0280   48.3060   -0.2640 C.3       1 FAD1490     0.0000 
     35 C8         32.8150   50.3710   -1.0560 C.ar      1 FAD1490     0.0000 
     36 C8M        34.1080   51.1350   -1.0540 C.3       1 FAD1490     0.0000 
     37 C9         31.6380   51.0180   -1.4360 C.ar      1 FAD1490     0.0000 
     38 C9A        30.4140   50.3400   -1.4470 C.ar      1 FAD1490     0.0000 
     39 N10        29.2340   50.9780   -1.8220 N.pl3     1 FAD1490     0.0000 
     40 C10        28.0310   50.2790   -1.8260 C.2       1 FAD1490     0.0000 
     41 C1'        29.2230   52.4710   -1.9950 C.3       1 FAD1490     0.0000 
     42 C2'        29.1770   52.8180   -3.4790 C.3       1 FAD1490     0.0000 
     43 O2'        30.2490   52.1840   -4.1380 O.3       1 FAD1490     0.0000 
     44 C3'        29.2740   54.3190   -3.6970 C.3       1 FAD1490     0.0000 
     45 O3'        28.3720   54.9540   -2.8200 O.3       1 FAD1490     0.0000 
     46 C4'        28.9380   54.7130   -5.1330 C.3       1 FAD1490     0.0000 
     47 O4'        29.8400   54.1130   -6.0380 O.3       1 FAD1490     0.0000 
     48 C5'        28.9980   56.2250   -5.2940 C.3       1 FAD1490     0.0000 
     49 O5'        28.7100   56.5900   -6.6220 O.3       1 FAD1490     0.0000 
     50 P          29.3910   57.9060   -7.2440 P.3       1 FAD1490     0.0000 
     51 O1P        28.9860   58.0550   -8.6970 O.co2     1 FAD1490     0.0000 
     52 O2P        29.0450   59.1220   -6.4180 O.co2     1 FAD1490     0.0000 
     53 O3P        30.9780   57.6460   -7.1390 O.3       1 FAD1490     0.0000 
     54 H          34.1370   57.6439   -8.0552 H         1 FAD1490     0.0000 
     55 H          33.2500   58.9914   -8.7881 H         1 FAD1490     0.0000 
     56 H          33.8308   57.5695  -10.9910 H         1 FAD1490     0.0000 
     57 H          35.4591   56.4462   -8.9703 H         1 FAD1490     0.0000 
     58 H          37.1869   57.8281   -9.1211 H         1 FAD1490     0.0000 
     59 H          36.4389   58.7436  -11.8303 H         1 FAD1490     0.0000 
     60 H          37.5894   59.8677   -8.3413 H         1 FAD1490     0.0000 
     61 H          39.4644   63.9352   -9.5192 H         1 FAD1490     0.0000 
     62 H          39.9210   64.7513  -11.0525 H         1 FAD1490     0.0000 
     63 H          37.8154   62.3881  -14.2663 H         1 FAD1490     0.0000 
     64 H          24.7500   48.3275   -1.8376 H         1 FAD1490     0.0000 
     65 H          31.5256   47.3529   -0.4159 H         1 FAD1490     0.0000 
     66 H          31.6694   52.0126   -1.7136 H         1 FAD1490     0.0000 
     67 H          30.1209   52.9012   -1.5577 H         1 FAD1490     0.0000 
     68 H          28.3497   52.8943   -1.5044 H         1 FAD1490     0.0000 
     69 H          28.2243   52.4818   -3.8714 H         1 FAD1490     0.0000 
     70 H          30.2923   54.6250   -3.4922 H         1 FAD1490     0.0000 
     71 H          27.9162   54.4017   -5.3326 H         1 FAD1490     0.0000 
     72 H          30.0040   56.5515   -4.9830 H         1 FAD1490     0.0000 
     73 H          28.2822   56.6629   -4.5790 H         1 FAD1490     0.0000 
     74 H          34.8301   48.9019   -0.3032 H         1 FAD1490     0.0000 
     75 H          33.9638   47.9621    0.6728 H         1 FAD1490     0.0000 
     76 H          34.2178   47.5200   -0.8524 H         1 FAD1490     0.0000 
     77 H          34.5216   51.1627   -0.1440 H         1 FAD1490     0.0000 
     78 H          34.7817   50.7265   -1.6698 H         1 FAD1490     0.0000 
     79 H          33.9799   52.0826   -1.3468 H         1 FAD1490     0.0000 
     80 H          35.3225   56.3520  -11.8130 H         1 FAD1490     0.0000 
     81 H          37.3643   56.9650  -11.8323 H         1 FAD1490     0.0000 
     82 H          30.3937   52.7190   -4.9704 H         1 FAD1490     0.0000 
     83 H          28.5890   55.9279   -2.8863 H         1 FAD1490     0.0000 
     84 H          30.3221   54.8767   -6.4674 H         1 FAD1490     0.0000 
@<TRIPOS>BOND
     1    2    1 ar   
     2    3    1 ar   
     3    4    1 1    
     4   53    1 1    
     5    5    4 1    
     6    6    5 1    
     7   54    5 1    
     8   55    5 1    
     9    7    6 1    
    10    8    6 1    
    11   56    6 1    
    12   12    7 1    
    13    9    8 1    
    14   10    8 1    
    15   57    8 1    
    16   80    9 1    
    17   11   10 1    
    18   12   10 1    
    19   58   10 1    
    20   81   11 1    
    21   13   12 1    
    22   59   12 1    
    23   14   13 1    
    24   22   13 1    
    25   15   14 2    
    26   60   14 1    
    27   16   15 1    
    28   17   16 ar   
    29   22   16 ar   
    30   18   17 1    
    31   19   17 ar   
    32   61   18 1    
    33   62   18 1    
    34   20   19 ar   
    35   21   20 ar   
    36   63   20 1    
    37   22   21 ar   
    38   24   23 1    
    39   40   23 2    
    40   25   24 2    
    41   26   24 am   
    42   27   26 am   
    43   64   26 1    
    44   28   27 2    
    45   29   27 1    
    46   30   29 2    
    47   40   29 1    
    48   31   30 1    
    49   32   31 ar   
    50   38   31 ar   
    51   33   32 ar   
    52   65   32 1    
    53   34   33 1    
    54   35   33 ar   
    55   74   34 1    
    56   75   34 1    
    57   76   34 1    
    58   36   35 1    
    59   37   35 ar   
    60   77   36 1    
    61   78   36 1    
    62   79   36 1    
    63   38   37 ar   
    64   66   37 1    
    65   39   38 1    
    66   40   39 1    
    67   41   39 1    
    68   42   41 1    
    69   67   41 1    
    70   68   41 1    
    71   43   42 1    
    72   44   42 1    
    73   69   42 1    
    74   82   43 1    
    75   45   44 1    
    76   46   44 1    
    77   70   44 1    
    78   83   45 1    
    79   47   46 1    
    80   48   46 1    
    81   71   46 1    
    82   84   47 1    
    83   49   48 1    
    84   72   48 1    
    85   73   48 1    
    86   50   49 1    
    87   51   50 ar   
    88   52   50 ar   
    89   53   50 1    
@<TRIPOS>SUBSTRUCTURE
     1 FAD1490     1 GROUP   
@<TRIPOS>SET

