#    Name: 1uyg_PU2_1_INTS_M
#    Modification time : Tue Mar 25 07:19:17 2014

@<TRIPOS>MOLECULE
1uyg_PU2_1_INTS_M
   53     0     6     0     0
SMALL
NO_CHARGES


@<TRIPOS>ATOM
      1 CA          9.7080    9.6635   22.9640 C.3       2 GLC5        0.0000 
      2 CA          7.6810   10.0890   22.8450 C.3       6 GLL5        0.0000 
      3 CA         11.7350    9.2380   23.0830 C.3       4 GLP5        0.0000 
      4 CA          8.7680   11.1825   21.7195 C.3       2 GLC5        0.0000 
      5 CA          9.8550   12.2760   20.5940 C.3       4 GLP5        0.0000 
      6 CA          1.8165   11.2000   26.9620 C.3       2 GLC5        0.0000 
      7 CA          1.0480   10.0930   25.7560 C.3       6 GLL5        0.0000 
      8 CA          2.5850   12.3070   28.1680 C.3       4 GLP5        0.0000 
      9 CA          0.0230   10.0600   22.8550 C.3       2 GLC5        0.0000 
     10 CA          0.2840   10.6970   24.8250 C.3       6 GLL5        0.0000 
     11 CA         -0.2380    9.4230   20.8850 C.3       4 GLP5        0.0000 
     12 CA          0.8765   12.2135   26.2135 C.3       2 GLC5        0.0000 
     13 CA          1.4690   13.7300   27.6020 C.3       4 GLP5        0.0000 
     14 CA         -2.2985    9.3555   25.6695 C.3       2 GLC5        0.0000 
     15 CA         -1.0660   10.8650   25.0730 C.3       6 GLL5        0.0000 
     16 CA         -3.5310    7.8460   26.2660 C.3       4 GLP5        0.0000 
     17 CA         -1.4915   12.8305   25.6355 C.3       2 GLC5        0.0000 
     18 CA         -1.9170   14.7960   26.1980 C.3       4 GLP5        0.0000 
     19 O          -3.4335   11.7115   24.2430 O.2       1 ALC1        0.0000 
     20 O          -1.9680   11.4750   24.1540 O.2       5 ALL1        0.0000 
     21 O          -4.8990   11.9480   24.3320 O.2       3 ALP1        0.0000 
     22 O          -2.0370   12.1570   22.8405 O.2       1 ALC1        0.0000 
     23 O          -2.1060   12.8390   21.5270 O.2       3 ALP1        0.0000 
     24 CA         -1.9410    8.2765   29.3650 C.3       2 GLC5        0.0000 
     25 CA         -1.3040    9.4820   28.5200 C.3       6 GLL5        0.0000 
     26 CA         -2.5780    7.0710   30.2100 C.3       4 GLP5        0.0000 
     27 CA         -2.0805   10.4130   29.8215 C.3       2 GLC5        0.0000 
     28 CA         -2.8570   11.3440   31.1230 C.3       4 GLP5        0.0000 
     29 CA          4.7840   15.8080   27.6730 C.3       2 GLC5        0.0000 
     30 CA          5.0310   16.0220   25.7110 C.3       6 GLL5        0.0000 
     31 CA          4.5370   15.5940   29.6350 C.3       4 GLP5        0.0000 
     32 CA          4.8305   16.3345   23.7775 C.3       2 GLC5        0.0000 
     33 CA          4.6300   16.6470   21.8440 C.3       4 GLP5        0.0000 
     34 CA          3.6030   17.1225   25.0735 C.3       2 GLC5        0.0000 
     35 CA          2.1750   18.2230   24.4360 C.3       4 GLP5        0.0000 
     36 CA          5.6180   17.5690   25.9145 C.3       2 GLC5        0.0000 
     37 CA          6.2050   19.1160   26.1180 C.3       4 GLP5        0.0000 
     38 CA         -2.2692    8.7757   27.0365 C.3       2 GLC5        0.0000 
     39 CA         -0.7110    9.9290   27.0940 C.3       6 GLL5        0.0000 
     40 CA          0.3713   10.6582   28.7040 C.3       2 GLC5        0.0000 
     41 CA          1.7500   11.6110   29.6010 C.3       4 GLP5        0.0000 
     42 CA          5.4968   11.6402   25.3715 C.3       2 GLC5        0.0000 
     43 CA          4.4370   11.6390   23.6640 C.3       6 GLL5        0.0000 
     44 CA          5.8770   11.6890   27.2050 C.3       4 GLP5        0.0000 
     45 CA          3.4730   12.7873   26.3077 C.3       2 GLC5        0.0000 
     46 CA          3.9210   12.7510   24.2870 C.3       6 GLL5        0.0000 
     47 CA          5.1190   12.4782   25.8263 C.3       2 GLC5        0.0000 
     48 CA          4.4213   12.2622   22.0655 C.3       2 GLC5        0.0000 
     49 CA          4.8940   12.6130   20.2540 C.3       4 GLP5        0.0000 
     50 CA          6.1535   12.4078   25.6190 C.3       2 GLC5        0.0000 
     51 CA          6.6830   12.5560   23.7270 C.3       6 GLL5        0.0000 
     52 CA          5.5511   12.7432   22.1041 C.3       2 GLC5        0.0000 
     53 CA          6.1770   13.6970   24.3390 C.3       6 GLL5        0.0000 
@<TRIPOS>BOND
@<TRIPOS>SUBSTRUCTURE
     1 ALC1       19 GROUP        1 X    ALC  0     ROOT ALC X 1
     2 GLC5        1 GROUP        1 X    GLC  0     **** GLC X 6
     3 ALP1       21 GROUP        1 Y    ALP  0     ROOT ALP Y 8
     4 GLP5        3 GROUP        1 Y    GLP  0     **** GLP Y 13
     5 ALL1       20 GROUP        1 Z    ALL  0     ROOT ALL Z 15
     6 GLL5        2 GROUP        1 Z    GLL  0     **** GLL Z 20
@<TRIPOS>SET

