#    Name: 1uyg_PU2_1_ligand
#    Modification time : Tue Mar 25 07:19:17 2014

@<TRIPOS>MOLECULE
1uyg_PU2_1_ligand
   36    38     1     0     0
SMALL
NO_CHARGES


@<TRIPOS>ATOM
      1 C18         7.6810   10.0890   22.8450 C.3       1 PU21224     0.0000 
      2 N2          2.2600    9.9580   25.3190 N.2       1 PU21224     0.0000 
      3 C12         1.0480   10.0930   25.7560 C.ar      1 PU21224     0.0000 
      4 N4          0.5710    9.6940   26.9140 N.ar      1 PU21224     0.0000 
      5 C14        -0.7110    9.9290   27.0940 C.ar      1 PU21224     0.0000 
      6 C9          3.5150   10.5050   23.2700 C.3       1 PU21224     0.0000 
      7 N3         -1.5560   10.4980   26.2430 N.ar      1 PU21224     0.0000 
      8 C11         0.2840   10.6970   24.8250 C.ar      1 PU21224     0.0000 
      9 C13        -1.0660   10.8650   25.0730 C.ar      1 PU21224     0.0000 
     10 N5         -1.9680   11.4750   24.1540 N.pl3     1 PU21224     0.0000 
     11 N1          1.0320   10.9440   23.7520 N.pl3     1 PU21224     0.0000 
     12 C10         2.2550   10.4610   24.0760 C.2       1 PU21224     0.0000 
     13 C1          5.7960   11.5440   23.4120 C.ar      1 PU21224     0.0000 
     14 C6          4.4370   11.6390   23.6640 C.ar      1 PU21224     0.0000 
     15 C5          3.9210   12.7510   24.2870 C.ar      1 PU21224     0.0000 
     16 C2          6.6830   12.5560   23.7270 C.ar      1 PU21224     0.0000 
     17 C3          6.1770   13.6970   24.3390 C.ar      1 PU21224     0.0000 
     18 C4          4.8010   13.7840   24.6080 C.ar      1 PU21224     0.0000 
     19 F1         -1.3040    9.4820   28.5200 F         1 PU21224     0.0000 
     20 O1          4.2350   14.9180   25.2610 O.3       1 PU21224     0.0000 
     21 O2          6.2690   10.3840   22.8050 O.3       1 PU21224     0.0000 
     22 C7          5.0310   16.0220   25.7110 C.3       1 PU21224     0.0000 
     23 H           3.2645   10.6052   22.1993 H         1 PU21224     0.0000 
     24 H           4.0575    9.5497   23.3813 H         1 PU21224     0.0000 
     25 H          -1.5800   11.7526   23.2752 H         1 PU21224     0.0000 
     26 H          -2.9131   11.5741   24.4653 H         1 PU21224     0.0000 
     27 H           0.7813   11.3597   22.9434 H         1 PU21224     0.0000 
     28 H           2.9336   12.8262   24.5097 H         1 PU21224     0.0000 
     29 H           7.6732   12.4724   23.5196 H         1 PU21224     0.0000 
     30 H           6.7956   14.4698   24.5937 H         1 PU21224     0.0000 
     31 H           8.2229   10.8070   22.4081 H         1 PU21224     0.0000 
     32 H           8.0152    9.9993   23.7832 H         1 PU21224     0.0000 
     33 H           7.8950    9.2329   22.3745 H         1 PU21224     0.0000 
     34 H           5.7167   15.7368   26.3807 H         1 PU21224     0.0000 
     35 H           5.5216   16.4580   24.9566 H         1 PU21224     0.0000 
     36 H           4.4733   16.7292   26.1455 H         1 PU21224     0.0000 
@<TRIPOS>BOND
     1   21    1 1    
     2   31    1 1    
     3   32    1 1    
     4   33    1 1    
     5    3    2 1    
     6   12    2 2    
     7    4    3 ar   
     8    8    3 ar   
     9    5    4 ar   
    10    7    5 ar   
    11   19    5 1    
    12   12    6 1    
    13   14    6 1    
    14   23    6 1    
    15   24    6 1    
    16    9    7 ar   
    17    9    8 ar   
    18   11    8 1    
    19   10    9 1    
    20   25   10 1    
    21   26   10 1    
    22   12   11 1    
    23   27   11 1    
    24   14   13 ar   
    25   16   13 ar   
    26   21   13 1    
    27   15   14 ar   
    28   18   15 ar   
    29   28   15 1    
    30   17   16 ar   
    31   29   16 1    
    32   18   17 ar   
    33   30   17 1    
    34   20   18 1    
    35   22   20 1    
    36   34   22 1    
    37   35   22 1    
    38   36   22 1    
@<TRIPOS>SUBSTRUCTURE
     1 PU21224     1 GROUP   
@<TRIPOS>SET

