#    Name: 4KH6_1_CAVITY_N1_6.mol2
#    Modification time : Tue Mar 11 10:53:14 2014

@<TRIPOS>MOLECULE
4KH6_1_CAVITY_N1_6.mol2
  101     0     6     0     0
SMALL
NO_CHARGES


@<TRIPOS>ATOM
      1 OD1       -25.0835  -24.4785  -41.3774 O.3       3 ASP3        0.0000 
      2 O         -24.5021  -25.6086  -42.1742 O.2       2 ALA2        0.0000 
      3 NZ        -25.9793  -24.1278  -42.5283 N.2       4 LYS4        0.0000 
      4 OG        -26.2949  -28.4384  -33.8209 O.2       1 SER1        0.0000 
      5 CA        -27.1907  -28.0877  -34.9718 C.3       5 GLY6        0.0000 
      6 OG        -26.6093  -29.2179  -35.7685 O.2       1 SER1        0.0000 
      7 O         -28.0865  -27.7371  -36.1227 O.2       2 ALA2        0.0000 
      8 DU        -27.5052  -28.8673  -36.9194 H         6 CUB7        0.0000 
      9 O         -26.9238  -29.9974  -37.7162 O.2       2 ALA2        0.0000 
     10 O         -26.3425  -31.1275  -38.5130 O.2       2 ALA2        0.0000 
     11 O         -28.9823  -27.3865  -37.2735 O.2       2 ALA2        0.0000 
     12 O         -28.4010  -28.5166  -38.0703 O.2       2 ALA2        0.0000 
     13 N         -30.4595  -25.9058  -37.6277 N.2       2 ALA2        0.0000 
     14 DU        -29.8782  -27.0359  -38.4244 H         6 CUB7        0.0000 
     15 O         -29.2968  -28.1660  -39.2212 O.2       2 ALA2        0.0000 
     16 O         -31.3553  -25.5552  -38.7785 O.2       2 ALA2        0.0000 
     17 O         -30.7740  -26.6853  -39.5753 O.2       2 ALA2        0.0000 
     18 O         -28.4487  -31.2058  -42.7625 O.2       2 ALA2        0.0000 
     19 O         -29.9258  -29.7250  -43.1166 O.2       2 ALA2        0.0000 
     20 CA        -31.9843  -27.1142  -42.6739 C.3       5 GLY6        0.0000 
     21 CA        -27.3482  -29.3603  -33.2818 C.3       5 GLY6        0.0000 
     22 CA        -31.5123  -25.0622  -42.4162 C.3       5 GLY6        0.0000 
     23 DU        -30.9310  -26.1923  -43.2130 H         6 CUB7        0.0000 
     24 OD1       -25.0840  -26.2440  -36.0499 O.3       3 ASP3        0.0000 
     25 O         -24.5027  -27.3741  -36.8466 O.2       2 ALA2        0.0000 
     26 OD1       -25.9798  -25.8933  -37.2008 O.3       3 ASP3        0.0000 
     27 OD1       -25.3985  -27.0235  -37.9975 O.3       3 ASP3        0.0000 
     28 OD1       -26.8756  -25.5427  -38.3516 O.3       3 ASP3        0.0000 
     29 OD1       -26.2943  -26.6729  -39.1484 O.3       3 ASP3        0.0000 
     30 O         -25.7130  -27.8030  -39.9452 O.2       2 ALA2        0.0000 
     31 CA        -28.3528  -24.0620  -38.7058 C.3       5 GLY6        0.0000 
     32 NZ        -27.7715  -25.1921  -39.5025 N.2       4 LYS4        0.0000 
     33 OD1       -27.1901  -26.3222  -40.2993 O.3       3 ASP3        0.0000 
     34 O         -26.6088  -27.4524  -41.0961 O.2       2 ALA2        0.0000 
     35 O         -26.0275  -28.5825  -41.8929 O.2       2 ALA2        0.0000 
     36 NZ        -29.2486  -23.7114  -39.8567 N.2       4 LYS4        0.0000 
     37 NZ        -28.6673  -24.8415  -40.6534 N.2       4 LYS4        0.0000 
     38 DU        -28.0860  -25.9716  -41.4502 H         6 CUB7        0.0000 
     39 DU        -27.5046  -27.1018  -42.2470 H         6 CUB7        0.0000 
     40 DU        -26.9233  -28.2319  -43.0438 H         6 CUB7        0.0000 
     41 CA        -30.1445  -23.3608  -41.0075 C.3       5 GLY6        0.0000 
     42 CA        -29.5631  -24.4909  -41.8043 C.3       5 GLY6        0.0000 
     43 DU        -28.9818  -25.6210  -42.6011 H         6 CUB7        0.0000 
     44 DU        -28.4005  -26.7511  -43.3979 H         6 CUB7        0.0000 
     45 DU        -27.8191  -27.8813  -44.1947 H         6 CUB7        0.0000 
     46 CA        -29.8787  -28.8014  -33.0969 C.3       5 GLY6        0.0000 
     47 CA        -30.7745  -28.4508  -34.2478 C.3       5 GLY6        0.0000 
     48 DU        -30.1932  -29.5809  -35.0446 H         6 CUB7        0.0000 
     49 O         -29.6119  -30.7110  -35.8413 O.2       2 ALA2        0.0000 
     50 CA        -31.6704  -28.1002  -35.3987 C.3       5 GLY6        0.0000 
     51 DU        -31.0890  -29.2303  -36.1954 H         6 CUB7        0.0000 
     52 O         -30.5077  -30.3604  -36.9922 O.2       2 ALA2        0.0000 
     53 CA        -28.2440  -29.0096  -34.4327 C.3       5 GLY6        0.0000 
     54 OG        -27.6627  -30.1398  -35.2295 O.2       1 SER1        0.0000 
     55 CA        -29.7212  -27.5289  -34.7868 C.3       5 GLY6        0.0000 
     56 CA        -29.1399  -28.6590  -35.5836 C.3       5 GLY6        0.0000 
     57 O         -28.5585  -29.7891  -36.3804 O.2       2 ALA2        0.0000 
     58 O         -27.9772  -30.9193  -37.1772 O.2       2 ALA2        0.0000 
     59 O         -30.6170  -27.1783  -35.9377 O.2       2 ALA2        0.0000 
     60 DU        -30.0357  -28.3084  -36.7345 H         6 CUB7        0.0000 
     61 OD1       -29.4544  -29.4385  -37.5313 O.3       3 ASP3        0.0000 
     62 O         -31.5129  -26.8277  -37.0886 O.2       2 ALA2        0.0000 
     63 CA        -30.9315  -27.9578  -37.8854 C.3       5 GLY6        0.0000 
     64 OD1       -24.6120  -24.1919  -35.7921 O.3       3 ASP3        0.0000 
     65 OD1       -24.6596  -26.8811  -40.4843 O.3       3 ASP3        0.0000 
     66 OD1       -26.1368  -25.4003  -40.8384 O.3       3 ASP3        0.0000 
     67 OD1       -25.5555  -26.5305  -41.6352 O.3       3 ASP3        0.0000 
     68 NZ        -24.9741  -27.6606  -42.4319 N.2       4 LYS4        0.0000 
     69 NZ        -24.3928  -28.7907  -43.2287 N.2       4 LYS4        0.0000 
     70 NZ        -27.0326  -25.0497  -41.9893 N.2       4 LYS4        0.0000 
     71 N         -26.4513  -26.1799  -42.7861 N.2       2 ALA2        0.0000 
     72 O         -25.8700  -27.3100  -43.5828 O.2       2 ALA2        0.0000 
     73 NZ        -28.5098  -23.5690  -42.3434 N.2       4 LYS4        0.0000 
     74 N         -27.9285  -24.6991  -43.1402 N.2       2 ALA2        0.0000 
     75 N         -27.3471  -25.8292  -43.9370 N.2       2 ALA2        0.0000 
     76 O         -26.1373  -27.1659  -35.5108 O.2       2 ALA2        0.0000 
     77 O         -25.5560  -28.2960  -36.3076 O.2       2 ALA2        0.0000 
     78 O         -27.0332  -26.8152  -36.6617 O.2       2 ALA2        0.0000 
     79 O         -26.4518  -27.9454  -37.4585 O.2       2 ALA2        0.0000 
     80 O         -25.8705  -29.0755  -38.2553 O.2       2 ALA2        0.0000 
     81 CA        -27.9290  -26.4646  -37.8126 C.3       5 GLY6        0.0000 
     82 DU        -27.3477  -27.5947  -38.6094 H         6 CUB7        0.0000 
     83 O         -26.7663  -28.7249  -39.4062 O.2       2 ALA2        0.0000 
     84 O         -26.1850  -29.8550  -40.2030 O.2       2 ALA2        0.0000 
     85 CA        -28.8248  -26.1140  -38.9635 C.3       5 GLY6        0.0000 
     86 O         -28.2435  -27.2441  -39.7603 O.2       2 ALA2        0.0000 
     87 O         -27.6622  -28.3743  -40.5571 O.2       2 ALA2        0.0000 
     88 O         -27.0808  -29.5044  -41.3538 O.2       2 ALA2        0.0000 
     89 N         -30.3020  -24.6333  -39.3176 N.2       2 ALA2        0.0000 
     90 CA        -29.7207  -25.7634  -40.1144 C.3       5 GLY6        0.0000 
     91 O         -29.1393  -26.8935  -40.9112 O.2       2 ALA2        0.0000 
     92 O         -28.5580  -28.0236  -41.7080 O.2       2 ALA2        0.0000 
     93 O         -27.9767  -29.1538  -42.5047 O.2       2 ALA2        0.0000 
     94 NZ        -27.3953  -30.2839  -43.3015 N.2       4 LYS4        0.0000 
     95 CA        -30.6165  -25.4128  -41.2653 C.3       5 GLY6        0.0000 
     96 CA        -30.0352  -26.5429  -42.0621 C.3       5 GLY6        0.0000 
     97 CA        -29.4538  -27.6730  -42.8589 C.3       5 GLY6        0.0000 
     98 O         -28.8725  -28.8032  -43.6556 O.2       2 ALA2        0.0000 
     99 CA        -32.5662  -27.7496  -36.5496 C.3       5 GLY6        0.0000 
    100 CA        -31.9849  -28.8797  -37.3463 C.3       5 GLY6        0.0000 
    101 O         -32.4569  -30.9317  -37.6041 O.2       2 ALA2        0.0000 
@<TRIPOS>BOND
@<TRIPOS>SUBSTRUCTURE
     1 SER1        4 GROUP   
     2 ALA2        2 GROUP   
     3 ASP3        1 GROUP   
     4 LYS4        3 GROUP   
     5 GLY6        5 GROUP   
     6 CUB7        8 GROUP   
@<TRIPOS>SET

