#    Name: 4kh6_AU1_1_INTS_M
#    Modification time : Tue Mar 25 07:53:52 2014

@<TRIPOS>MOLECULE
4kh6_AU1_1_INTS_M
   55     0    12     0     0
SMALL
NO_CHARGES


@<TRIPOS>ATOM
      1 NZ        -24.5035  -29.7410  -38.4420 N.4       2 LYC4        0.0000 
      2 NZ        -26.2460  -29.4140  -37.7660 N.4      10 LYL4        0.0000 
      3 NZ        -22.7610  -30.0680  -39.1180 N.4       6 LYP4        0.0000 
      4 N         -27.0700  -26.2425  -35.6025 N.am      1 SEC2        0.0000 
      5 N         -26.1200  -27.0220  -36.6040 N.am      9 SEL2        0.0000 
      6 N         -28.0200  -25.4630  -34.6010 N.am      5 SEP2        0.0000 
      7 N         -23.6605  -29.5575  -34.3970 N.am      1 SEC2        0.0000 
      8 N         -24.4410  -28.7400  -35.5970 N.am      9 SEL2        0.0000 
      9 N         -22.8800  -30.3750  -33.1970 N.am      5 SEP2        0.0000 
     10 N         -24.6635  -30.0945  -35.2225 N.am      1 SEC2        0.0000 
     11 N         -24.8860  -31.4490  -34.8480 N.am      5 SEP2        0.0000 
     12 N         -22.8220  -27.1835  -34.5320 N.am      1 SEC2        0.0000 
     13 N         -24.2190  -26.3020  -35.0080 N.am      9 SEL2        0.0000 
     14 N         -21.4250  -28.0650  -34.0560 N.am      5 SEP2        0.0000 
     15 N         -24.1425  -26.9585  -33.8240 N.am      1 SEC2        0.0000 
     16 N         -24.0660  -27.6150  -32.6400 N.am      5 SEP2        0.0000 
     17 NZ        -23.2665  -28.3860  -37.5965 N.4       2 LYC4        0.0000 
     18 NZ        -23.6490  -27.0800  -37.3400 N.4      10 LYL4        0.0000 
     19 Zn        -23.7645  -26.0370  -37.9990 Zn        3 ZIC7        0.0000 
     20 Zn        -23.6490  -27.0800  -37.3400 Zn       11 ZIL7        0.0000 
     21 Zn        -23.8800  -24.9940  -38.6580 Zn        7 ZIP7        0.0000 
     22 N         -23.2665  -28.3860  -37.5965 N.am      1 SEC2        0.0000 
     23 N         -23.6490  -27.0800  -37.3400 N.am      9 SEL2        0.0000 
     24 N         -22.8840  -29.6920  -37.8530 N.am      5 SEP2        0.0000 
     25 CA        -32.7520  -27.2880  -34.6395 C.3       4 GLC5        0.0000 
     26 CA        -32.7190  -29.1210  -35.4590 C.3      12 GLL5        0.0000 
     27 CA        -32.7850  -25.4550  -33.8200 C.3       8 GLP5        0.0000 
     28 CA        -33.2545  -28.6865  -37.5925 C.3       4 GLC5        0.0000 
     29 CA        -33.7900  -28.2520  -39.7260 C.3       8 GLP5        0.0000 
     30 CA        -35.7420  -27.9395  -36.6165 C.3       4 GLC5        0.0000 
     31 CA        -34.9830  -29.8670  -36.2710 C.3      12 GLL5        0.0000 
     32 CA        -36.5010  -26.0120  -36.9620 C.3       8 GLP5        0.0000 
     33 CA        -36.3545  -27.7445  -34.5340 C.3       4 GLC5        0.0000 
     34 CA        -37.2330  -29.3800  -35.7180 C.3      12 GLL5        0.0000 
     35 CA        -35.4760  -26.1090  -33.3500 C.3       8 GLP5        0.0000 
     36 CA        -36.8670  -27.6960  -36.3400 C.3       4 GLC5        0.0000 
     37 CA        -38.5490  -28.7480  -37.2065 C.3       4 GLC5        0.0000 
     38 CA        -39.8650  -28.1160  -38.6950 C.3       8 GLP5        0.0000 
     39 CA        -37.5460  -31.5120  -35.3095 C.3       4 GLC5        0.0000 
     40 CA        -37.8590  -33.6440  -34.9010 C.3       8 GLP5        0.0000 
     41 CA        -38.7720  -28.3785  -35.1675 C.3       4 GLC5        0.0000 
     42 CA        -40.3110  -27.3770  -34.6170 C.3       8 GLP5        0.0000 
     43 CA        -38.3980  -29.5325  -38.0815 C.3       4 GLC5        0.0000 
     44 CA        -36.9310  -30.9490  -37.4680 C.3      12 GLL5        0.0000 
     45 CA        -37.3950  -32.2965  -36.1845 C.3       4 GLC5        0.0000 
     46 CA        -29.2912  -27.7623  -34.1280 C.3       4 GLC5        0.0000 
     47 CA        -30.6860  -29.7040  -34.2660 C.3      12 GLL5        0.0000 
     48 CA        -28.0520  -26.2580  -33.3860 C.3       8 GLP5        0.0000 
     49 CA        -31.8681  -27.8986  -33.5652 C.3       4 GLC5        0.0000 
     50 CA        -30.3750  -28.8290  -35.4740 C.3      12 GLL5        0.0000 
     51 CA        -32.3800  -26.1710  -32.5310 C.3       8 GLP5        0.0000 
     52 CA        -34.5055  -29.2927  -38.2590 C.3       4 GLC5        0.0000 
     53 CA        -35.2800  -32.0217  -35.9650 C.3       4 GLC5        0.0000 
     54 CA        -35.4590  -30.8000  -37.3130 C.3      12 GLL5        0.0000 
     55 CA        -35.3390  -33.7100  -35.1380 C.3       8 GLP5        0.0000 
@<TRIPOS>BOND
@<TRIPOS>SUBSTRUCTURE
     1 SEC2        4 GROUP        1 X    SEC  0     ROOT SEC X 2
     2 LYC4        1 GROUP        1 X    LYC  0     **** LYC X 4
     3 ZIC7       19 GROUP        1 X    ZIC  0     **** ZIC X 5
     4 GLC5       25 GROUP        1 X    GLC  0     **** GLC X 6
     5 SEP2        6 GROUP        1 Y    SEP  0     ROOT SEP Y 9
     6 LYP4        3 GROUP        1 Y    LYP  0     **** LYP Y 11
     7 ZIP7       21 GROUP        1 Y    ZIP  0     **** ZIP Y 12
     8 GLP5       27 GROUP        1 Y    GLP  0     **** GLP Y 13
     9 SEL2        5 GROUP        1 Z    SEL  0     ROOT SEL Z 16
    10 LYL4        2 GROUP        1 Z    LYL  0     **** LYL Z 18
    11 ZIL7       20 GROUP        1 Z    ZIL  0     **** ZIL Z 19
    12 GLL5       26 GROUP        1 Z    GLL  0     **** GLL Z 20
@<TRIPOS>SET

