#    Name: 4kh6_AU1_1_ligand
#    Modification time : Tue Mar 25 07:53:52 2014

@<TRIPOS>MOLECULE
4kh6_AU1_1_ligand
   39    41     1     0     0
SMALL
NO_CHARGES


@<TRIPOS>ATOM
      1 O1A       -26.2460  -29.4140  -37.7660 O.co2     1 AU1700      0.0000 
      2 PA        -27.1250  -28.2770  -37.3010 P.3       1 AU1700      0.0000 
      3 O2A       -28.0190  -27.6140  -38.3240 O.co2     1 AU1700      0.0000 
      4 N3A       -26.1200  -27.0220  -36.6040 N.3       1 AU1700      0.0000 
      5 PB        -24.4700  -27.3160  -36.0960 P.3       1 AU1700      0.0000 
      6 O2B       -24.4410  -28.7400  -35.5970 O.co2     1 AU1700      0.0000 
      7 O1B       -24.2190  -26.3020  -35.0080 O.co2     1 AU1700      0.0000 
      8 O3B       -23.6490  -27.0800  -37.3400 O.co2     1 AU1700      0.0000 
      9 O5'       -28.0570  -28.8580  -36.1190 O.3       1 AU1700      0.0000 
     10 C5'       -29.3210  -29.4720  -36.3700 C.3       1 AU1700      0.0000 
     11 C4'       -30.3750  -28.8290  -35.4740 C.3       1 AU1700      0.0000 
     12 C3'       -30.6860  -29.7040  -34.2660 C.3       1 AU1700      0.0000 
     13 O3'       -30.3300  -28.9990  -33.0690 O.3       1 AU1700      0.0000 
     14 C2'       -32.1820  -29.9860  -34.3290 C.3       1 AU1700      0.0000 
     15 O2'       -32.8570  -29.6290  -33.1200 O.3       1 AU1700      0.0000 
     16 C1'       -32.7190  -29.1210  -35.4590 C.3       1 AU1700      0.0000 
     17 O4'       -31.5940  -28.6440  -36.2030 O.3       1 AU1700      0.0000 
     18 N9        -33.6450  -29.9060  -36.3200 N.pl3     1 AU1700      0.0000 
     19 C4        -34.9830  -29.8670  -36.2710 C.ar      1 AU1700      0.0000 
     20 C5        -35.4590  -30.8000  -37.3130 C.ar      1 AU1700      0.0000 
     21 N7        -34.3650  -31.3260  -37.8910 N.2       1 AU1700      0.0000 
     22 C8        -33.2830  -30.7850  -37.2760 C.2       1 AU1700      0.0000 
     23 N3        -35.9070  -29.1960  -35.5250 N.ar      1 AU1700      0.0000 
     24 C2        -37.2330  -29.3800  -35.7180 C.ar      1 AU1700      0.0000 
     25 N1        -37.7350  -30.2160  -36.6540 N.ar      1 AU1700      0.0000 
     26 C6        -36.9310  -30.9490  -37.4680 C.ar      1 AU1700      0.0000 
     27 N6        -37.4530  -31.7860  -38.3960 N.pl3     1 AU1700      0.0000 
     28 H         -29.3032  -30.5436  -36.1514 H         1 AU1700      0.0000 
     29 H         -29.6380  -29.3405  -37.4086 H         1 AU1700      0.0000 
     30 H         -29.9969  -27.8847  -35.1169 H         1 AU1700      0.0000 
     31 H         -30.1587  -30.6221  -34.3767 H         1 AU1700      0.0000 
     32 H         -32.3287  -31.0068  -34.5993 H         1 AU1700      0.0000 
     33 H         -33.2548  -28.2957  -35.0096 H         1 AU1700      0.0000 
     34 H         -32.3517  -31.0096  -37.5032 H         1 AU1700      0.0000 
     35 H         -37.9127  -28.8411  -35.1039 H         1 AU1700      0.0000 
     36 H         -38.4506  -31.8012  -38.4633 H         1 AU1700      0.0000 
     37 H         -36.7946  -32.3147  -38.9317 H         1 AU1700      0.0000 
     38 H         -29.4319  -29.3578  -32.8149 H         1 AU1700      0.0000 
     39 H         -32.1465  -29.2439  -32.5310 H         1 AU1700      0.0000 
@<TRIPOS>BOND
     1    2    1 ar   
     2    3    2 ar   
     3    4    2 1    
     4    9    2 1    
     5    5    4 1    
     6    6    5 ar   
     7    7    5 ar   
     8    8    5 ar   
     9   10    9 1    
    10   11   10 1    
    11   28   10 1    
    12   29   10 1    
    13   12   11 1    
    14   17   11 1    
    15   30   11 1    
    16   13   12 1    
    17   14   12 1    
    18   31   12 1    
    19   38   13 1    
    20   15   14 1    
    21   16   14 1    
    22   32   14 1    
    23   39   15 1    
    24   17   16 1    
    25   18   16 1    
    26   33   16 1    
    27   19   18 1    
    28   22   18 1    
    29   20   19 ar   
    30   23   19 ar   
    31   21   20 1    
    32   26   20 ar   
    33   22   21 2    
    34   34   22 1    
    35   24   23 ar   
    36   25   24 ar   
    37   35   24 1    
    38   26   25 ar   
    39   27   26 1    
    40   36   27 1    
    41   37   27 1    
@<TRIPOS>SUBSTRUCTURE
     1 AU1700      1 GROUP   
@<TRIPOS>SET

