#    Name: 1KPG_2_CAVITY_N1_6.mol2
#    Modification time : Mon Mar 10 12:41:08 2014

@<TRIPOS>MOLECULE
1KPG_2_CAVITY_N1_6.mol2
   50     0     6     0     0
SMALL
NO_CHARGES


@<TRIPOS>ATOM
      1 N          48.6654   39.1436   55.3353 N.2       2 ALA2        0.0000 
      2 N          48.3059   38.8756   56.7667 N.2       2 ALA2        0.0000 
      3 N          49.0663   37.7079   55.1673 N.2       2 ALA2        0.0000 
      4 CZ         48.7067   37.4400   56.5987 C.ar      4 PHE5        0.0000 
      5 CA         49.4672   36.2723   54.9992 C.3       5 GLY6        0.0000 
      6 CA         49.1076   36.0044   56.4306 C.3       5 GLY6        0.0000 
      7 CA         48.7480   35.7364   57.8620 C.3       5 GLY6        0.0000 
      8 N          50.4663   38.0502   55.5830 N.2       2 ALA2        0.0000 
      9 CZ         50.1067   37.7823   57.0144 C.ar      4 PHE5        0.0000 
     10 CA         50.8672   36.6146   55.4150 C.3       5 GLY6        0.0000 
     11 N          50.5076   36.3466   56.8464 N.2       2 ALA2        0.0000 
     12 CA         45.6681   33.8099   53.5839 C.3       5 GLY6        0.0000 
     13 N          46.4285   32.6422   51.9845 N.2       2 ALA2        0.0000 
     14 CA         46.0689   32.3742   53.4159 C.3       5 GLY6        0.0000 
     15 CA         46.4698   30.9386   53.2478 C.3       5 GLY6        0.0000 
     16 CA         46.1102   30.6707   54.6792 C.3       5 GLY6        0.0000 
     17 CA         45.7507   30.4027   56.1106 C.3       5 GLY6        0.0000 
     18 CA         45.3911   30.1348   57.5420 C.3       5 GLY6        0.0000 
     19 OG         47.6663   37.3657   54.7515 O.2       1 SER1        0.0000 
     20 CA         47.3067   37.0977   56.1829 C.3       5 GLY6        0.0000 
     21 CA         48.0672   35.9300   54.5835 C.3       5 GLY6        0.0000 
     22 CA         47.7076   35.6621   56.0149 C.3       5 GLY6        0.0000 
     23 CA         47.3480   35.3942   57.4463 C.3       5 GLY6        0.0000 
     24 CA         48.4681   34.4944   54.4154 C.3       5 GLY6        0.0000 
     25 DU         48.1085   34.2265   55.8468 H         6 CUB7        0.0000 
     26 CA         47.7489   33.9585   57.2782 C.3       5 GLY6        0.0000 
     27 CA         48.8689   33.0588   54.2474 C.3       5 GLY6        0.0000 
     28 CZ         48.5094   32.7908   55.6788 C.ar      4 PHE5        0.0000 
     29 CA         48.1498   32.5229   57.1102 C.3       5 GLY6        0.0000 
     30 CZ         48.5507   31.0872   56.9422 C.ar      4 PHE5        0.0000 
     31 O          46.6672   35.5878   54.1677 O.2       2 ALA2        0.0000 
     32 O          46.3076   35.3198   55.5991 O.2       2 ALA2        0.0000 
     33 CA         47.4276   34.4201   52.5683 C.3       5 GLY6        0.0000 
     34 CA         47.0681   34.1521   53.9997 C.3       5 GLY6        0.0000 
     35 CA         46.7085   33.8842   55.4311 C.3       5 GLY6        0.0000 
     36 CA         46.3489   33.6163   56.8625 C.3       5 GLY6        0.0000 
     37 O          47.8285   32.9845   52.4002 O.2       2 ALA2        0.0000 
     38 CA         47.4689   32.7165   53.8316 C.3       5 GLY6        0.0000 
     39 CA         47.1094   32.4486   55.2630 C.3       5 GLY6        0.0000 
     40 CA         46.7498   32.1806   56.6944 C.3       5 GLY6        0.0000 
     41 CA         47.8698   31.2809   53.6636 C.3       5 GLY6        0.0000 
     42 CZ         47.5102   31.0129   55.0950 C.ar      4 PHE5        0.0000 
     43 CZ         47.1507   30.7450   56.5264 C.ar      4 PHE5        0.0000 
     44 N          46.7911   30.4770   57.9578 N.2       2 ALA2        0.0000 
     45 CZ         47.9111   29.5773   54.9270 C.ar      4 PHE5        0.0000 
     46 CZ         47.5515   29.3093   56.3584 C.ar      4 PHE5        0.0000 
     47 N          47.1920   29.0414   57.7898 N.2       2 ALA2        0.0000 
     48 NZ         46.5111   29.2350   54.5112 N.2       3 LYS4        0.0000 
     49 NZ         46.1515   28.9671   55.9426 N.2       3 LYS4        0.0000 
     50 O          45.7920   28.6991   57.3740 O.2       2 ALA2        0.0000 
@<TRIPOS>BOND
@<TRIPOS>SUBSTRUCTURE
     1 SER1       19 GROUP   
     2 ALA2        1 GROUP   
     3 LYS4       48 GROUP   
     4 PHE5        4 GROUP   
     5 GLY6        5 GROUP   
     6 CUB7       25 GROUP   
@<TRIPOS>SET

