#    Name: 1kpg_SAH_2_INTS_M
#    Modification time : Tue Mar 25 10:18:02 2014

@<TRIPOS>MOLECULE
1kpg_SAH_2_INTS_M
   82     0     9     0     0
SMALL
NO_CHARGES


@<TRIPOS>ATOM
      1 O          52.2825   38.5095   52.8715 O.2       1 ALC1        0.0000 
      2 O          53.4130   39.2230   53.1850 O.2       7 ALL1        0.0000 
      3 O          51.1520   37.7960   52.5580 O.2       4 ALP1        0.0000 
      4 O          54.1320   38.3310   53.9790 O.2       1 ALC1        0.0000 
      5 O          54.8510   37.4390   54.7730 O.2       4 ALP1        0.0000 
      6 O          53.7375   39.6895   51.8450 O.2       1 ALC1        0.0000 
      7 O          54.0620   40.1560   50.5050 O.2       4 ALP1        0.0000 
      8 CA         50.1060   39.5345   58.6930 C.3       3 GLC5        0.0000 
      9 CA         51.2510   39.1010   57.4250 C.3       9 GLL5        0.0000 
     10 CA         48.9610   39.9680   59.9610 C.3       6 GLP5        0.0000 
     11 N          56.2620   41.2735   55.0425 N.am      2 SEC2        0.0000 
     12 N          55.1820   40.8160   54.3930 N.am      8 SEL2        0.0000 
     13 N          57.3420   41.7310   55.6920 N.am      5 SEP2        0.0000 
     14 N          53.9820   43.4150   55.7575 N.am      2 SEC2        0.0000 
     15 N          53.7890   42.4850   54.7250 N.am      8 SEL2        0.0000 
     16 N          54.1750   44.3450   56.7900 N.am      5 SEP2        0.0000 
     17 CA         49.7830   38.0065   58.6815 C.3       3 GLC5        0.0000 
     18 CA         50.6560   37.4040   57.1430 C.3       9 GLL5        0.0000 
     19 CA         48.9100   38.6090   60.2200 C.3       6 GLP5        0.0000 
     20 CA         51.5985   35.6255   56.6480 C.3       3 GLC5        0.0000 
     21 CA         52.5410   33.8470   56.1530 C.3       6 GLP5        0.0000 
     22 CA         50.3625   35.8995   58.4225 C.3       3 GLC5        0.0000 
     23 CA         50.0690   34.3950   59.7020 C.3       6 GLP5        0.0000 
     24 CA         50.9090   35.5525   55.2910 C.3       3 GLC5        0.0000 
     25 CA         49.8400   37.2750   55.8580 C.3       9 GLL5        0.0000 
     26 CA         51.9780   33.8300   54.7240 C.3       6 GLP5        0.0000 
     27 CA         48.7505   39.6615   54.6965 C.3       3 GLC5        0.0000 
     28 CA         48.4160   37.8360   55.9660 C.3       9 GLL5        0.0000 
     29 CA         49.0850   41.4870   53.4270 C.3       6 GLP5        0.0000 
     30 N          48.6965   39.4855   53.6585 N.am      2 SEC2        0.0000 
     31 N          48.1270   38.6140   54.7860 N.am      8 SEL2        0.0000 
     32 N          49.2660   40.3570   52.5310 N.am      5 SEP2        0.0000 
     33 N          47.1950   39.5185   54.9100 N.am      2 SEC2        0.0000 
     34 N          46.2630   40.4230   55.0340 N.am      5 SEP2        0.0000 
     35 O          46.5970   38.5795   54.1170 O.2       1 ALC1        0.0000 
     36 O          48.1270   38.6140   54.7860 O.2       7 ALL1        0.0000 
     37 O          45.0670   38.5450   53.4480 O.2       4 ALP1        0.0000 
     38 CA         46.3800   36.1110   57.3895 C.3       3 GLC5        0.0000 
     39 CA         47.5530   36.5970   56.0620 C.3       9 GLL5        0.0000 
     40 CA         45.2070   35.6250   58.7170 C.3       6 GLP5        0.0000 
     41 N          45.6340   37.6865   54.5470 N.am      2 SEC2        0.0000 
     42 N          46.2010   36.8280   55.6460 N.am      8 SEL2        0.0000 
     43 N          45.0670   38.5450   53.4480 N.am      5 SEP2        0.0000 
     44 N          44.9930   36.3480   54.7650 N.am      2 SEC2        0.0000 
     45 N          43.7850   35.8680   53.8840 N.am      5 SEP2        0.0000 
     46 CA         50.1300   34.7460   54.9505 C.3       3 GLC5        0.0000 
     47 CA         48.2820   35.6620   55.1770 C.3       9 GLL5        0.0000 
     48 CA         45.4430   30.8370   52.7815 C.3       3 GLC5        0.0000 
     49 CA         46.8260   31.0920   54.1990 C.3       9 GLL5        0.0000 
     50 CA         44.0600   30.5820   51.3640 C.3       6 GLP5        0.0000 
     51 O          46.0205   28.1890   54.6715 O.2       1 ALC1        0.0000 
     52 O          46.5770   29.8420   54.6500 O.2       7 ALL1        0.0000 
     53 O          45.4640   26.5360   54.6930 O.2       4 ALP1        0.0000 
     54 O          45.8520   28.7400   53.7380 O.2       1 ALC1        0.0000 
     55 O          45.1270   27.6380   52.8260 O.2       4 ALP1        0.0000 
     56 N          46.3185   30.4485   51.6165 N.am      2 SEC2        0.0000 
     57 N          46.6410   31.3750   52.8660 N.am      8 SEL2        0.0000 
     58 N          45.9960   29.5220   50.3670 N.am      5 SEP2        0.0000 
     59 CA         48.7145   32.1610   51.5755 C.3       3 GLC5        0.0000 
     60 CA         46.8840   32.6210   52.3920 C.3       9 GLL5        0.0000 
     61 CA         50.5450   31.7010   50.7590 C.3       6 GLP5        0.0000 
     62 CA         48.2705   34.2965   52.2950 C.3       3 GLC5        0.0000 
     63 CA         49.6570   35.9720   52.1980 C.3       6 GLP5        0.0000 
     64 CA         46.6985   33.3215   50.4220 C.3       3 GLC5        0.0000 
     65 CA         46.5130   34.0220   48.4520 C.3       6 GLP5        0.0000 
     66 CA         45.9615   34.6260   52.1720 C.3       3 GLC5        0.0000 
     67 CA         45.0390   36.6310   51.9520 C.3       6 GLP5        0.0000 
     68 CA         44.9855   32.5800   53.1285 C.3       3 GLC5        0.0000 
     69 CA         43.0870   32.5390   53.8650 C.3       6 GLP5        0.0000 
     70 CA         45.4720   31.6015   51.8780 C.3       3 GLC5        0.0000 
     71 CA         48.5745   34.6800   53.3045 C.3       3 GLC5        0.0000 
     72 CA         47.4920   33.3880   54.4110 C.3       9 GLL5        0.0000 
     73 CA         45.6170   33.2620   54.7575 C.3       3 GLC5        0.0000 
     74 CA         43.7420   33.1360   55.1040 C.3       6 GLP5        0.0000 
     75 CA         50.7445   40.9035   53.8885 C.3       3 GLC5        0.0000 
     76 CA         51.9080   40.1760   54.9200 C.3       9 GLL5        0.0000 
     77 CA         47.8462   37.5707   58.0775 C.3       3 GLC5        0.0000 
     78 CA         47.7080   37.9250   60.1410 C.3       6 GLP5        0.0000 
     79 CA         45.4378   31.8582   55.4185 C.3       3 GLC5        0.0000 
     80 CA         47.2790   32.1430   55.0470 C.3       9 GLL5        0.0000 
     81 CA         43.8230   32.0990   56.2140 C.3       6 GLP5        0.0000 
     82 CA         49.0899   36.4073   53.9819 C.3       3 GLC5        0.0000 
@<TRIPOS>BOND
@<TRIPOS>SUBSTRUCTURE
     1 ALC1        1 GROUP        1 X    ALC  0     ROOT ALC X 1
     2 SEC2       11 GROUP        1 X    SEC  0     **** SEC X 2
     3 GLC5        8 GROUP        1 X    GLC  0     **** GLC X 6
     4 ALP1        3 GROUP        1 Y    ALP  0     ROOT ALP Y 8
     5 SEP2       13 GROUP        1 Y    SEP  0     **** SEP Y 9
     6 GLP5       10 GROUP        1 Y    GLP  0     **** GLP Y 13
     7 ALL1        2 GROUP        1 Z    ALL  0     ROOT ALL Z 15
     8 SEL2       12 GROUP        1 Z    SEL  0     **** SEL Z 16
     9 GLL5        9 GROUP        1 Z    GLL  0     **** GLL Z 20
@<TRIPOS>SET

