#    Name: 1kpg_SAH_2_ligand
#    Modification time : Tue Mar 25 10:18:02 2014

@<TRIPOS>MOLECULE
1kpg_SAH_2_ligand
   46    48     1     0     0
SMALL
NO_CHARGES


@<TRIPOS>ATOM
      1 N          53.4130   39.2230   53.1850 N.4       1 SAH2900     0.0000 
      2 CA         52.9000   40.4640   53.7800 C.3       1 SAH2900     0.0000 
      3 CB         51.9080   40.1760   54.9200 C.3       1 SAH2900     0.0000 
      4 CG         52.4540   39.3530   56.1100 C.3       1 SAH2900     0.0000 
      5 SD         51.2510   39.1010   57.4250 S.3       1 SAH2900     0.0000 
      6 C          54.0440   41.3260   54.3310 C.2       1 SAH2900     0.0000 
      7 O          55.1820   40.8160   54.3930 O.co2     1 SAH2900     0.0000 
      8 OXT        53.7890   42.4850   54.7250 O.co2     1 SAH2900     0.0000 
      9 C5'        50.6560   37.4040   57.1430 C.3       1 SAH2900     0.0000 
     10 C4'        49.8400   37.2750   55.8580 C.3       1 SAH2900     0.0000 
     11 O4'        49.6910   35.9010   55.4060 O.3       1 SAH2900     0.0000 
     12 C3'        48.4160   37.8360   55.9660 C.3       1 SAH2900     0.0000 
     13 O3'        48.1270   38.6140   54.7860 O.3       1 SAH2900     0.0000 
     14 C2'        47.5530   36.5970   56.0620 C.3       1 SAH2900     0.0000 
     15 O2'        46.2010   36.8280   55.6460 O.3       1 SAH2900     0.0000 
     16 C1'        48.2820   35.6620   55.1770 C.3       1 SAH2900     0.0000 
     17 N9         47.9250   34.2540   55.3750 N.pl3     1 SAH2900     0.0000 
     18 C8         47.9390   33.4170   56.6150 C.2       1 SAH2900     0.0000 
     19 N7         47.5660   32.1920   56.4350 N.2       1 SAH2900     0.0000 
     20 C5         47.2790   32.1430   55.0470 C.ar      1 SAH2900     0.0000 
     21 C6         46.8260   31.0920   54.1990 C.ar      1 SAH2900     0.0000 
     22 N6         46.5770   29.8420   54.6500 N.pl3     1 SAH2900     0.0000 
     23 N1         46.6410   31.3750   52.8660 N.ar      1 SAH2900     0.0000 
     24 C2         46.8840   32.6210   52.3920 C.ar      1 SAH2900     0.0000 
     25 N3         47.3110   33.6950   53.0770 N.ar      1 SAH2900     0.0000 
     26 C4         47.4920   33.3880   54.4110 C.ar      1 SAH2900     0.0000 
     27 H          52.3768   41.0542   53.0324 H         1 SAH2900     0.0000 
     28 H          51.0292   39.6441   54.5008 H         1 SAH2900     0.0000 
     29 H          51.5237   41.1413   55.3093 H         1 SAH2900     0.0000 
     30 H          53.2655   39.8426   56.6176 H         1 SAH2900     0.0000 
     31 H          52.7219   38.3490   55.8341 H         1 SAH2900     0.0000 
     32 H          50.0897   37.2120   58.0326 H         1 SAH2900     0.0000 
     33 H          51.5694   36.8432   57.1300 H         1 SAH2900     0.0000 
     34 H          50.3413   37.8519   55.0657 H         1 SAH2900     0.0000 
     35 H          48.3482   38.3845   56.8626 H         1 SAH2900     0.0000 
     36 H          47.6283   36.2346   57.0713 H         1 SAH2900     0.0000 
     37 H          48.0558   35.9514   54.1350 H         1 SAH2900     0.0000 
     38 H          48.2267   33.8602   57.4547 H         1 SAH2900     0.0000 
     39 H          46.2493   29.1860   53.9700 H         1 SAH2900     0.0000 
     40 H          46.7426   29.6843   55.6235 H         1 SAH2900     0.0000 
     41 H          46.7098   32.7659   51.3192 H         1 SAH2900     0.0000 
     42 H          54.0553   39.4058   52.4406 H         1 SAH2900     0.0000 
     43 H          53.8952   38.6607   53.8568 H         1 SAH2900     0.0000 
     44 H          52.6776   38.6611   52.8062 H         1 SAH2900     0.0000 
     45 H          47.4045   38.1091   54.3138 H         1 SAH2900     0.0000 
     46 H          45.7518   37.2356   56.4410 H         1 SAH2900     0.0000 
@<TRIPOS>BOND
     1    2    1 1    
     2   42    1 1    
     3   43    1 1    
     4   44    1 1    
     5    3    2 1    
     6    6    2 1    
     7   27    2 1    
     8    4    3 1    
     9   28    3 1    
    10   29    3 1    
    11    5    4 1    
    12   30    4 1    
    13   31    4 1    
    14    9    5 1    
    15    7    6 ar   
    16    8    6 ar   
    17   10    9 1    
    18   32    9 1    
    19   33    9 1    
    20   11   10 1    
    21   12   10 1    
    22   34   10 1    
    23   16   11 1    
    24   13   12 1    
    25   14   12 1    
    26   35   12 1    
    27   45   13 1    
    28   15   14 1    
    29   16   14 1    
    30   36   14 1    
    31   46   15 1    
    32   17   16 1    
    33   37   16 1    
    34   18   17 1    
    35   26   17 1    
    36   19   18 2    
    37   38   18 1    
    38   20   19 1    
    39   21   20 ar   
    40   26   20 ar   
    41   22   21 1    
    42   23   21 ar   
    43   39   22 1    
    44   40   22 1    
    45   24   23 ar   
    46   25   24 ar   
    47   41   24 1    
    48   26   25 ar   
@<TRIPOS>SUBSTRUCTURE
     1 SAH2900     1 GROUP   
@<TRIPOS>SET

