#    Name: 3c0a_14C_1_INTS_M
#    Modification time : Mon Mar 24 20:17:36 2014

@<TRIPOS>MOLECULE
3c0a_14C_1_INTS_M
   26     0     3     0     0
SMALL
NO_CHARGES


@<TRIPOS>ATOM
      1 CA        -32.0275    4.8205   27.6245 C.3       1 GLC5        0.0000 
      2 CA        -31.0890    6.5460   27.9430 C.3       3 GLL5        0.0000 
      3 CA        -32.9660    3.0950   27.3060 C.3       2 GLP5        0.0000 
      4 CA        -23.0550    9.7545   30.4270 C.3       1 GLC5        0.0000 
      5 CA        -23.0120    8.6480   28.5890 C.3       3 GLL5        0.0000 
      6 CA        -23.0980   10.8610   32.2650 C.3       2 GLP5        0.0000 
      7 CA        -21.7540    7.6465   28.6935 C.3       1 GLC5        0.0000 
      8 CA        -20.4960    6.6450   28.7980 C.3       2 GLP5        0.0000 
      9 CA        -22.3030    9.2130   27.4640 C.3       1 GLC5        0.0000 
     10 CA        -21.5940    9.7780   26.3390 C.3       2 GLP5        0.0000 
     11 CA        -28.5395   11.1490   26.4120 C.3       1 GLC5        0.0000 
     12 CA        -26.6020   11.0580   27.2950 C.3       3 GLL5        0.0000 
     13 CA        -30.4770   11.2400   25.5290 C.3       2 GLP5        0.0000 
     14 CA        -28.2905   10.0440   31.6510 C.3       1 GLC5        0.0000 
     15 CA        -29.7360    9.5620   30.1360 C.3       3 GLL5        0.0000 
     16 CA        -26.8450   10.5260   33.1660 C.3       2 GLP5        0.0000 
     17 CA        -29.9370    9.8925   32.8665 C.3       1 GLC5        0.0000 
     18 CA        -30.7270    9.6790   31.0740 C.3       3 GLL5        0.0000 
     19 CA        -29.1470   10.1060   34.6590 C.3       2 GLP5        0.0000 
     20 CA        -25.5880   11.5838   25.3875 C.3       1 GLC5        0.0000 
     21 CA        -25.1940   11.9960   23.7620 C.3       2 GLP5        0.0000 
     22 CA        -32.9379    7.3876   28.3667 C.3       1 GLC5        0.0000 
     23 CA        -31.9260    7.7950   29.9840 C.3       3 GLL5        0.0000 
     24 CA        -34.3980    7.3380   27.5050 C.3       2 GLP5        0.0000 
     25 CA        -33.2215    8.9805   31.2719 C.3       1 GLC5        0.0000 
     26 CA        -34.8500    9.4460   32.0430 C.3       2 GLP5        0.0000 
@<TRIPOS>BOND
@<TRIPOS>SUBSTRUCTURE
     1 GLC5        1 GROUP        1 X    GLC  0     ROOT GLC X 6
     2 GLP5        3 GROUP        1 Y    GLP  0     ROOT GLP Y 13
     3 GLL5        2 GROUP        1 Z    GLL  0     ROOT GLL Z 20
@<TRIPOS>SET

