#    Name: 3c0a_14C_1_ligand
#    Modification time : Mon Mar 24 20:17:36 2014

@<TRIPOS>MOLECULE
3c0a_14C_1_ligand
   29    31     1     0     0
SMALL
NO_CHARGES


@<TRIPOS>ATOM
      1 C10       -30.9700    7.6130   29.0030 C.ar      1 14C318      0.0000 
      2 C13       -31.0890    6.5460   27.9430 C.3       1 14C318      0.0000 
      3 CL39      -23.0120    8.6480   28.5890 Cl        1 14C318      0.0000 
      4 C30       -24.4060    9.6150   28.0510 C.ar      1 14C318      0.0000 
      5 C28       -25.6160    9.3700   28.6350 C.ar      1 14C318      0.0000 
      6 N32       -24.2960   10.5670   27.1120 N.pl3     1 14C318      0.0000 
      7 C34       -25.3620   11.2850   26.7310 C.ar      1 14C318      0.0000 
      8 C36       -26.6020   11.0580   27.2950 C.ar      1 14C318      0.0000 
      9 C26       -26.7390   10.0990   28.2860 C.ar      1 14C318      0.0000 
     10 N19       -27.8830    9.7720   28.8320 N.am      1 14C318      0.0000 
     11 C21       -28.4680   10.2810   29.8900 C.2       1 14C318      0.0000 
     12 O23       -28.0110   11.2570   30.5660 O.2       1 14C318      0.0000 
     13 C6        -29.7360    9.5620   30.1360 C.ar      1 14C318      0.0000 
     14 C4        -30.7270    9.6790   31.0740 C.ar      1 14C318      0.0000 
     15 C2        -31.7930    8.7910   30.9610 C.ar      1 14C318      0.0000 
     16 C15       -28.5740    8.7590   28.3050 C.2       1 14C318      0.0000 
     17 O17       -28.2080    8.0840   27.2650 O.2       1 14C318      0.0000 
     18 C8        -29.8170    8.5320   29.0670 C.ar      1 14C318      0.0000 
     19 C1        -31.9260    7.7950   29.9840 C.ar      1 14C318      0.0000 
     20 H         -25.7030    8.6236   29.3559 H         1 14C318      0.0000 
     21 H         -23.3609   10.7520   26.6693 H         1 14C318      0.0000 
     22 H         -25.2727   12.0263   26.0029 H         1 14C318      0.0000 
     23 H         -27.4204   11.5964   26.9829 H         1 14C318      0.0000 
     24 H         -30.6964   10.3658   31.8091 H         1 14C318      0.0000 
     25 H         -32.5782    8.8726   31.6780 H         1 14C318      0.0000 
     26 H         -32.7656    7.1839   30.0051 H         1 14C318      0.0000 
     27 H         -31.0998    6.9365   27.0225 H         1 14C318      0.0000 
     28 H         -30.3261    5.9004   27.9786 H         1 14C318      0.0000 
     29 H         -31.9290    6.0131   28.0451 H         1 14C318      0.0000 
@<TRIPOS>BOND
     1    2    1 1    
     2   18    1 ar   
     3   19    1 ar   
     4   27    2 1    
     5   28    2 1    
     6   29    2 1    
     7    4    3 1    
     8    5    4 ar   
     9    6    4 ar   
    10    9    5 ar   
    11   20    5 1    
    12    7    6 ar   
    13   21    6 1    
    14    8    7 ar   
    15   22    7 1    
    16    9    8 ar   
    17   23    8 1    
    18   10    9 1    
    19   11   10 am   
    20   16   10 am   
    21   12   11 2    
    22   13   11 1    
    23   14   13 ar   
    24   18   13 ar   
    25   15   14 ar   
    26   24   14 1    
    27   19   15 ar   
    28   25   15 1    
    29   17   16 2    
    30   18   16 1    
    31   26   19 1    
@<TRIPOS>SUBSTRUCTURE
     1 14C318      1 GROUP   
@<TRIPOS>SET

