#    Name: 3gob_HXX_1_INTS_M
#    Modification time : Tue Mar 25 12:47:23 2014

@<TRIPOS>MOLECULE
3gob_HXX_1_INTS_M
   27     0     6     0     0
SMALL
NO_CHARGES


@<TRIPOS>ATOM
      1 N          22.5175  -11.4070   31.5220 N.am      1 SEC2        0.0000 
      2 N          21.9560   -9.8910   31.3740 N.am      5 SEL2        0.0000 
      3 N          23.0790  -12.9230   31.6700 N.am      3 SEP2        0.0000 
      4 N          23.0090  -10.2100   30.2295 N.am      1 SEC2        0.0000 
      5 N          24.0620  -10.5290   29.0850 N.am      3 SEP2        0.0000 
      6 N          21.9035   -8.6675   30.2995 N.am      1 SEC2        0.0000 
      7 N          21.8510   -7.4440   29.2250 N.am      3 SEP2        0.0000 
      8 N          22.6300   -7.8445   30.5410 N.am      1 SEC2        0.0000 
      9 N          23.4090   -8.2450   31.8570 N.am      5 SEL2        0.0000 
     10 CA         22.6050  -12.0885   36.3780 C.3       2 GLC5        0.0000 
     11 CA         23.4830  -10.5610   37.2810 C.3       6 GLL5        0.0000 
     12 CA         21.7270  -13.6160   35.4750 C.3       4 GLP5        0.0000 
     13 CA         18.5965   -7.4290   31.0760 C.3       2 GLC5        0.0000 
     14 CA         19.7170   -7.6680   32.9790 C.3       6 GLL5        0.0000 
     15 CA         17.4760   -7.1900   29.1730 C.3       4 GLP5        0.0000 
     16 CA         18.2920   -6.0945   33.4990 C.3       2 GLC5        0.0000 
     17 CA         16.8670   -4.5210   34.0190 C.3       4 GLP5        0.0000 
     18 CA         20.8715   -6.4375   31.5550 C.3       2 GLC5        0.0000 
     19 CA         22.0260   -5.2070   30.1310 C.3       4 GLP5        0.0000 
     20 CA         21.6560  -11.3285   35.1133 C.3       2 GLC5        0.0000 
     21 CA         22.9540   -9.7760   34.6200 C.3       6 GLL5        0.0000 
     22 CA         20.5700  -12.8690   34.9010 C.3       4 GLP5        0.0000 
     23 CA         20.1777  -10.6547   36.5205 C.3       2 GLC5        0.0000 
     24 CA         21.2830   -9.1770   36.4130 C.3       6 GLL5        0.0000 
     25 CA         19.4880  -12.4530   37.1110 C.3       4 GLP5        0.0000 
     26 CA         21.0170  -10.8353   34.3680 C.3       2 GLC5        0.0000 
     27 CA         20.8290   -8.4900   34.0610 C.3       6 GLL5        0.0000 
@<TRIPOS>BOND
@<TRIPOS>SUBSTRUCTURE
     1 SEC2        1 GROUP        1 X    SEC  0     ROOT SEC X 2
     2 GLC5       10 GROUP        1 X    GLC  0     **** GLC X 6
     3 SEP2        3 GROUP        1 Y    SEP  0     ROOT SEP Y 9
     4 GLP5       12 GROUP        1 Y    GLP  0     **** GLP Y 13
     5 SEL2        2 GROUP        1 Z    SEL  0     ROOT SEL Z 16
     6 GLL5       11 GROUP        1 Z    GLL  0     **** GLL Z 20
@<TRIPOS>SET

