#    Name: 3gob_HXX_1_ligand
#    Modification time : Tue Mar 25 12:47:23 2014

@<TRIPOS>MOLECULE
3gob_HXX_1_ligand
   15    15     1     0     0
SMALL
NO_CHARGES


@<TRIPOS>ATOM
      1 C2         22.9540   -9.7760   34.6200 C.ar      1 HXX601      0.0000 
      2 C3         22.5300   -9.8000   36.0310 C.ar      1 HXX601      0.0000 
      3 C4         21.2830   -9.1770   36.4130 C.ar      1 HXX601      0.0000 
      4 C5         20.4520   -8.5360   35.4470 C.ar      1 HXX601      0.0000 
      5 C6         20.8290   -8.4900   34.0610 C.ar      1 HXX601      0.0000 
      6 O1'        21.9560   -9.8910   31.3740 O.co2     1 HXX601      0.0000 
      7 C1'        22.5220   -9.0800   32.1600 C.2       1 HXX601      0.0000 
      8 O2'        23.4090   -8.2450   31.8570 O.co2     1 HXX601      0.0000 
      9 C1         22.0990   -9.1130   33.6090 C.ar      1 HXX601      0.0000 
     10 O2         24.1860  -10.3900   34.2310 O.3       1 HXX601      0.0000 
     11 CL1        23.4830  -10.5610   37.2810 Cl        1 HXX601      0.0000 
     12 CL2        19.7170   -7.6680   32.9790 Cl        1 HXX601      0.0000 
     13 H          20.9990   -9.2005   37.3940 H         1 HXX601      0.0000 
     14 H          19.5749   -8.1018   35.7401 H         1 HXX601      0.0000 
     15 H          24.8818   -9.6856   34.3714 H         1 HXX601      0.0000 
@<TRIPOS>BOND
     1    2    1 ar   
     2    9    1 ar   
     3   10    1 1    
     4    3    2 ar   
     5   11    2 1    
     6    4    3 ar   
     7   13    3 1    
     8    5    4 ar   
     9   14    4 1    
    10    9    5 ar   
    11   12    5 1    
    12    7    6 ar   
    13    8    7 ar   
    14    9    7 1    
    15   15   10 1    
@<TRIPOS>SUBSTRUCTURE
     1 HXX601      1 GROUP   
@<TRIPOS>SET

