#    Name: 2xzg_VH1_1_INTS_M
#    Modification time : Tue Mar 25 07:12:45 2014

@<TRIPOS>MOLECULE
2xzg_VH1_1_INTS_M
   33     0     6     0     0
SMALL
NO_CHARGES


@<TRIPOS>ATOM
      1 CA         48.4435   -6.6510   22.8440 C.3       2 GLC5        0.0000 
      2 CA         46.7260   -6.7070   24.0820 C.3       6 GLL5        0.0000 
      3 CA         50.1610   -6.5950   21.6060 C.3       4 GLP5        0.0000 
      4 CA         45.8005   -7.3895   22.3255 C.3       2 GLC5        0.0000 
      5 CA         44.8750   -8.0720   20.5690 C.3       4 GLP5        0.0000 
      6 CA         45.5690   -8.6140   22.4250 C.3       2 GLC5        0.0000 
      7 CA         46.2630   -9.1560   24.2810 C.3       6 GLL5        0.0000 
      8 CA         45.7760  -10.4890   23.1280 C.3       2 GLC5        0.0000 
      9 CA         45.2890  -11.8220   21.9750 C.3       4 GLP5        0.0000 
     10 CA         49.7895   -8.7530   24.4625 C.3       2 GLC5        0.0000 
     11 CA         49.5740  -10.5970   23.2920 C.3       6 GLL5        0.0000 
     12 CA         50.0050   -6.9090   25.6330 C.3       4 GLP5        0.0000 
     13 N          52.0440  -13.1005   19.1630 N.am      1 SEC2        0.0000 
     14 N          52.6130  -12.2710   20.1830 N.am      5 SEL2        0.0000 
     15 N          51.4750  -13.9300   18.1430 N.am      3 SEP2        0.0000 
     16 CA         48.0670   -6.9117   26.0750 C.3       2 GLC5        0.0000 
     17 CA         46.0830   -7.5620   26.2510 C.3       6 GLL5        0.0000 
     18 CA         48.3302   -6.1060   25.4575 C.3       2 GLC5        0.0000 
     19 CA         46.7920   -5.4120   24.6050 C.3       6 GLL5        0.0000 
     20 CA         44.5120   -6.3501   26.3595 C.3       2 GLC5        0.0000 
     21 CA         46.5190   -5.1940   25.9590 C.3       6 GLL5        0.0000 
     22 CA         42.7000   -6.6460   26.4810 C.3       4 GLP5        0.0000 
     23 CA         44.8385   -6.7363   24.2097 C.3       2 GLC5        0.0000 
     24 CA         42.9180   -7.4130   24.0760 C.3       4 GLP5        0.0000 
     25 CA         45.5984   -4.5440   23.7590 C.3       2 GLC5        0.0000 
     26 CA         44.5060   -3.0830   22.8360 C.3       4 GLP5        0.0000 
     27 CA         48.2760   -7.0752   25.0650 C.3       2 GLC5        0.0000 
     28 CA         44.6167   -7.9395   24.3362 C.3       2 GLC5        0.0000 
     29 CA         46.3680   -7.7760   24.9120 C.3       6 GLL5        0.0000 
     30 CA         50.1003   -8.5635   22.1947 C.3       2 GLC5        0.0000 
     31 CA         49.6183   -9.7660   20.9563 C.3       2 GLC5        0.0000 
     32 CA         50.5050  -10.4670   22.2750 C.3       6 GLL5        0.0000 
     33 CA         49.1970   -9.0000   19.1290 C.3       4 GLP5        0.0000 
@<TRIPOS>BOND
@<TRIPOS>SUBSTRUCTURE
     1 SEC2       13 GROUP        1 X    SEC  0     ROOT SEC X 2
     2 GLC5        1 GROUP        1 X    GLC  0     **** GLC X 6
     3 SEP2       15 GROUP        1 Y    SEP  0     ROOT SEP Y 9
     4 GLP5        3 GROUP        1 Y    GLP  0     **** GLP Y 13
     5 SEL2       14 GROUP        1 Z    SEL  0     ROOT SEL Z 16
     6 GLL5        2 GROUP        1 Z    GLL  0     **** GLL Z 20
@<TRIPOS>SET

