#    Name: 2xzg_VH1_1_ligand
#    Modification time : Tue Mar 25 07:12:45 2014

@<TRIPOS>MOLECULE
2xzg_VH1_1_ligand
   40    43     1     0     0
SMALL
NO_CHARGES


@<TRIPOS>ATOM
      1 CAJ        46.0830   -7.5620   26.2510 C.ar      1 VH11362     0.0000 
      2 CAH        46.1750   -6.2670   26.7830 C.ar      1 VH11362     0.0000 
      3 CAQ        46.5190   -5.1940   25.9590 C.ar      1 VH11362     0.0000 
      4 NAA        46.5910   -3.9400   26.4740 N.pl3     1 VH11362     0.0000 
      5 CAI        46.7920   -5.4120   24.6050 C.ar      1 VH11362     0.0000 
      6 CAK        46.7260   -6.7070   24.0820 C.ar      1 VH11362     0.0000 
      7 CAR        46.3680   -7.7760   24.9120 C.ar      1 VH11362     0.0000 
      8 CAP        46.2630   -9.1560   24.2810 C.3       1 VH11362     0.0000 
      9 NAZ        47.4900   -9.9620   24.3130 N.am      1 VH11362     0.0000 
     10 CAU        48.4100   -9.8270   23.2980 C.2       1 VH11362     0.0000 
     11 OAC        48.1570   -9.0130   22.4290 O.2       1 VH11362     0.0000 
     12 CAX        49.5740  -10.5970   23.2920 C.ar      1 VH11362     0.0000 
     13 CAY        49.7590  -11.5290   24.3490 C.ar      1 VH11362     0.0000 
     14 CAO        50.5050  -10.4670   22.2750 C.ar      1 VH11362     0.0000 
     15 CAS        51.6400  -11.2560   22.3080 C.ar      1 VH11362     0.0000 
     16 SBA        52.8450  -11.1720   21.0200 S.o2      1 VH11362     0.0000 
     17 OAF        52.6130  -12.2710   20.1830 O.co2     1 VH11362     0.0000 
     18 OAE        54.1560  -11.4150   21.6630 O.co2     1 VH11362     0.0000 
     19 OAD        52.8090   -9.8950   20.2520 O.co2     1 VH11362     0.0000 
     20 CAN        51.8430  -12.1770   23.3420 C.ar      1 VH11362     0.0000 
     21 CAV        50.9090  -12.3400   24.3740 C.ar      1 VH11362     0.0000 
     22 CAL        51.1200  -13.2500   25.4260 C.ar      1 VH11362     0.0000 
     23 CAG        50.1860  -13.3960   26.4600 C.ar      1 VH11362     0.0000 
     24 CAM        49.0230  -12.5950   26.4200 C.ar      1 VH11362     0.0000 
     25 CAW        48.8090  -11.6690   25.3680 C.ar      1 VH11362     0.0000 
     26 CAT        47.6530  -10.8870   25.3300 C.2       1 VH11362     0.0000 
     27 OAB        46.7960  -10.9340   26.1950 O.2       1 VH11362     0.0000 
     28 H          45.8056   -8.3410   26.8565 H         1 VH11362     0.0000 
     29 H          45.9885   -6.1116   27.7800 H         1 VH11362     0.0000 
     30 H          46.3638   -3.8488   27.4436 H         1 VH11362     0.0000 
     31 H          46.8649   -3.2183   25.8383 H         1 VH11362     0.0000 
     32 H          47.0397   -4.6249   23.9979 H         1 VH11362     0.0000 
     33 H          46.9389   -6.8740   23.0941 H         1 VH11362     0.0000 
     34 H          45.9195   -9.0260   23.2263 H         1 VH11362     0.0000 
     35 H          45.4334   -9.7039   24.7897 H         1 VH11362     0.0000 
     36 H          50.3551   -9.8005   21.5152 H         1 VH11362     0.0000 
     37 H          52.7046  -12.7528   23.3454 H         1 VH11362     0.0000 
     38 H          51.9811  -13.8204   25.4339 H         1 VH11362     0.0000 
     39 H          50.3343  -14.0512   27.2122 H         1 VH11362     0.0000 
     40 H          48.3199  -12.6833   27.1640 H         1 VH11362     0.0000 
@<TRIPOS>BOND
     1    2    1 ar   
     2    7    1 ar   
     3   28    1 1    
     4    3    2 ar   
     5   29    2 1    
     6    4    3 1    
     7    5    3 ar   
     8   30    4 1    
     9   31    4 1    
    10    6    5 ar   
    11   32    5 1    
    12    7    6 ar   
    13   33    6 1    
    14    8    7 1    
    15    9    8 1    
    16   34    8 1    
    17   35    8 1    
    18   10    9 am   
    19   26    9 am   
    20   11   10 2    
    21   12   10 1    
    22   13   12 ar   
    23   14   12 ar   
    24   21   13 ar   
    25   25   13 ar   
    26   15   14 ar   
    27   36   14 1    
    28   16   15 1    
    29   20   15 ar   
    30   17   16 ar   
    31   18   16 ar   
    32   19   16 ar   
    33   21   20 ar   
    34   37   20 1    
    35   22   21 ar   
    36   23   22 ar   
    37   38   22 1    
    38   24   23 ar   
    39   39   23 1    
    40   25   24 ar   
    41   40   24 1    
    42   26   25 1    
    43   27   26 2    
@<TRIPOS>SUBSTRUCTURE
     1 VH11362     1 GROUP   
@<TRIPOS>SET

