#    Name: 3hek_BD0_2_INTS_M
#    Modification time : Tue Mar 25 14:12:20 2014

@<TRIPOS>MOLECULE
3hek_BD0_2_INTS_M
   65     0     9     0     0
SMALL
NO_CHARGES


@<TRIPOS>ATOM
      1 CA         28.1620   -0.5720   18.6580 C.3       3 GLC5        0.0000 
      2 CA         29.9190    0.3190   19.3050 C.3       9 GLL5        0.0000 
      3 CA         26.4050   -1.4630   18.0110 C.3       6 GLP5        0.0000 
      4 CA         30.0410   -0.3555   20.9875 C.3       3 GLC5        0.0000 
      5 CA         30.1630   -1.0300   22.6700 C.3       6 GLP5        0.0000 
      6 CA         27.9500   -2.6595   17.5945 C.3       3 GLC5        0.0000 
      7 CA         29.4950   -3.8560   17.1780 C.3       9 GLL5        0.0000 
      8 CA         31.1155   -4.5535   18.0970 C.3       3 GLC5        0.0000 
      9 CA         32.7360   -5.2510   19.0160 C.3       6 GLP5        0.0000 
     10 CA         32.3970    2.8435   20.8515 C.3       3 GLC5        0.0000 
     11 CA         31.6510    2.0430   19.0520 C.3       9 GLL5        0.0000 
     12 CA         33.1430    3.6440   22.6510 C.3       6 GLP5        0.0000 
     13 O          28.0325    0.6955   20.5980 O.2       1 ALC1        0.0000 
     14 O          28.6690   -0.0770   19.6870 O.2       7 ALL1        0.0000 
     15 O          27.3960    1.4680   21.5090 O.2       4 ALP1        0.0000 
     16 CA         35.9785    0.6455   17.6955 C.3       3 GLC5        0.0000 
     17 CA         34.1210    1.5210   17.9980 C.3       9 GLL5        0.0000 
     18 CA         37.8360   -0.2300   17.3930 C.3       6 GLP5        0.0000 
     19 CA         35.3520    2.6920   18.3505 C.3       3 GLC5        0.0000 
     20 CA         36.5830    3.8630   18.7030 C.3       6 GLP5        0.0000 
     21 N          30.3485   -2.5330   20.8600 N.am      2 SEC2        0.0000 
     22 N          30.3260   -2.7270   19.5940 N.am      8 SEL2        0.0000 
     23 N          30.3710   -2.3390   22.1260 N.am      5 SEP2        0.0000 
     24 CA         28.0800   -1.5850   17.0275 C.3       3 GLC5        0.0000 
     25 CA         29.7550   -1.7070   16.0440 C.3       9 GLL5        0.0000 
     26 CA         34.9715   -3.0210   14.6820 C.3       3 GLC5        0.0000 
     27 CA         33.2510   -1.8040   14.3030 C.3       9 GLL5        0.0000 
     28 CA         36.6920   -4.2380   15.0610 C.3       6 GLP5        0.0000 
     29 CA         36.4625   -2.1335   14.6650 C.3       3 GLC5        0.0000 
     30 CA         36.2330   -0.0290   14.2690 C.3       9 GLL5        0.0000 
     31 CA         30.2597    2.1760   17.7937 C.3       3 GLC5        0.0000 
     32 CA         30.3360    1.6690   19.4640 C.3       9 GLL5        0.0000 
     33 CA         30.3920    3.3580   16.2030 C.3       6 GLP5        0.0000 
     34 CA         28.3417    1.9400   18.8997 C.3       3 GLC5        0.0000 
     35 CA         26.5560    2.8860   18.4150 C.3       6 GLP5        0.0000 
     36 CA         32.5302   -1.6990   19.4240 C.3       3 GLC5        0.0000 
     37 CA         30.8120   -0.6310   18.7420 C.3       9 GLL5        0.0000 
     38 CA         33.5960   -2.9560   20.3080 C.3       6 GLP5        0.0000 
     39 CA         31.4748   -0.3485   20.5875 C.3       3 GLC5        0.0000 
     40 CA         32.1170   -0.2530   18.3380 C.3       9 GLL5        0.0000 
     41 CA         31.4850   -0.2550   22.6350 C.3       6 GLP5        0.0000 
     42 CA         31.2422    2.4615   17.4880 C.3       3 GLC5        0.0000 
     43 CA         32.5340    1.0870   18.4940 C.3       9 GLL5        0.0000 
     44 CA         27.8155   -4.8773   17.0038 C.3       3 GLC5        0.0000 
     45 CA         26.3010   -5.7820   17.5570 C.3       6 GLP5        0.0000 
     46 CA         27.3170   -2.5780   16.1095 C.3       3 GLC5        0.0000 
     47 CA         29.1650   -4.0890   15.7230 C.3       9 GLL5        0.0000 
     48 CA         25.5630   -1.7660   16.7890 C.3       6 GLP5        0.0000 
     49 CA         28.0785   -3.8395   13.8965 C.3       3 GLC5        0.0000 
     50 CA         28.9770   -2.6910   15.1370 C.3       9 GLL5        0.0000 
     51 CA         27.0860   -4.2890   12.3630 C.3       6 GLP5        0.0000 
     52 CA         37.3620    0.0640   15.8320 C.3       3 GLC5        0.0000 
     53 CA         36.7720    2.1630   15.2300 C.3       3 GLC5        0.0000 
     54 CA         37.5430    0.7450   14.2730 C.3       9 GLL5        0.0000 
     55 CA         36.6560    3.9680   16.1890 C.3       6 GLP5        0.0000 
     56 CA         31.3496    0.6810   20.8768 C.3       3 GLC5        0.0000 
     57 CA         37.1510    2.9930   14.5633 C.3       3 GLC5        0.0000 
     58 CA         37.6320    1.3470   12.8930 C.3       9 GLL5        0.0000 
     59 CA         37.8981    3.1989   11.6040 C.3       3 GLC5        0.0000 
     60 CA         38.0230    4.5320   10.5250 C.3       6 GLP5        0.0000 
     61 CA         39.4896    2.2676   13.5011 C.3       3 GLC5        0.0000 
     62 CA         37.6600    2.6890   12.9820 C.3       9 GLL5        0.0000 
     63 CA         41.0650    2.6900   14.0530 C.3       6 GLP5        0.0000 
     64 CA         30.9528    1.7103   15.1330 C.3       3 GLC5        0.0000 
     65 CA         32.0610    0.2490   13.6550 C.3       9 GLL5        0.0000 
@<TRIPOS>BOND
@<TRIPOS>SUBSTRUCTURE
     1 ALC1       13 GROUP        1 X    ALC  0     ROOT ALC X 1
     2 SEC2       21 GROUP        1 X    SEC  0     **** SEC X 2
     3 GLC5        1 GROUP        1 X    GLC  0     **** GLC X 6
     4 ALP1       15 GROUP        1 Y    ALP  0     ROOT ALP Y 8
     5 SEP2       23 GROUP        1 Y    SEP  0     **** SEP Y 9
     6 GLP5        3 GROUP        1 Y    GLP  0     **** GLP Y 13
     7 ALL1       14 GROUP        1 Z    ALL  0     ROOT ALL Z 15
     8 SEL2       22 GROUP        1 Z    SEL  0     **** SEL Z 16
     9 GLL5        2 GROUP        1 Z    GLL  0     **** GLL Z 20
@<TRIPOS>SET

