#    Name: 3hek_BD0_2_ligand
#    Modification time : Tue Mar 25 14:12:20 2014

@<TRIPOS>MOLECULE
3hek_BD0_2_ligand
   54    57     1     0     0
SMALL
NO_CHARGES


@<TRIPOS>ATOM
      1 C4         29.9190    0.3190   19.3050 C.ar      1 BD0901      0.0000 
      2 C6         30.8120   -0.6310   18.7420 C.ar      1 BD0901      0.0000 
      3 C7         32.1170   -0.2530   18.3380 C.ar      1 BD0901      0.0000 
      4 C8         32.5340    1.0870   18.4940 C.ar      1 BD0901      0.0000 
      5 C10        30.3590   -2.0350   18.5770 C.2       1 BD0901      0.0000 
      6 N12        29.9680   -2.4810   17.2970 N.4       1 BD0901      0.0000 
      7 C13        29.4950   -3.8560   17.1780 C.3       1 BD0901      0.0000 
      8 C15        28.9770   -2.6910   15.1370 C.3       1 BD0901      0.0000 
      9 C17        30.9920   -1.3470   15.2140 C.ar      1 BD0901      0.0000 
     10 C20        33.2120   -0.5870   13.5580 C.ar      1 BD0901      0.0000 
     11 C21        34.3570   -0.1880   12.6470 C.3       1 BD0901      0.0000 
     12 C24        37.5430    0.7450   14.2730 C.3       1 BD0901      0.0000 
     13 C28        36.4160    0.9100   12.1430 C.3       1 BD0901      0.0000 
     14 O1         32.0270    3.3470   19.2140 O.3       1 BD0901      0.0000 
     15 C2         31.6510    2.0430   19.0520 C.ar      1 BD0901      0.0000 
     16 C3         30.3360    1.6690   19.4640 C.ar      1 BD0901      0.0000 
     17 O5         28.6690   -0.0770   19.6870 O.3       1 BD0901      0.0000 
     18 CL9        34.1210    1.5210   17.9980 Cl        1 BD0901      0.0000 
     19 O11        30.3260   -2.7270   19.5940 O.2       1 BD0901      0.0000 
     20 C14        29.1650   -4.0890   15.7230 C.3       1 BD0901      0.0000 
     21 C16        29.7550   -1.7070   16.0440 C.3       1 BD0901      0.0000 
     22 C18        32.1550   -2.1790   15.1220 C.ar      1 BD0901      0.0000 
     23 C19        33.2510   -1.8040   14.3030 C.ar      1 BD0901      0.0000 
     24 N22        35.4540    0.6170   13.1970 N.3       1 BD0901      0.0000 
     25 C23        36.2330   -0.0290   14.2690 C.3       1 BD0901      0.0000 
     26 C25        37.6320    1.3470   12.8930 C.3       1 BD0901      0.0000 
     27 F26        38.7490    0.9570   12.2500 F         1 BD0901      0.0000 
     28 F27        37.6600    2.6890   12.9820 F         1 BD0901      0.0000 
     29 C29        32.0610    0.2490   13.6550 C.ar      1 BD0901      0.0000 
     30 C30        30.9660   -0.1240   14.4710 C.ar      1 BD0901      0.0000 
     31 H          32.7472   -0.9443   17.9386 H         1 BD0901      0.0000 
     32 H          31.2512   -2.8664   16.9126 H         1 BD0901      0.0000 
     33 H          28.6014   -4.0122   17.7705 H         1 BD0901      0.0000 
     34 H          30.2621   -4.5584   17.4814 H         1 BD0901      0.0000 
     35 H          27.9383   -2.4285   15.1454 H         1 BD0901      0.0000 
     36 H          29.3852   -2.6523   14.1472 H         1 BD0901      0.0000 
     37 H          33.9110    0.3451   11.7526 H         1 BD0901      0.0000 
     38 H          34.7776   -1.1366   12.1928 H         1 BD0901      0.0000 
     39 H          38.3552    0.0734   14.4341 H         1 BD0901      0.0000 
     40 H          37.5012    1.5159   15.0083 H         1 BD0901      0.0000 
     41 H          36.0727    1.7095   11.5182 H         1 BD0901      0.0000 
     42 H          36.6423    0.0324   11.5719 H         1 BD0901      0.0000 
     43 H          29.7122    2.3566   19.8629 H         1 BD0901      0.0000 
     44 H          28.2545   -4.6369   15.6352 H         1 BD0901      0.0000 
     45 H          29.9793   -4.5732   15.2338 H         1 BD0901      0.0000 
     46 H          29.1371   -0.8708   16.1848 H         1 BD0901      0.0000 
     47 H          32.1893   -3.0503   15.6543 H         1 BD0901      0.0000 
     48 H          34.0733   -2.4048   14.2436 H         1 BD0901      0.0000 
     49 H          35.7547    0.0877   15.2148 H         1 BD0901      0.0000 
     50 H          36.4310   -1.0508   14.0373 H         1 BD0901      0.0000 
     51 H          32.0305    1.1251   13.1286 H         1 BD0901      0.0000 
     52 H          30.1451    0.4818   14.5348 H         1 BD0901      0.0000 
     53 H          31.2777    3.7710   19.7227 H         1 BD0901      0.0000 
     54 H          28.3708    0.6106   20.3490 H         1 BD0901      0.0000 
@<TRIPOS>BOND
     1    2    1 ar   
     2   16    1 ar   
     3   17    1 1    
     4    3    2 ar   
     5    5    2 1    
     6    4    3 ar   
     7   31    3 1    
     8   15    4 ar   
     9   18    4 1    
    10    6    5 1    
    11   19    5 2    
    12    7    6 1    
    13   21    6 1    
    14   32    6 1    
    15   20    7 1    
    16   33    7 1    
    17   34    7 1    
    18   20    8 1    
    19   21    8 1    
    20   35    8 1    
    21   36    8 1    
    22   21    9 1    
    23   22    9 ar   
    24   30    9 ar   
    25   11   10 1    
    26   23   10 ar   
    27   29   10 ar   
    28   24   11 1    
    29   37   11 1    
    30   38   11 1    
    31   25   12 1    
    32   26   12 1    
    33   39   12 1    
    34   40   12 1    
    35   24   13 1    
    36   26   13 1    
    37   41   13 1    
    38   42   13 1    
    39   15   14 1    
    40   53   14 1    
    41   16   15 ar   
    42   43   16 1    
    43   54   17 1    
    44   44   20 1    
    45   45   20 1    
    46   46   21 1    
    47   23   22 ar   
    48   47   22 1    
    49   48   23 1    
    50   25   24 1    
    51   49   25 1    
    52   50   25 1    
    53   27   26 1    
    54   28   26 1    
    55   30   29 ar   
    56   51   29 1    
    57   52   30 1    
@<TRIPOS>SUBSTRUCTURE
     1 BD0901      1 GROUP   
@<TRIPOS>SET

