#    Name: 1ivr_CBA_1_INTS_M
#    Modification time : Tue Mar 25 08:12:31 2014

@<TRIPOS>MOLECULE
1ivr_CBA_1_INTS_M
   90     0    12     0     0
SMALL
NO_CHARGES


@<TRIPOS>ATOM
      1 N          43.1135   17.0175   46.0380 N.am      2 SEC2        0.0000 
      2 N          43.7250   15.9630   45.1500 N.am     10 SEL2        0.0000 
      3 N          42.5020   18.0720   46.9260 N.am      6 SEP2        0.0000 
      4 CA         47.3890   15.8665   47.5530 C.3       4 GLC5        0.0000 
      5 CA         45.7600   15.9840   46.7900 C.3      12 GLL5        0.0000 
      6 CA         49.0180   15.7490   48.3160 C.3       8 GLP5        0.0000 
      7 CA         46.0635   14.1015   47.3885 C.3       4 GLC5        0.0000 
      8 CA         46.3670   12.2190   47.9870 C.3       8 GLP5        0.0000 
      9 N          47.9920   14.5920   45.6885 N.am      2 SEC2        0.0000 
     10 N          46.8710   14.2810   45.4210 N.am     10 SEL2        0.0000 
     11 N          49.1130   14.9030   45.9560 N.am      6 SEP2        0.0000 
     12 O          47.1920   13.0685   45.7330 O.2       1 ALC1        0.0000 
     13 O          46.8710   14.2810   45.4210 O.2       9 ALL1        0.0000 
     14 O          47.5130   11.8560   46.0450 O.2       5 ALP1        0.0000 
     15 CA         46.0835   14.6675   41.9220 C.3       4 GLC5        0.0000 
     16 CA         46.0000   13.0250   42.7940 C.3      12 GLL5        0.0000 
     17 CA         46.1670   16.3100   41.0500 C.3       8 GLP5        0.0000 
     18 CA         41.0085   13.8580   42.0825 C.3       4 GLC5        0.0000 
     19 CA         43.2200   13.9460   41.8880 C.3      12 GLL5        0.0000 
     20 CA         38.7970   13.7700   42.2770 C.3       8 GLP5        0.0000 
     21 CA         41.6315   15.0975   40.7885 C.3       4 GLC5        0.0000 
     22 CA         40.0430   16.2490   39.6890 C.3       8 GLP5        0.0000 
     23 CA         44.0155   15.2990   41.4695 C.3       4 GLC5        0.0000 
     24 CA         44.8110   16.6520   41.0510 C.3       8 GLP5        0.0000 
     25 CA         41.9345   16.9105   43.7765 C.3       4 GLC5        0.0000 
     26 CA         43.1870   15.3940   43.9660 C.3      12 GLL5        0.0000 
     27 CA         40.6820   18.4270   43.5870 C.3       8 GLP5        0.0000 
     28 N          40.0740   10.4420   40.4835 N.am      2 SEC2        0.0000 
     29 N          41.0330   11.2410   41.1540 N.am     10 SEL2        0.0000 
     30 N          39.1150    9.6430   39.8130 N.am      6 SEP2        0.0000 
     31 N          39.7675   11.9370   41.2655 N.am      2 SEC2        0.0000 
     32 N          38.5020   12.6330   41.3770 N.am      6 SEP2        0.0000 
     33 N          40.8375   10.3035   42.3105 N.am      2 SEC2        0.0000 
     34 N          40.6420    9.3660   43.4670 N.am      6 SEP2        0.0000 
     35 NZ         42.2775   10.3530   38.5680 N.4       3 LYC4        0.0000 
     36 NZ         42.9710   10.9360   39.7570 N.4      11 LYL4        0.0000 
     37 NZ         41.0750   10.6890   36.5510 N.4       7 LYP4        0.0000 
     38 N          42.2775   10.3530   38.5680 N.am      2 SEC2        0.0000 
     39 N          42.9710   10.9360   39.7570 N.am     10 SEL2        0.0000 
     40 N          41.5840    9.7700   37.3790 N.am      6 SEP2        0.0000 
     41 NZ         41.4290   12.5315   38.2180 N.4       3 LYC4        0.0000 
     42 NZ         41.6650   13.0700   39.6700 N.4      11 LYL4        0.0000 
     43 N          40.7340   14.0775   40.0815 N.am      2 SEC2        0.0000 
     44 N          41.6650   13.0700   39.6700 N.am     10 SEL2        0.0000 
     45 N          39.8030   15.0850   40.4930 N.am      6 SEP2        0.0000 
     46 N          41.8895   14.2885   39.3625 N.am      2 SEC2        0.0000 
     47 N          42.1140   15.5070   39.0550 N.am      6 SEP2        0.0000 
     48 N          41.4290   12.5315   38.2180 N.am      2 SEC2        0.0000 
     49 N          41.1930   11.9930   36.7660 N.am      6 SEP2        0.0000 
     50 CA         49.7200   10.8475   42.8265 C.3       4 GLC5        0.0000 
     51 CA         48.4940   12.5490   42.2090 C.3      12 GLL5        0.0000 
     52 CA         50.9460    9.1460   43.4440 C.3       8 GLP5        0.0000 
     53 CA         47.0790   11.1965   42.8440 C.3       4 GLC5        0.0000 
     54 CA         45.6640    9.8440   43.4790 C.3       8 GLP5        0.0000 
     55 N          49.8755   10.4860   42.3810 N.am      2 SEC2        0.0000 
     56 N          48.3430   11.1370   42.5510 N.am     10 SEL2        0.0000 
     57 N          51.4080    9.8350   42.2110 N.am      6 SEP2        0.0000 
     58 N          47.5070   10.0340   42.6520 N.am      2 SEC2        0.0000 
     59 N          46.6710    8.9310   42.7530 N.am      6 SEP2        0.0000 
     60 CA         49.2630   10.9330   40.0710 C.3       4 GLC5        0.0000 
     61 CA         48.1790   12.3900   40.6870 C.3      12 GLL5        0.0000 
     62 CA         50.3470    9.4760   39.4550 C.3       8 GLP5        0.0000 
     63 CA         47.1730   14.3500   40.8685 C.3       4 GLC5        0.0000 
     64 N          46.8635   10.1990   41.7615 N.am      2 SEC2        0.0000 
     65 N          47.0560   11.4670   40.7700 N.am     10 SEL2        0.0000 
     66 NZ         51.0890   14.6730   43.7175 N.4       3 LYC4        0.0000 
     67 NZ         50.0390   14.1420   43.0200 N.4      11 LYL4        0.0000 
     68 NZ         53.1720   14.4220   44.1800 N.4       7 LYP4        0.0000 
     69 N          49.5760   14.5225   44.4880 N.am      2 SEC2        0.0000 
     70 N          50.0390   14.1420   43.0200 N.am     10 SEL2        0.0000 
     71 N          51.0890   14.6730   43.7175 N.am      2 SEC2        0.0000 
     72 N          52.1390   15.2040   44.4150 N.am      6 SEP2        0.0000 
     73 N          51.5520   13.9290   43.0340 N.am      2 SEC2        0.0000 
     74 N          53.0650   13.7160   43.0480 N.am      6 SEP2        0.0000 
     75 NZ         52.0055   13.0340   42.5700 N.4       3 LYC4        0.0000 
     76 NZ         50.9460   12.3520   42.0920 N.4      11 LYL4        0.0000 
     77 N          51.1770   11.0935   42.1515 N.am      2 SEC2        0.0000 
     78 N          50.9460   12.3520   42.0920 N.am     10 SEL2        0.0000 
     79 N          52.0055   13.0340   42.5700 N.am      2 SEC2        0.0000 
     80 N          48.5415   15.7320   41.0955 N.am      2 SEC2        0.0000 
     81 N          48.7680   14.7260   39.9070 N.am     10 SEL2        0.0000 
     82 N          48.3150   16.7380   42.2840 N.am      6 SEP2        0.0000 
     83 CA         46.4325   17.3753   45.6205 C.3       4 GLC5        0.0000 
     84 CA         44.9900   15.5410   45.5460 C.3      12 GLL5        0.0000 
     85 CA         47.4900   18.9880   45.0730 C.3       8 GLP5        0.0000 
     86 CA         43.9535   13.9093   45.9555 C.3       4 GLC5        0.0000 
     87 CA         42.5860   12.7610   46.7470 C.3       8 GLP5        0.0000 
     88 CA         45.6235   11.6845   43.3362 C.3       4 GLC5        0.0000 
     89 CA         45.1660   14.0250   43.5930 C.3      12 GLL5        0.0000 
     90 CA         43.2204   13.7848   45.2131 C.3       4 GLC5        0.0000 
@<TRIPOS>BOND
@<TRIPOS>SUBSTRUCTURE
     1 ALC1       12 GROUP        1 X    ALC  0     ROOT ALC X 1
     2 SEC2        1 GROUP        1 X    SEC  0     **** SEC X 2
     3 LYC4       35 GROUP        1 X    LYC  0     **** LYC X 4
     4 GLC5        4 GROUP        1 X    GLC  0     **** GLC X 6
     5 ALP1       14 GROUP        1 Y    ALP  0     ROOT ALP Y 8
     6 SEP2        3 GROUP        1 Y    SEP  0     **** SEP Y 9
     7 LYP4       37 GROUP        1 Y    LYP  0     **** LYP Y 11
     8 GLP5        6 GROUP        1 Y    GLP  0     **** GLP Y 13
     9 ALL1       13 GROUP        1 Z    ALL  0     ROOT ALL Z 15
    10 SEL2        2 GROUP        1 Z    SEL  0     **** SEL Z 16
    11 LYL4       36 GROUP        1 Z    LYL  0     **** LYL Z 18
    12 GLL5        5 GROUP        1 Z    GLL  0     **** GLL Z 20
@<TRIPOS>SET

