#    Name: 1ivr_CBA_1_ligand
#    Modification time : Tue Mar 25 08:12:31 2014

@<TRIPOS>MOLECULE
1ivr_CBA_1_ligand
   38    38     1     0     0
SMALL
NO_CHARGES


@<TRIPOS>ATOM
      1 N1         43.7250   15.9630   45.1500 N.ar      1 CBA402      0.0000 
      2 C2         44.9900   15.5410   45.5460 C.ar      1 CBA402      0.0000 
      3 C2A        45.7600   15.9840   46.7900 C.3       1 CBA402      0.0000 
      4 C3         45.6520   14.5740   44.7820 C.ar      1 CBA402      0.0000 
      5 O3         46.8710   14.2810   45.4210 O.3       1 CBA402      0.0000 
      6 C4         45.1660   14.0250   43.5930 C.ar      1 CBA402      0.0000 
      7 C4A        46.0000   13.0250   42.7940 C.3       1 CBA402      0.0000 
      8 C5         43.8790   14.4210   43.1920 C.ar      1 CBA402      0.0000 
      9 C5A        43.2200   13.9460   41.8880 C.3       1 CBA402      0.0000 
     10 C6         43.1870   15.3940   43.9660 C.ar      1 CBA402      0.0000 
     11 P          42.3120   11.9770   40.5410 P.3       1 CBA402      0.0000 
     12 O1P        41.0330   11.2410   41.1540 O.co2     1 CBA402      0.0000 
     13 O2P        42.9710   10.9360   39.7570 O.co2     1 CBA402      0.0000 
     14 O3P        41.6650   13.0700   39.6700 O.co2     1 CBA402      0.0000 
     15 O4P        43.3390   12.6490   41.5060 O.3       1 CBA402      0.0000 
     16 N          47.4600   13.4870   42.8890 N.4       1 CBA402      0.0000 
     17 CA         48.4940   12.5490   42.2090 C.3       1 CBA402      0.0000 
     18 OA         48.3430   11.1370   42.5510 O.3       1 CBA402      0.0000 
     19 CB         48.1790   12.3900   40.6870 C.3       1 CBA402      0.0000 
     20 OB         47.0560   11.4670   40.7700 O.3       1 CBA402      0.0000 
     21 C          49.9100   13.0290   42.4490 C.2       1 CBA402      0.0000 
     22 O          50.0390   14.1420   43.0200 O.co2     1 CBA402      0.0000 
     23 OT         50.9460   12.3520   42.0920 O.co2     1 CBA402      0.0000 
     24 CG         47.9780   13.6820   39.8880 C.2       1 CBA402      0.0000 
     25 OD1        46.8830   13.4620   39.2460 O.co2     1 CBA402      0.0000 
     26 OD2        48.7680   14.7260   39.9070 O.co2     1 CBA402      0.0000 
     27 H          45.6893   13.0330   41.7685 H         1 CBA402      0.0000 
     28 H          45.9058   12.0489   43.2261 H         1 CBA402      0.0000 
     29 H          43.5997   14.6686   41.0802 H         1 CBA402      0.0000 
     30 H          42.1215   14.2702   41.9724 H         1 CBA402      0.0000 
     31 H          42.2461   15.7008   43.6493 H         1 CBA402      0.0000 
     32 H          49.0428   11.8270   40.2857 H         1 CBA402      0.0000 
     33 H          46.6507   15.5340   46.8553 H         1 CBA402      0.0000 
     34 H          45.9288   16.9697   46.7909 H         1 CBA402      0.0000 
     35 H          45.2618   15.7712   47.6305 H         1 CBA402      0.0000 
     36 H          46.7508   13.3630   45.7991 H         1 CBA402      0.0000 
     37 H          48.0707   11.1316   43.5132 H         1 CBA402      0.0000 
     38 H          46.4438   11.7370   40.0269 H         1 CBA402      0.0000 
@<TRIPOS>BOND
     1    2    1 ar   
     2   10    1 ar   
     3    3    2 1    
     4    4    2 ar   
     5   33    3 1    
     6   34    3 1    
     7   35    3 1    
     8    5    4 1    
     9    6    4 ar   
    10   36    5 1    
    11    7    6 1    
    12    8    6 ar   
    13   16    7 1    
    14   27    7 1    
    15   28    7 1    
    16    9    8 1    
    17   10    8 ar   
    18   15    9 1    
    19   29    9 1    
    20   30    9 1    
    21   31   10 1    
    22   12   11 ar   
    23   13   11 ar   
    24   14   11 ar   
    25   15   11 1    
    26   17   16 1    
    27   18   17 1    
    28   19   17 1    
    29   21   17 1    
    30   37   18 1    
    31   20   19 1    
    32   24   19 1    
    33   32   19 1    
    34   38   20 1    
    35   22   21 ar   
    36   23   21 ar   
    37   25   24 ar   
    38   26   24 ar   
@<TRIPOS>SUBSTRUCTURE
     1 CBA402      1 GROUP   
@<TRIPOS>SET

