#    Name: 1G93_1_CAVITY_N1_6.mol2
#    Modification time : Tue Mar 11 01:05:58 2014

@<TRIPOS>MOLECULE
1G93_1_CAVITY_N1_6.mol2
  150     0     7     0     0
SMALL
NO_CHARGES


@<TRIPOS>ATOM
      1 DU         78.8066   10.1325   47.7464 H         7 CUB7        0.0000 
      2 O          79.8287    8.3102   47.3796 O.2       2 ALA2        0.0000 
      3 CA         80.1794    7.5188   46.1546 C.3       6 GLY6        0.0000 
      4 CA         79.4301   11.9124   46.7752 C.3       6 GLY6        0.0000 
      5 CA         80.1014   10.8814   47.6334 C.3       6 GLY6        0.0000 
      6 CA         79.7808   11.1210   45.5501 C.3       6 GLY6        0.0000 
      7 DU         80.4521   10.0901   46.4083 H         7 CUB7        0.0000 
      8 N          81.1234    9.0591   47.2665 N.2       2 ALA2        0.0000 
      9 CZ         80.1316   10.3296   44.3251 C.ar      5 PHE5        0.0000 
     10 CZ         80.8029    9.2987   45.1833 C.ar      5 PHE5        0.0000 
     11 CA         80.7248   12.6613   46.6621 C.3       6 GLY6        0.0000 
     12 CA         81.3961   11.6304   47.5203 C.3       6 GLY6        0.0000 
     13 CA         80.4043   12.9009   44.5788 C.3       6 GLY6        0.0000 
     14 CZ         81.0756   11.8699   45.4370 C.ar      5 PHE5        0.0000 
     15 CZ         81.7469   10.8390   46.2953 C.ar      5 PHE5        0.0000 
     16 OG         80.7550   12.1095   43.3538 O.2       1 SER1        0.0000 
     17 CA         82.0195   13.4102   46.5490 C.3       6 GLY6        0.0000 
     18 CA         82.6908   12.3793   47.4072 C.3       6 GLY6        0.0000 
     19 CA         81.6990   13.6498   44.4658 C.3       6 GLY6        0.0000 
     20 CZ         82.3703   12.6189   45.3240 C.ar      5 PHE5        0.0000 
     21 CZ         83.0416   11.5879   46.1822 C.ar      5 PHE5        0.0000 
     22 CZ         82.6430   15.1901   45.5777 C.ar      5 PHE5        0.0000 
     23 CA         83.3143   14.1591   46.4359 C.3       6 GLY6        0.0000 
     24 CA         83.9856   13.1282   47.2941 C.3       6 GLY6        0.0000 
     25 O          84.6568   12.0973   48.1523 O.2       2 ALA2        0.0000 
     26 OG         82.9937   14.3987   44.3527 O.2       1 SER1        0.0000 
     27 CZ         83.6650   13.3678   45.2109 C.ar      5 PHE5        0.0000 
     28 CZ         84.3363   12.3368   46.0691 C.ar      5 PHE5        0.0000 
     29 N          85.0076   11.3059   46.9273 N.2       2 ALA2        0.0000 
     30 CZ         82.0019   15.6692   41.4112 C.ar      5 PHE5        0.0000 
     31 CA         83.2664   16.9700   44.6064 C.3       6 GLY6        0.0000 
     32 CA         83.9377   15.9390   45.4646 C.3       6 GLY6        0.0000 
     33 CA         84.6090   14.9081   46.3228 C.3       6 GLY6        0.0000 
     34 CA         85.2803   13.8771   47.1810 C.3       6 GLY6        0.0000 
     35 O          85.9516   12.8462   48.0393 O.2       2 ALA2        0.0000 
     36 CZ         80.9320   20.3024   39.9485 C.ar      5 PHE5        0.0000 
     37 CZ         81.6033   19.2714   40.8068 C.ar      5 PHE5        0.0000 
     38 CZ         82.9459   17.2095   42.5232 C.ar      5 PHE5        0.0000 
     39 CZ         83.6172   16.1786   43.3814 C.ar      5 PHE5        0.0000 
     40 CZ         84.2885   15.1476   44.2396 C.ar      5 PHE5        0.0000 
     41 CZ         84.9598   14.1167   45.0978 C.ar      5 PHE5        0.0000 
     42 CZ         85.6311   13.0857   45.9560 C.ar      5 PHE5        0.0000 
     43 CA         86.3023   12.0548   46.8142 C.3       6 GLY6        0.0000 
     44 CZ         81.2828   19.5110   38.7235 C.ar      5 PHE5        0.0000 
     45 CZ         81.9541   18.4800   39.5817 C.ar      5 PHE5        0.0000 
     46 CZ         82.6254   17.4491   40.4399 C.ar      5 PHE5        0.0000 
     47 CZ         83.2967   16.4182   41.2982 C.ar      5 PHE5        0.0000 
     48 OG         83.9680   15.3872   42.1564 O.2       1 SER1        0.0000 
     49 CZ         84.6392   14.3563   43.0146 C.ar      5 PHE5        0.0000 
     50 DU         82.3048   17.6887   38.3567 H         7 CUB7        0.0000 
     51 DU         82.9761   16.6577   39.2149 H         7 CUB7        0.0000 
     52 OG         83.6474   15.6268   40.0731 O.2       1 SER1        0.0000 
     53 OG         84.3187   14.5958   40.9313 O.2       1 SER1        0.0000 
     54 CA         85.5530   16.4484   47.4348 C.3       6 GLY6        0.0000 
     55 CA         86.2243   15.4174   48.2930 C.3       6 GLY6        0.0000 
     56 CA         81.8760   21.8427   41.0605 C.3       6 GLY6        0.0000 
     57 CZ         82.5473   20.8117   41.9187 C.ar      5 PHE5        0.0000 
     58 OG         83.2186   19.7808   42.7769 O.2       1 SER1        0.0000 
     59 OG         83.8899   18.7498   43.6351 O.2       1 SER1        0.0000 
     60 CA         84.5612   17.7189   44.4933 C.3       6 GLY6        0.0000 
     61 CA         85.2324   16.6879   45.3515 C.3       6 GLY6        0.0000 
     62 DU         85.9037   15.6570   46.2098 H         7 CUB7        0.0000 
     63 N          86.5750   14.6260   47.0680 N.2       2 ALA2        0.0000 
     64 N          87.2463   13.5951   47.9262 N.2       2 ALA2        0.0000 
     65 CZ         82.2268   21.0513   39.8355 C.ar      5 PHE5        0.0000 
     66 CZ         82.8980   20.0203   40.6937 C.ar      5 PHE5        0.0000 
     67 CZ         83.5693   18.9894   41.5519 C.ar      5 PHE5        0.0000 
     68 CZ         84.2406   17.9584   42.4101 C.ar      5 PHE5        0.0000 
     69 DU         84.9119   16.9275   43.2683 H         7 CUB7        0.0000 
     70 DU         85.5832   15.8966   44.1265 H         7 CUB7        0.0000 
     71 DU         86.2545   14.8656   44.9847 H         7 CUB7        0.0000 
     72 N          86.9258   13.8347   45.8429 N.2       2 ALA2        0.0000 
     73 CZ         81.9062   21.2908   37.7522 C.ar      5 PHE5        0.0000 
     74 DU         82.5775   20.2599   38.6104 H         7 CUB7        0.0000 
     75 DU         83.2488   19.2290   39.4687 H         7 CUB7        0.0000 
     76 DU         83.9201   18.1980   40.3269 H         7 CUB7        0.0000 
     77 OD1        84.5914   17.1671   41.1851 O.3       3 ASP3        0.0000 
     78 OD1        85.2627   16.1361   42.0433 O.3       3 ASP3        0.0000 
     79 NZ         85.9340   15.1052   42.9015 N.2       4 LYS4        0.0000 
     80 CZ         86.6053   14.0742   43.7597 C.ar      5 PHE5        0.0000 
     81 DU         82.2570   20.4995   36.5272 H         7 CUB7        0.0000 
     82 DU         82.9283   19.4685   37.3854 H         7 CUB7        0.0000 
     83 DU         83.5996   18.4376   38.2436 H         7 CUB7        0.0000 
     84 OD1        84.2709   17.4066   39.1018 O.3       3 ASP3        0.0000 
     85 OD1        84.9422   16.3757   39.9600 O.3       3 ASP3        0.0000 
     86 DU         83.2791   18.6772   36.1604 H         7 CUB7        0.0000 
     87 DU         83.9503   17.6462   37.0186 H         7 CUB7        0.0000 
     88 OD1        84.6216   16.6153   37.8768 O.3       3 ASP3        0.0000 
     89 NZ         83.4912   22.3520   43.0306 N.2       4 LYS4        0.0000 
     90 N          83.1707   22.5916   40.9474 N.2       2 ALA2        0.0000 
     91 DU         83.8420   21.5606   41.8056 H         7 CUB7        0.0000 
     92 OG         84.5133   20.5297   42.6638 O.2       1 SER1        0.0000 
     93 OG         85.1846   19.4987   43.5220 O.2       1 SER1        0.0000 
     94 O          85.8559   18.4678   44.3803 O.2       2 ALA2        0.0000 
     95 O          86.5272   17.4368   45.2385 O.2       2 ALA2        0.0000 
     96 O          87.1985   16.4059   46.0967 O.2       2 ALA2        0.0000 
     97 O          87.8698   15.3750   46.9549 O.2       2 ALA2        0.0000 
     98 CZ         82.8502   22.8311   38.8642 C.ar      5 PHE5        0.0000 
     99 NZ         83.5215   21.8002   39.7224 N.2       4 LYS4        0.0000 
    100 NZ         84.8641   19.7383   41.4388 N.2       4 LYS4        0.0000 
    101 NZ         85.5354   18.7074   42.2970 N.2       4 LYS4        0.0000 
    102 NZ         86.2066   17.6764   43.1552 N.2       4 LYS4        0.0000 
    103 NZ         86.8779   16.6455   44.0134 N.2       4 LYS4        0.0000 
    104 O          87.5492   15.6145   44.8716 O.2       2 ALA2        0.0000 
    105 N          88.2205   14.5836   45.7299 N.2       2 ALA2        0.0000 
    106 CZ         82.5297   23.0707   36.7809 C.ar      5 PHE5        0.0000 
    107 NZ         83.2010   22.0398   37.6392 N.2       4 LYS4        0.0000 
    108 DU         83.8723   21.0088   38.4974 H         7 CUB7        0.0000 
    109 DU         84.5435   19.9779   39.3556 H         7 CUB7        0.0000 
    110 OD1        85.2148   18.9469   40.2138 O.3       3 ASP3        0.0000 
    111 OD1        85.8861   17.9160   41.0720 O.3       3 ASP3        0.0000 
    112 NZ         87.2287   15.8541   42.7884 N.2       4 LYS4        0.0000 
    113 NZ         87.9000   14.8232   43.6466 N.2       4 LYS4        0.0000 
    114 DU         82.8804   22.2793   35.5559 H         7 CUB7        0.0000 
    115 DU         83.5517   21.2484   36.4141 H         7 CUB7        0.0000 
    116 DU         84.2230   20.2174   37.2723 H         7 CUB7        0.0000 
    117 DU         84.8943   19.1865   38.1305 H         7 CUB7        0.0000 
    118 OD1        85.5656   18.1556   38.9888 O.3       3 ASP3        0.0000 
    119 DU         83.9025   20.4570   35.1891 H         7 CUB7        0.0000 
    120 CZ         84.5738   19.4261   36.0473 C.ar      5 PHE5        0.0000 
    121 DU         85.2451   18.3951   36.9055 H         7 CUB7        0.0000 
    122 OD1        85.9164   17.3642   37.7637 O.3       3 ASP3        0.0000 
    123 DU         83.5820   20.6966   33.1059 H         7 CUB7        0.0000 
    124 CZ         84.2533   19.6656   33.9641 C.ar      5 PHE5        0.0000 
    125 CZ         84.9246   18.6347   34.8223 C.ar      5 PHE5        0.0000 
    126 NZ         84.7860   23.1009   42.9176 N.2       4 LYS4        0.0000 
    127 CA         84.4655   23.3405   40.8343 C.3       6 GLY6        0.0000 
    128 CA         85.1367   22.3095   41.6925 C.3       6 GLY6        0.0000 
    129 NZ         85.8080   21.2786   42.5508 N.2       4 LYS4        0.0000 
    130 O          86.4793   20.2477   43.4090 O.2       2 ALA2        0.0000 
    131 NZ         84.8162   22.5491   39.6093 N.2       4 LYS4        0.0000 
    132 NZ         85.4875   21.5182   40.4675 N.2       4 LYS4        0.0000 
    133 NZ         86.1588   20.4872   41.3257 N.2       4 LYS4        0.0000 
    134 NZ         85.1670   21.7577   38.3843 N.2       4 LYS4        0.0000 
    135 N          85.8383   20.7268   39.2425 N.2       2 ALA2        0.0000 
    136 NZ         86.5096   19.6959   40.1007 N.2       4 LYS4        0.0000 
    137 O          84.1752   23.0283   35.4428 O.2       2 ALA2        0.0000 
    138 O          84.8465   21.9973   36.3010 O.2       2 ALA2        0.0000 
    139 N          85.5178   20.9664   37.1593 N.2       2 ALA2        0.0000 
    140 N          86.1890   19.9354   38.0175 N.2       2 ALA2        0.0000 
    141 OD1        86.8603   18.9045   38.8757 O.3       3 ASP3        0.0000 
    142 O          84.5259   22.2369   34.2178 O.2       2 ALA2        0.0000 
    143 CZ         85.8685   20.1750   35.9342 C.ar      5 PHE5        0.0000 
    144 N          86.5398   19.1440   36.7924 N.2       2 ALA2        0.0000 
    145 CA         86.4315   23.0585   41.5795 C.3       6 GLY6        0.0000 
    146 CA         87.1028   22.0275   42.4377 C.3       6 GLY6        0.0000 
    147 NZ         86.7822   22.2671   40.3544 N.2       4 LYS4        0.0000 
    148 NZ         87.4535   21.2361   41.2126 N.2       4 LYS4        0.0000 
    149 N          87.1330   21.4757   39.1294 N.2       2 ALA2        0.0000 
    150 NZ         87.8043   20.4448   39.9876 N.2       4 LYS4        0.0000 
@<TRIPOS>BOND
@<TRIPOS>SUBSTRUCTURE
     1 SER1       16 GROUP   
     2 ALA2        2 GROUP   
     3 ASP3       77 GROUP   
     4 LYS4       79 GROUP   
     5 PHE5        9 GROUP   
     6 GLY6        3 GROUP   
     7 CUB7        1 GROUP   
@<TRIPOS>SET

