#    Name: 1g93_UPG_1_INTS_M
#    Modification time : Tue Mar 25 02:50:37 2014

@<TRIPOS>MOLECULE
1g93_UPG_1_INTS_M
   65     0    12     0     0
SMALL
NO_CHARGES


@<TRIPOS>ATOM
      1 O          83.7515   10.5205   47.7360 O.2       1 ALC1        0.0000 
      2 O          83.4210   11.8300   47.0190 O.2       9 ALL1        0.0000 
      3 O          84.0820    9.2110   48.4530 O.2       5 ALP1        0.0000 
      4 CA         83.0910   12.3065   43.7855 C.3       4 GLC5        0.0000 
      5 CA         82.6970   13.0400   45.1310 C.3      12 GLL5        0.0000 
      6 CA         83.4850   11.5730   42.4400 C.3       8 GLP5        0.0000 
      7 CA         80.9130   13.8780   45.5570 C.3       4 GLC5        0.0000 
      8 CA         79.1290   14.7160   45.9830 C.3       8 GLP5        0.0000 
      9 CA         84.3120   12.8130   43.8950 C.3       4 GLC5        0.0000 
     10 CA         83.7810   13.7820   45.2310 C.3      12 GLL5        0.0000 
     11 CA         84.8430   11.8440   42.5590 C.3       8 GLP5        0.0000 
     12 N          85.8260   11.2700   48.8590 N.am      2 SEC2        0.0000 
     13 N          85.3940   12.3630   48.0080 N.am     10 SEL2        0.0000 
     14 N          86.2580   10.1770   49.7100 N.am      6 SEP2        0.0000 
     15 CA         84.6460   14.7905   47.8415 C.3       4 GLC5        0.0000 
     16 CA         85.6750   14.6310   46.0620 C.3      12 GLL5        0.0000 
     17 CA         83.6170   14.9500   49.6210 C.3       8 GLP5        0.0000 
     18 CA         89.2665   16.0095   44.0245 C.3       4 GLC5        0.0000 
     19 CA         87.4540   15.4800   44.7040 C.3      12 GLL5        0.0000 
     20 CA         91.0790   16.5390   43.3450 C.3       8 GLP5        0.0000 
     21 N          89.7055   14.9475   44.6690 N.am      2 SEC2        0.0000 
     22 N          88.5280   15.7630   45.5870 N.am     10 SEL2        0.0000 
     23 N          90.8830   14.1320   43.7510 N.am      6 SEP2        0.0000 
     24 N          83.2695   13.5190   41.3945 N.am      2 SEC2        0.0000 
     25 N          83.8680   14.6380   41.1030 N.am     10 SEL2        0.0000 
     26 N          82.6710   12.4000   41.6860 N.am      6 SEP2        0.0000 
     27 Zn         86.2655   16.5585   40.1910 Zn        3 ZIC7        0.0000 
     28 Zn         85.0960   16.8460   40.5910 Zn       11 ZIL7        0.0000 
     29 Zn         87.4350   16.2710   39.7910 Zn        7 ZIP7        0.0000 
     30 CA         87.8405   21.7335   39.1230 C.3       4 GLC5        0.0000 
     31 CA         86.5160   21.0240   40.7880 C.3      12 GLL5        0.0000 
     32 CA         89.1650   22.4430   37.4580 C.3       8 GLP5        0.0000 
     33 CA         84.3195   20.2135   44.7825 C.3       4 GLC5        0.0000 
     34 CA         85.1770   21.2690   43.0010 C.3      12 GLL5        0.0000 
     35 CA         83.4620   19.1580   46.5640 C.3       8 GLP5        0.0000 
     36 CA         80.9895   22.3710   42.7190 C.3       4 GLC5        0.0000 
     37 CA         82.6460   21.8040   42.5090 C.3      12 GLL5        0.0000 
     38 CA         79.3330   22.9380   42.9290 C.3       8 GLP5        0.0000 
     39 O          88.0665   19.3265   40.8440 O.2       1 ALC1        0.0000 
     40 O          87.6800   20.3670   40.2080 O.2       9 ALL1        0.0000 
     41 O          88.4530   18.2860   41.4800 O.2       5 ALP1        0.0000 
     42 N          87.6080   20.6935   44.4345 N.am      2 SEC2        0.0000 
     43 N          87.6340   21.1930   43.0590 N.am     10 SEL2        0.0000 
     44 N          87.5820   20.1940   45.8100 N.am      6 SEP2        0.0000 
     45 O          88.3375   19.7810   43.3260 O.2       1 ALC1        0.0000 
     46 O          87.6340   21.1930   43.0590 O.2       9 ALL1        0.0000 
     47 O          89.0410   18.3690   43.5930 O.2       5 ALP1        0.0000 
     48 O          88.0435   19.7395   42.2695 O.2       1 ALC1        0.0000 
     49 N          85.0060   24.3400   43.4125 N.am      2 SEC2        0.0000 
     50 N          85.2820   22.7000   43.1050 N.am     10 SEL2        0.0000 
     51 N          84.7300   25.9800   43.7200 N.am      6 SEP2        0.0000 
     52 O          85.6760   22.9160   44.4245 O.2       1 ALC1        0.0000 
     53 O          85.2820   22.7000   43.1050 O.2       9 ALL1        0.0000 
     54 O          86.0700   23.1320   45.7440 O.2       5 ALP1        0.0000 
     55 CA         85.9048   12.7407   44.4942 C.3       4 GLC5        0.0000 
     56 CA         85.6280   11.0780   43.4420 C.3       8 GLP5        0.0000 
     57 CA         88.1380   13.2085   44.5517 C.3       4 GLC5        0.0000 
     58 CA         86.6880   14.1760   45.0310 C.3      12 GLL5        0.0000 
     59 CA         89.2050   11.5890   44.2360 C.3       8 GLP5        0.0000 
     60 CA         84.7435   17.9455   45.4098 C.3       4 GLC5        0.0000 
     61 CA         86.3610   16.5110   44.8920 C.3      12 GLL5        0.0000 
     62 CA         85.3783   21.7548   38.9440 C.3       4 GLC5        0.0000 
     63 CA         84.9010   22.7630   37.4220 C.3       8 GLP5        0.0000 
     64 CA         87.4740   22.6490   41.9338 C.3       4 GLC5        0.0000 
     65 CA         88.4610   24.4440   42.3080 C.3       8 GLP5        0.0000 
@<TRIPOS>BOND
@<TRIPOS>SUBSTRUCTURE
     1 ALC1        1 GROUP        1 X    ALC  0     ROOT ALC X 1
     2 SEC2       12 GROUP        1 X    SEC  0     **** SEC X 2
     3 ZIC7       27 GROUP        1 X    ZIC  0     **** ZIC X 5
     4 GLC5        4 GROUP        1 X    GLC  0     **** GLC X 6
     5 ALP1        3 GROUP        1 Y    ALP  0     ROOT ALP Y 8
     6 SEP2       14 GROUP        1 Y    SEP  0     **** SEP Y 9
     7 ZIP7       29 GROUP        1 Y    ZIP  0     **** ZIP Y 12
     8 GLP5        6 GROUP        1 Y    GLP  0     **** GLP Y 13
     9 ALL1        2 GROUP        1 Z    ALL  0     ROOT ALL Z 15
    10 SEL2       13 GROUP        1 Z    SEL  0     **** SEL Z 16
    11 ZIL7       28 GROUP        1 Z    ZIL  0     **** ZIL Z 19
    12 GLL5        5 GROUP        1 Z    GLL  0     **** GLL Z 20
@<TRIPOS>SET

