#    Name: 1g93_UPG_1_ligand
#    Modification time : Tue Mar 25 02:50:37 2014

@<TRIPOS>MOLECULE
1g93_UPG_1_ligand
   58    60     1     0     0
SMALL
NO_CHARGES


@<TRIPOS>ATOM
      1 N1         84.7350   13.5800   46.1900 N.am      1 UPG500      0.0000 
      2 C2         84.5790   12.5780   47.1340 C.2       1 UPG500      0.0000 
      3 N3         83.4210   11.8300   47.0190 N.am      1 UPG500      0.0000 
      4 C4         82.4320   11.9770   46.0510 C.2       1 UPG500      0.0000 
      5 C5         82.6970   13.0400   45.1310 C.2       1 UPG500      0.0000 
      6 C6         83.7810   13.7820   45.2310 C.2       1 UPG500      0.0000 
      7 O2         85.3940   12.3630   48.0080 O.2       1 UPG500      0.0000 
      8 O4         81.4620   11.2400   46.0650 O.2       1 UPG500      0.0000 
      9 C1C        85.6750   14.6310   46.0620 C.3       1 UPG500      0.0000 
     10 C2C        86.6880   14.1760   45.0310 C.3       1 UPG500      0.0000 
     11 O2C        87.5570   13.1460   45.5240 O.3       1 UPG500      0.0000 
     12 C3C        87.4540   15.4800   44.7040 C.3       1 UPG500      0.0000 
     13 C4C        86.3610   16.5110   44.8920 C.3       1 UPG500      0.0000 
     14 O4C        85.3500   15.9310   45.7650 O.3       1 UPG500      0.0000 
     15 O3C        88.5280   15.7630   45.5870 O.3       1 UPG500      0.0000 
     16 C5C        85.6890   16.9550   43.6190 C.3       1 UPG500      0.0000 
     17 O5C        85.2160   15.7850   42.9040 O.3       1 UPG500      0.0000 
     18 PA         84.2180   15.9590   41.6500 P.3       1 UPG500      0.0000 
     19 O1A        83.0610   16.8190   41.9280 O.co2     1 UPG500      0.0000 
     20 O2A        83.8680   14.6380   41.1030 O.co2     1 UPG500      0.0000 
     21 O3A        85.0960   16.8460   40.5910 O.3       1 UPG500      0.0000 
     22 PB         84.4120   17.9780   39.5940 P.3       1 UPG500      0.0000 
     23 O1B        82.9710   18.4120   39.4740 O.co2     1 UPG500      0.0000 
     24 O2B        85.0470   17.9110   38.2100 O.co2     1 UPG500      0.0000 
     25 O3B        85.0540   19.0790   40.5040 O.3       1 UPG500      0.0000 
     26 C1'        85.1950   20.4690   40.1440 C.3       1 UPG500      0.0000 
     27 C2'        86.5160   21.0240   40.7880 C.3       1 UPG500      0.0000 
     28 C3'        86.4580   20.6840   42.3310 C.3       1 UPG500      0.0000 
     29 C4'        85.1770   21.2690   43.0010 C.3       1 UPG500      0.0000 
     30 C5'        83.8810   20.9450   42.1670 C.3       1 UPG500      0.0000 
     31 C6'        82.6460   21.8040   42.5090 C.3       1 UPG500      0.0000 
     32 O2'        87.6800   20.3670   40.2080 O.3       1 UPG500      0.0000 
     33 O3'        87.6340   21.1930   43.0590 O.3       1 UPG500      0.0000 
     34 O4'        85.2820   22.7000   43.1050 O.3       1 UPG500      0.0000 
     35 O5'        84.0860   21.1500   40.7360 O.3       1 UPG500      0.0000 
     36 O6'        81.5280   21.3750   41.6400 O.3       1 UPG500      0.0000 
     37 H          83.2665   11.0559   47.7500 H         1 UPG500      0.0000 
     38 H          81.9854   13.1921   44.3806 H         1 UPG500      0.0000 
     39 H          83.9410   14.5799   44.5445 H         1 UPG500      0.0000 
     40 H          86.3234   14.6238   47.0206 H         1 UPG500      0.0000 
     41 H          86.1555   13.8972   44.1445 H         1 UPG500      0.0000 
     42 H          87.7087   15.4615   43.6794 H         1 UPG500      0.0000 
     43 H          86.7885   17.3809   45.3869 H         1 UPG500      0.0000 
     44 H          86.4095   17.5151   43.0192 H         1 UPG500      0.0000 
     45 H          84.8604   17.6194   43.8733 H         1 UPG500      0.0000 
     46 H          85.2469   20.6077   39.1079 H         1 UPG500      0.0000 
     47 H          86.5331   22.0689   40.6838 H         1 UPG500      0.0000 
     48 H          86.4035   19.6027   42.4261 H         1 UPG500      0.0000 
     49 H          85.0592   20.8161   43.9670 H         1 UPG500      0.0000 
     50 H          83.6120   19.9052   42.3403 H         1 UPG500      0.0000 
     51 H          82.8943   22.8426   42.3346 H         1 UPG500      0.0000 
     52 H          82.4040   21.6528   43.5527 H         1 UPG500      0.0000 
     53 H          88.4108   13.6145   45.7508 H         1 UPG500      0.0000 
     54 H          88.1291   16.3330   46.3053 H         1 UPG500      0.0000 
     55 H          88.1472   19.9385   40.9813 H         1 UPG500      0.0000 
     56 H          88.3654   20.5418   42.8565 H         1 UPG500      0.0000 
     57 H          85.5856   22.8696   44.0426 H         1 UPG500      0.0000 
     58 H          81.9625   21.0599   40.7962 H         1 UPG500      0.0000 
@<TRIPOS>BOND
     1    2    1 1    
     2    6    1 1    
     3    9    1 1    
     4    3    2 1    
     5    7    2 2    
     6    4    3 1    
     7   37    3 1    
     8    5    4 1    
     9    8    4 2    
    10    6    5 2    
    11   38    5 1    
    12   39    6 1    
    13   10    9 1    
    14   14    9 1    
    15   40    9 1    
    16   11   10 1    
    17   12   10 1    
    18   41   10 1    
    19   53   11 1    
    20   13   12 1    
    21   15   12 1    
    22   42   12 1    
    23   14   13 1    
    24   16   13 1    
    25   43   13 1    
    26   54   15 1    
    27   17   16 1    
    28   44   16 1    
    29   45   16 1    
    30   18   17 1    
    31   19   18 ar   
    32   20   18 ar   
    33   21   18 1    
    34   22   21 1    
    35   23   22 ar   
    36   24   22 ar   
    37   25   22 1    
    38   26   25 1    
    39   27   26 1    
    40   35   26 1    
    41   46   26 1    
    42   28   27 1    
    43   32   27 1    
    44   47   27 1    
    45   29   28 1    
    46   33   28 1    
    47   48   28 1    
    48   30   29 1    
    49   34   29 1    
    50   49   29 1    
    51   31   30 1    
    52   35   30 1    
    53   50   30 1    
    54   36   31 1    
    55   51   31 1    
    56   52   31 1    
    57   55   32 1    
    58   56   33 1    
    59   57   34 1    
    60   58   36 1    
@<TRIPOS>SUBSTRUCTURE
     1 UPG500      1 GROUP   
@<TRIPOS>SET

