#    Name: 1O69_1_CAVITY_N1_6.mol2
#    Modification time : Mon Mar 10 21:19:05 2014

@<TRIPOS>MOLECULE
1O69_1_CAVITY_N1_6.mol2
    7     0     4     0     0
SMALL
NO_CHARGES


@<TRIPOS>ATOM
      1 NZ         66.4248   55.8961  -11.3231 N.2       2 LYS4        0.0000 
      2 CA         65.5469   56.0854  -13.2449 C.3       4 GLY6        0.0000 
      3 CZ         64.6690   56.2748  -15.1668 C.ar      3 PHE5        0.0000 
      4 CA         66.2491   54.0738  -10.2516 C.3       4 GLY6        0.0000 
      5 N          65.3712   54.2631  -12.1734 N.2       1 ALA2        0.0000 
      6 N          64.4933   54.4524  -14.0953 N.2       1 ALA2        0.0000 
      7 N          63.5260   55.4071  -14.7301 N.2       1 ALA2        0.0000 
@<TRIPOS>BOND
@<TRIPOS>SUBSTRUCTURE
     1 ALA2        5 GROUP   
     2 LYS4        1 GROUP   
     3 PHE5        3 GROUP   
     4 GLY6        2 GROUP   
@<TRIPOS>SET

