#    Name: 1o69_X04_1_INTS_M
#    Modification time : Mon Mar 24 19:37:19 2014

@<TRIPOS>MOLECULE
1o69_X04_1_INTS_M
   40     0     6     0     0
SMALL
NO_CHARGES


@<TRIPOS>ATOM
      1 N          55.3610   52.8630   -8.5115 N.am      1 SEC2        0.0000 
      2 N          55.5250   54.2960   -7.9170 N.am      5 SEL2        0.0000 
      3 N          55.1970   51.4300   -9.1060 N.am      3 SEP2        0.0000 
      4 N          54.8225   55.1200   -6.8675 N.am      1 SEC2        0.0000 
      5 N          54.1200   55.9440   -5.8180 N.am      3 SEP2        0.0000 
      6 N          54.4610   55.2190   -8.2825 N.am      1 SEC2        0.0000 
      7 N          53.3970   56.1420   -8.6480 N.am      3 SEP2        0.0000 
      8 N          56.7215   53.6215   -5.5340 N.am      1 SEC2        0.0000 
      9 N          57.5710   52.9970   -6.5200 N.am      5 SEL2        0.0000 
     10 N          55.8720   54.2460   -4.5480 N.am      3 SEP2        0.0000 
     11 N          58.9495   53.3180   -6.3080 N.am      1 SEC2        0.0000 
     12 N          60.3280   53.6390   -6.0960 N.am      3 SEP2        0.0000 
     13 CA         57.9520   56.7110  -10.7855 C.3       2 GLC5        0.0000 
     14 CA         57.5450   56.2480   -8.6930 C.3       6 GLL5        0.0000 
     15 CA         58.3590   57.1740  -12.8780 C.3       4 GLP5        0.0000 
     16 CA         57.2110   60.4915   -9.0440 C.3       2 GLC5        0.0000 
     17 CA         58.1820   58.6810   -8.4850 C.3       6 GLL5        0.0000 
     18 CA         56.2400   62.3020   -9.6030 C.3       4 GLP5        0.0000 
     19 CA         61.2615   62.6085   -9.6145 C.3       2 GLC5        0.0000 
     20 CA         60.9640   60.8100   -9.8060 C.3       6 GLL5        0.0000 
     21 CA         61.5590   64.4070   -9.4230 C.3       4 GLP5        0.0000 
     22 N          61.7420   56.7820  -11.7065 N.am      1 SEC2        0.0000 
     23 N          61.5020   58.2160  -10.7770 N.am      5 SEL2        0.0000 
     24 N          61.9820   55.3480  -12.6360 N.am      3 SEP2        0.0000 
     25 CA         57.6812   56.9990   -6.8301 C.3       2 GLC5        0.0000 
     26 CA         58.4890   57.4020   -8.9660 C.3       6 GLL5        0.0000 
     27 CA         57.2630   56.2450   -5.0030 C.3       4 GLP5        0.0000 
     28 CA         56.6363   57.4920   -9.9271 C.3       2 GLC5        0.0000 
     29 CA         55.1730   57.2310  -11.1970 C.3       4 GLP5        0.0000 
     30 CA         59.3833   57.9910   -7.5421 C.3       2 GLC5        0.0000 
     31 CA         60.6670   58.2290   -6.4270 C.3       4 GLP5        0.0000 
     32 CA         59.6390   59.8937  -11.5787 C.3       2 GLC5        0.0000 
     33 CA         60.0860   59.6110   -9.5330 C.3       6 GLL5        0.0000 
     34 CA         58.7530   59.5770  -13.4880 C.3       4 GLP5        0.0000 
     35 CA         60.5960   59.2198   -8.0482 C.3       2 GLC5        0.0000 
     36 CA         59.3865   58.6965  -11.6893 C.3       2 GLC5        0.0000 
     37 CA         60.4180   58.3660  -10.0320 C.3       6 GLL5        0.0000 
     38 CA         60.3435   58.0225   -8.1588 C.3       2 GLC5        0.0000 
     39 CA         62.4528   59.1556   -9.6559 C.3       2 GLC5        0.0000 
     40 CA         64.4340   59.0230   -9.4610 C.3       4 GLP5        0.0000 
@<TRIPOS>BOND
@<TRIPOS>SUBSTRUCTURE
     1 SEC2        1 GROUP        1 X    SEC  0     ROOT SEC X 2
     2 GLC5       13 GROUP        1 X    GLC  0     **** GLC X 6
     3 SEP2        3 GROUP        1 Y    SEP  0     ROOT SEP Y 9
     4 GLP5       15 GROUP        1 Y    GLP  0     **** GLP Y 13
     5 SEL2        2 GROUP        1 Z    SEL  0     ROOT SEL Z 16
     6 GLL5       14 GROUP        1 Z    GLL  0     **** GLL Z 20
@<TRIPOS>SET

