#    Name: 1o69_X04_1_ligand
#    Modification time : Mon Mar 24 19:37:19 2014

@<TRIPOS>MOLECULE
1o69_X04_1_ligand
   26    26     1     0     0
SMALL
NO_CHARGES


@<TRIPOS>ATOM
      1 P          57.0300   53.8380   -7.7920 P.3       1 X04395      0.0000 
      2 OP1        55.5250   54.2960   -7.9170 O.co2     1 X04395      0.0000 
      3 OP2        57.5710   52.9970   -6.5200 O.co2     1 X04395      0.0000 
      4 OP3        57.5110   53.3470   -9.1470 O.co2     1 X04395      0.0000 
      5 OP4        57.9330   55.1910   -7.8450 O.3       1 X04395      0.0000 
      6 C5A        57.5450   56.2480   -8.6930 C.3       1 X04395      0.0000 
      7 C5         58.4890   57.4020   -8.9660 C.ar      1 X04395      0.0000 
      8 C6         58.1820   58.6810   -8.4850 C.ar      1 X04395      0.0000 
      9 N2         57.1070   58.9100   -7.7190 N.pl3     1 X04395      0.0000 
     10 N1         58.9670   59.7370   -8.7630 N.ar      1 X04395      0.0000 
     11 C2         60.0860   59.6110   -9.5330 C.ar      1 X04395      0.0000 
     12 C2A        60.9640   60.8100   -9.8060 C.3       1 X04395      0.0000 
     13 C3         60.4180   58.3660  -10.0320 C.ar      1 X04395      0.0000 
     14 O3         61.5020   58.2160  -10.7770 O.3       1 X04395      0.0000 
     15 C4         59.6220   57.2660   -9.7490 C.ar      1 X04395      0.0000 
     16 C4A        60.0200   55.9270  -10.3240 C.2       1 X04395      0.0000 
     17 O1         60.6590   55.0950   -9.3530 O.2       1 X04395      0.0000 
     18 H          56.5635   56.7146   -8.3260 H         1 X04395      0.0000 
     19 H          57.2279   55.8419   -9.7178 H         1 X04395      0.0000 
     20 H          56.9585   59.8592   -7.4417 H         1 X04395      0.0000 
     21 H          56.5494   58.1112   -7.4932 H         1 X04395      0.0000 
     22 H          59.8479   55.7054  -11.2261 H         1 X04395      0.0000 
     23 H          61.3299   61.2022   -8.9620 H         1 X04395      0.0000 
     24 H          61.7461   60.5740  -10.3827 H         1 X04395      0.0000 
     25 H          60.4634   61.5379  -10.2745 H         1 X04395      0.0000 
     26 H          61.4200   57.3009  -11.1717 H         1 X04395      0.0000 
@<TRIPOS>BOND
     1    2    1 ar   
     2    3    1 ar   
     3    4    1 ar   
     4    5    1 1    
     5    6    5 1    
     6    7    6 1    
     7   18    6 1    
     8   19    6 1    
     9    8    7 ar   
    10   15    7 ar   
    11    9    8 1    
    12   10    8 ar   
    13   20    9 1    
    14   21    9 1    
    15   11   10 ar   
    16   12   11 1    
    17   13   11 ar   
    18   23   12 1    
    19   24   12 1    
    20   25   12 1    
    21   14   13 1    
    22   15   13 ar   
    23   26   14 1    
    24   16   15 1    
    25   17   16 2    
    26   22   16 1    
@<TRIPOS>SUBSTRUCTURE
     1 X04395      1 GROUP   
@<TRIPOS>SET

