#    Name: 2Z3I_1_CAVITY_N1_6.mol2
#    Modification time : Tue Mar 11 04:51:09 2014

@<TRIPOS>MOLECULE
2Z3I_1_CAVITY_N1_6.mol2
  128     0     6     0     0
SMALL
NO_CHARGES


@<TRIPOS>ATOM
      1 NZ         20.6939   35.1409  112.2969 N.2       3 LYS4        0.0000 
      2 O          26.6239   30.4636  111.0894 O.2       2 ALA2        0.0000 
      3 NZ         26.9969   29.0107  111.0955 N.2       3 LYS4        0.0000 
      4 N          23.6816   35.9023  110.9763 N.2       2 ALA2        0.0000 
      5 O          24.0546   34.4495  110.9825 O.2       2 ALA2        0.0000 
      6 O          24.4276   32.9966  110.9886 O.2       2 ALA2        0.0000 
      7 O          24.8006   31.5437  110.9948 O.2       2 ALA2        0.0000 
      8 NZ         25.1736   30.0908  111.0010 N.2       3 LYS4        0.0000 
      9 N          21.8584   36.9825  110.8818 N.2       2 ALA2        0.0000 
     10 O          22.2314   35.5296  110.8879 O.2       2 ALA2        0.0000 
     11 DU         22.6043   34.0768  110.8941 H         6 CUB7        0.0000 
     12 O          22.9773   32.6239  110.9002 O.2       2 ALA2        0.0000 
     13 DU         23.3503   31.1710  110.9064 H         6 CUB7        0.0000 
     14 CA         20.4081   36.6098  110.7933 C.3       5 GLY6        0.0000 
     15 CA         20.7811   35.1569  110.7995 C.3       5 GLY6        0.0000 
     16 DU         21.1541   33.7041  110.8056 H         6 CUB7        0.0000 
     17 DU         21.9001   30.7983  110.8180 H         6 CUB7        0.0000 
     18 CA         19.3308   34.7842  110.7111 C.3       5 GLY6        0.0000 
     19 O          26.7110   30.4796  109.5920 O.2       2 ALA2        0.0000 
     20 N          27.0840   29.0267  109.5982 N.2       2 ALA2        0.0000 
     21 O          24.1418   34.4655  109.4851 O.2       2 ALA2        0.0000 
     22 O          24.5148   33.0126  109.4913 O.2       2 ALA2        0.0000 
     23 O          24.8878   31.5598  109.4974 O.2       2 ALA2        0.0000 
     24 O          25.2608   30.1069  109.5036 O.2       2 ALA2        0.0000 
     25 CA         25.6338   28.6540  109.5097 C.3       5 GLY6        0.0000 
     26 CA         21.9455   36.9985  109.3844 C.3       5 GLY6        0.0000 
     27 CA         22.3185   35.5457  109.3905 C.3       5 GLY6        0.0000 
     28 DU         22.6915   34.0928  109.3967 H         6 CUB7        0.0000 
     29 DU         23.0645   32.6399  109.4028 H         6 CUB7        0.0000 
     30 DU         23.4375   31.1871  109.4090 H         6 CUB7        0.0000 
     31 CA         23.8105   29.7342  109.4152 C.3       5 GLY6        0.0000 
     32 CA         20.8683   35.1730  109.3021 C.3       5 GLY6        0.0000 
     33 DU         21.2413   33.7201  109.3083 H         6 CUB7        0.0000 
     34 DU         21.6142   32.2672  109.3144 H         6 CUB7        0.0000 
     35 N          21.9872   30.8143  109.3206 N.2       2 ALA2        0.0000 
     36 N          22.3602   29.3615  109.3267 N.2       2 ALA2        0.0000 
     37 NZ         19.7910   33.3474  109.2198 N.2       3 LYS4        0.0000 
     38 DU         20.1640   31.8945  109.2260 H         6 CUB7        0.0000 
     39 OG         25.6792   34.8542  108.0761 O.2       1 SER1        0.0000 
     40 O          26.0522   33.4014  108.0823 O.2       2 ALA2        0.0000 
     41 OG         24.2290   34.4815  107.9877 O.2       1 SER1        0.0000 
     42 O          24.6020   33.0287  107.9939 O.2       2 ALA2        0.0000 
     43 OG         24.9750   31.5758  108.0000 O.2       1 SER1        0.0000 
     44 OG         22.4057   35.5617  107.8931 O.2       1 SER1        0.0000 
     45 OG         22.7787   34.1088  107.8993 O.2       1 SER1        0.0000 
     46 DU         23.1517   32.6560  107.9055 H         6 CUB7        0.0000 
     47 N          23.5247   31.2031  107.9116 N.2       2 ALA2        0.0000 
     48 N          23.8977   29.7502  107.9178 N.2       2 ALA2        0.0000 
     49 N          20.9554   35.1890  107.8047 N.2       2 ALA2        0.0000 
     50 DU         21.3284   33.7361  107.8109 H         6 CUB7        0.0000 
     51 DU         21.7014   32.2833  107.8170 H         6 CUB7        0.0000 
     52 N          22.0744   30.8304  107.8232 N.2       2 ALA2        0.0000 
     53 NZ         19.8782   33.3634  107.7225 N.2       3 LYS4        0.0000 
     54 DU         20.2512   31.9106  107.7286 H         6 CUB7        0.0000 
     55 NZ         18.4279   32.9907  107.6340 N.2       3 LYS4        0.0000 
     56 CA         26.5367   30.4475  112.5868 C.3       5 GLY6        0.0000 
     57 N          23.9674   34.4334  112.4799 N.2       2 ALA2        0.0000 
     58 O          24.3404   32.9806  112.4860 O.2       2 ALA2        0.0000 
     59 CA         24.7134   31.5277  112.4922 C.3       5 GLY6        0.0000 
     60 NZ         25.0864   30.0748  112.4983 N.2       3 LYS4        0.0000 
     61 NZ         22.1442   35.5136  112.3853 N.2       3 LYS4        0.0000 
     62 NZ         22.5172   34.0607  112.3914 N.2       3 LYS4        0.0000 
     63 DU         22.8902   32.6079  112.3976 H         6 CUB7        0.0000 
     64 OG         27.5897   33.7901  106.6733 O.2       1 SER1        0.0000 
     65 OG         25.7664   34.8703  106.5788 O.2       1 SER1        0.0000 
     66 OG         26.1394   33.4174  106.5849 O.2       1 SER1        0.0000 
     67 OG         24.3161   34.4976  106.4903 O.2       1 SER1        0.0000 
     68 OG         24.6891   33.0447  106.4965 O.2       1 SER1        0.0000 
     69 N          22.4929   35.5777  106.3958 N.2       2 ALA2        0.0000 
     70 OG         22.8659   34.1249  106.4019 O.2       1 SER1        0.0000 
     71 O          23.2389   32.6720  106.4081 O.2       2 ALA2        0.0000 
     72 O          23.6119   31.2191  106.4142 O.2       2 ALA2        0.0000 
     73 N          21.0426   35.2050  106.3073 N.2       2 ALA2        0.0000 
     74 DU         21.4156   33.7522  106.3135 H         6 CUB7        0.0000 
     75 O          21.7886   32.2993  106.3197 O.2       2 ALA2        0.0000 
     76 N          19.5923   34.8323  106.2189 N.2       2 ALA2        0.0000 
     77 DU         19.9653   33.3795  106.2251 H         6 CUB7        0.0000 
     78 OG         20.3383   31.9266  106.2312 O.2       1 SER1        0.0000 
     79 NZ         18.1421   34.4596  106.1305 N.2       3 LYS4        0.0000 
     80 NZ         18.5151   33.0068  106.1367 N.2       3 LYS4        0.0000 
     81 OG         18.8881   31.5539  106.1428 O.2       1 SER1        0.0000 
     82 NZ         16.6918   34.0869  106.0421 N.2       3 LYS4        0.0000 
     83 CA         30.5774   34.5515  105.3528 C.3       5 GLY6        0.0000 
     84 CZ         30.9504   33.0987  105.3590 C.ar      4 PHE5        0.0000 
     85 CA         29.1271   34.1788  105.2644 C.3       5 GLY6        0.0000 
     86 CA         27.3038   35.2590  105.1698 C.3       5 GLY6        0.0000 
     87 OG         27.6768   33.8061  105.1760 O.2       1 SER1        0.0000 
     88 O          25.4806   36.3392  105.0752 O.2       2 ALA2        0.0000 
     89 OG         25.8536   34.8863  105.0814 O.2       1 SER1        0.0000 
     90 OG         26.2266   33.4334  105.0875 O.2       1 SER1        0.0000 
     91 OG         24.0303   35.9665  104.9868 O.2       1 SER1        0.0000 
     92 CZ         24.4033   34.5136  104.9930 C.ar      4 PHE5        0.0000 
     93 OG         24.7763   33.0607  104.9991 O.2       1 SER1        0.0000 
     94 CZ         22.5800   35.5938  104.8984 C.ar      4 PHE5        0.0000 
     95 CZ         22.9530   34.1409  104.9045 C.ar      4 PHE5        0.0000 
     96 O          23.3260   32.6880  104.9107 O.2       2 ALA2        0.0000 
     97 CZ         21.5028   33.7682  104.8161 C.ar      4 PHE5        0.0000 
     98 O          21.8758   32.3153  104.8223 O.2       2 ALA2        0.0000 
     99 CZ         19.6795   34.8484  104.7216 C.ar      4 PHE5        0.0000 
    100 CZ         20.0525   33.3955  104.7277 C.ar      4 PHE5        0.0000 
    101 CZ         20.4255   31.9426  104.7339 C.ar      4 PHE5        0.0000 
    102 CZ         18.2292   34.4757  104.6331 C.ar      4 PHE5        0.0000 
    103 N          32.1148   34.9403  103.9438 N.2       2 ALA2        0.0000 
    104 N          32.4878   33.4874  103.9500 N.2       2 ALA2        0.0000 
    105 N          30.6645   34.5676  103.8554 N.2       2 ALA2        0.0000 
    106 N          31.0375   33.1147  103.8616 N.2       2 ALA2        0.0000 
    107 CA         28.8413   35.6477  103.7608 C.3       5 GLY6        0.0000 
    108 CA         29.2143   34.1949  103.7670 C.3       5 GLY6        0.0000 
    109 CZ         29.5873   32.7420  103.7732 C.ar      4 PHE5        0.0000 
    110 O          27.3910   35.2750  103.6724 O.2       2 ALA2        0.0000 
    111 OG         27.7640   33.8222  103.6786 O.2       1 SER1        0.0000 
    112 CZ         28.1370   32.3693  103.6847 C.ar      4 PHE5        0.0000 
    113 O          25.9407   34.9023  103.5840 O.2       2 ALA2        0.0000 
    114 OG         26.3137   33.4495  103.5902 O.2       1 SER1        0.0000 
    115 CZ         24.1175   35.9825  103.4894 C.ar      4 PHE5        0.0000 
    116 CZ         24.4905   34.5296  103.4956 C.ar      4 PHE5        0.0000 
    117 O          24.8635   33.0768  103.5017 O.2       2 ALA2        0.0000 
    118 O          23.4132   32.7041  103.4133 O.2       2 ALA2        0.0000 
    119 CA         30.7517   34.5836  102.3580 C.3       5 GLY6        0.0000 
    120 CA         27.1052   36.7439  102.1689 C.3       5 GLY6        0.0000 
    121 CA         27.4782   35.2911  102.1750 C.3       5 GLY6        0.0000 
    122 CZ         27.8512   33.8382  102.1812 C.ar      4 PHE5        0.0000 
    123 O          25.6549   36.3712  102.0805 O.2       2 ALA2        0.0000 
    124 CZ         26.0279   34.9184  102.0866 C.ar      4 PHE5        0.0000 
    125 CZ         24.2046   35.9985  101.9921 C.ar      4 PHE5        0.0000 
    126 CZ         24.5776   34.5457  101.9982 C.ar      4 PHE5        0.0000 
    127 N          25.7421   36.3873  100.5831 N.2       2 ALA2        0.0000 
    128 CZ         26.1151   34.9344  100.5892 C.ar      4 PHE5        0.0000 
@<TRIPOS>BOND
@<TRIPOS>SUBSTRUCTURE
     1 SER1       39 GROUP   
     2 ALA2        2 GROUP   
     3 LYS4        1 GROUP   
     4 PHE5       84 GROUP   
     5 GLY6       14 GROUP   
     6 CUB7       11 GROUP   
@<TRIPOS>SET

