#    Name: 2z3i_BLS_1_INTS_M
#    Modification time : Mon Apr  7 18:33:52 2014

@<TRIPOS>MOLECULE
2z3i_BLS_1_INTS_M
   67     0    15     0     0
SMALL
NO_CHARGES


@<TRIPOS>ATOM
      1 NZ         26.7070   33.1210  109.0790 N.4       4 LYC4        0.0000 
      2 NZ         26.4890   33.2000  107.6340 N.4      14 LYL4        0.0000 
      3 NZ         26.8930   34.1430  111.2410 N.4       9 LYP4        0.0000 
      4 N          26.7070   33.1210  109.0790 N.am      2 SEC2        0.0000 
      5 N          26.4890   33.2000  107.6340 N.am     12 SEL2        0.0000 
      6 N          26.9250   33.0420  110.5240 N.am      7 SEP2        0.0000 
      7 N          26.7980   32.2050  106.7735 N.am      2 SEC2        0.0000 
      8 N          27.1070   31.2100  105.9130 N.am      7 SEP2        0.0000 
      9 N          30.0035   38.0405  102.8000 N.am      2 SEC2        0.0000 
     10 N          29.5510   36.8810  103.6070 N.am     12 SEL2        0.0000 
     11 N          30.4560   39.2000  101.9930 N.am      7 SEP2        0.0000 
     12 CA         30.9230   31.8845  102.1940 C.3       5 GLC5        0.0000 
     13 CA         30.6870   33.0180  103.9740 C.3      15 GLL5        0.0000 
     14 CA         31.1590   30.7510  100.4140 C.3      10 GLP5        0.0000 
     15 CA         28.0335   35.6500  105.6630 C.3       5 GLC5        0.0000 
     16 CA         27.5560   34.6630  103.9550 C.3      15 GLL5        0.0000 
     17 CA         28.5110   36.6370  107.3710 C.3      10 GLP5        0.0000 
     18 CA         27.9130   32.6210  104.7355 C.3       5 GLC5        0.0000 
     19 CA         28.2700   30.5790  105.5160 C.3      10 GLP5        0.0000 
     20 CA         27.3155   33.3705  102.1735 C.3       5 GLC5        0.0000 
     21 CA         27.0750   32.0780  100.3920 C.3      10 GLP5        0.0000 
     22 CA         27.2525   35.6810  106.6295 C.3       5 GLC5        0.0000 
     23 CA         25.9940   34.7250  105.8880 C.3      15 GLL5        0.0000 
     24 NZ         26.1260   34.0025  109.3470 N.4       4 LYC4        0.0000 
     25 NZ         25.3270   34.9630  108.1700 N.4      14 LYL4        0.0000 
     26 N          25.0335   36.1290  107.8870 N.am      2 SEC2        0.0000 
     27 N          25.3270   34.9630  108.1700 N.am     12 SEL2        0.0000 
     28 N          24.7400   37.2950  107.6040 N.am      7 SEP2        0.0000 
     29 N          26.0065   35.1345  109.4065 N.am      2 SEC2        0.0000 
     30 N          26.6860   35.3060  110.6430 N.am      7 SEP2        0.0000 
     31 N          26.1260   34.0025  109.3470 N.am      2 SEC2        0.0000 
     32 O          23.4140   35.7820  105.4070 O.2       1 ALC1        0.0000 
     33 O          23.6920   34.3500  105.3370 O.2      11 ALL1        0.0000 
     34 O          23.1360   37.2140  105.4770 O.2       6 ALP1        0.0000 
     35 N          22.9880   31.2325  104.8505 N.am      2 SEC2        0.0000 
     36 N          22.7030   32.3380  105.6000 N.am     12 SEL2        0.0000 
     37 N          23.2730   30.1270  104.1010 N.am      7 SEP2        0.0000 
     38 CA         21.5890   34.8065  104.1870 C.3       5 GLC5        0.0000 
     39 CA         21.3530   34.2690  105.9460 C.3      15 GLL5        0.0000 
     40 CA         21.8250   35.3440  102.4280 C.3      10 GLP5        0.0000 
     41 CA         20.8030   33.6735  104.0470 C.3       5 GLC5        0.0000 
     42 CA         20.1640   33.3150  105.9410 C.3      15 GLL5        0.0000 
     43 CA         21.4420   34.0320  102.1530 C.3      10 GLP5        0.0000 
     44 CA         18.6390   35.8665  107.1435 C.3       5 GLC5        0.0000 
     45 CA         18.8840   34.1360  105.9920 C.3      15 GLL5        0.0000 
     46 CA         18.3940   37.5970  108.2950 C.3      10 GLP5        0.0000 
     47 CA         18.9025   34.6700  102.9070 C.3       5 GLC5        0.0000 
     48 CA         18.4440   34.5030  104.5890 C.3      15 GLL5        0.0000 
     49 CA         19.3610   34.8370  101.2250 C.3      10 GLP5        0.0000 
     50 CA         15.5955   34.6760  102.9750 C.3       5 GLC5        0.0000 
     51 CA         15.9130   34.4300  104.6350 C.3      15 GLL5        0.0000 
     52 CA         15.2780   34.9220  101.3150 C.3      10 GLP5        0.0000 
     53 OD1        18.0445   38.7790  104.2640 O.co2     3 ASC3        0.0000 
     54 OD1        17.1000   36.6280  104.5930 O.co2    13 ASL3        0.0000 
     55 OD1        17.8870   40.1860  104.0090 O.co2     8 ASP3        0.0000 
     56 O          18.0445   38.7790  104.2640 O.2       1 ALC1        0.0000 
     57 O          18.2020   37.3720  104.5190 O.2      11 ALL1        0.0000 
     58 O          17.8870   40.1860  104.0090 O.2       6 ALP1        0.0000 
     59 CA         29.7503   34.1165  102.0780 C.3       5 GLC5        0.0000 
     60 CA         29.3520   33.3660  103.9300 C.3      15 GLL5        0.0000 
     61 CA         29.4810   35.0410  100.2040 C.3      10 GLP5        0.0000 
     62 CA         28.2690   34.8473  101.8787 C.3       5 GLC5        0.0000 
     63 CA         25.8878   33.4270  101.7413 C.3       5 GLC5        0.0000 
     64 CA         26.5580   34.6440  103.1520 C.3      15 GLL5        0.0000 
     65 CA         25.7610   32.4820  100.1360 C.3      10 GLP5        0.0000 
     66 CA         23.5425   34.6680  103.3517 C.3       5 GLC5        0.0000 
     67 CA         25.4710   34.1000  103.5410 C.3      15 GLL5        0.0000 
@<TRIPOS>BOND
@<TRIPOS>SUBSTRUCTURE
     1 ALC1       32 GROUP        1 X    ALC  0     ROOT ALC X 1
     2 SEC2        4 GROUP        1 X    SEC  0     **** SEC X 2
     3 ASC3       53 GROUP        1 X    ASC  0     **** ASC X 3
     4 LYC4        1 GROUP        1 X    LYC  0     **** LYC X 4
     5 GLC5       12 GROUP        1 X    GLC  0     **** GLC X 6
     6 ALP1       34 GROUP        1 Y    ALP  0     ROOT ALP Y 8
     7 SEP2        6 GROUP        1 Y    SEP  0     **** SEP Y 9
     8 ASP3       55 GROUP        1 Y    ASP  0     **** ASP Y 10
     9 LYP4        3 GROUP        1 Y    LYP  0     **** LYP Y 11
    10 GLP5       14 GROUP        1 Y    GLP  0     **** GLP Y 13
    11 ALL1       33 GROUP        1 Z    ALL  0     ROOT ALL Z 15
    12 SEL2        5 GROUP        1 Z    SEL  0     **** SEL Z 16
    13 ASL3       54 GROUP        1 Z    ASL  0     **** ASL Z 17
    14 LYL4        2 GROUP        1 Z    LYL  0     **** LYL Z 18
    15 GLL5       13 GROUP        1 Z    GLL  0     **** GLL Z 20
@<TRIPOS>SET

