#    Name: 2z3i_BLS_1_ligand
#    Modification time : Mon Apr  7 18:33:52 2014

@<TRIPOS>MOLECULE
2z3i_BLS_1_ligand
   57    58     1     0     0
SMALL
NO_CHARGES


@<TRIPOS>ATOM
      1 O4         26.4890   33.2000  107.6340 O.co2     1 BLS2500     0.0000 
      2 N1         28.9260   34.6380  103.7960 N.am      1 BLS2500     0.0000 
      3 C2         29.8470   35.6620  103.7250 C.2       1 BLS2500     0.0000 
      4 O2         29.5510   36.8810  103.6070 O.2       1 BLS2500     0.0000 
      5 N3         31.1680   35.3460  103.7250 N.2       1 BLS2500     0.0000 
      6 C4         31.6040   34.0560  103.8900 C.2       1 BLS2500     0.0000 
      7 N4         32.9220   33.7290  103.9370 N.pl3     1 BLS2500     0.0000 
      8 C5         30.6870   33.0180  103.9740 C.2       1 BLS2500     0.0000 
      9 C6         29.3520   33.3660  103.9300 C.2       1 BLS2500     0.0000 
     10 C1'        27.5560   34.6630  103.9550 C.3       1 BLS2500     0.0000 
     11 C2'        26.5580   34.6440  103.1520 C.2       1 BLS2500     0.0000 
     12 C3'        25.4710   34.1000  103.5410 C.2       1 BLS2500     0.0000 
     13 C4'        25.0490   33.8840  105.0100 C.3       1 BLS2500     0.0000 
     14 C5'        25.9940   34.7250  105.8880 C.3       1 BLS2500     0.0000 
     15 O5'        27.3010   34.4480  105.4010 O.3       1 BLS2500     0.0000 
     16 O3         25.3270   34.9630  108.1700 O.co2     1 BLS2500     0.0000 
     17 C6'        25.9480   34.2730  107.3330 C.2       1 BLS2500     0.0000 
     18 N6         23.6920   34.3500  105.3370 N.am      1 BLS2500     0.0000 
     19 C7         22.6530   33.5610  105.6090 C.2       1 BLS2500     0.0000 
     20 O7         22.7030   32.3380  105.6000 O.2       1 BLS2500     0.0000 
     21 C8         21.3530   34.2690  105.9460 C.3       1 BLS2500     0.0000 
     22 C9         20.1640   33.3150  105.9410 C.3       1 BLS2500     0.0000 
     23 N9         20.1700   32.4550  107.1110 N.4       1 BLS2500     0.0000 
     24 C10        18.8840   34.1360  105.9920 C.3       1 BLS2500     0.0000 
     25 C11        18.4440   34.5030  104.5890 C.3       1 BLS2500     0.0000 
     26 N12        17.1620   35.2130  104.6060 N.pl3     1 BLS2500     0.0000 
     27 C13        15.9130   34.4300  104.6350 C.3       1 BLS2500     0.0000 
     28 C14        17.1000   36.6280  104.5930 C.cat     1 BLS2500     0.0000 
     29 N14        15.9090   37.2420  104.6430 N.pl3     1 BLS2500     0.0000 
     30 N15        18.2020   37.3720  104.5190 N.pl3     1 BLS2500     0.0000 
     31 H          33.2468   33.1074  103.2241 H         1 BLS2500     0.0000 
     32 H          33.4508   34.1388  104.6803 H         1 BLS2500     0.0000 
     33 H          30.9842   32.0596  104.0626 H         1 BLS2500     0.0000 
     34 H          28.6389   32.5869  104.0062 H         1 BLS2500     0.0000 
     35 H          27.5467   36.0401  104.1843 H         1 BLS2500     0.0000 
     36 H          26.6355   35.0704  102.1883 H         1 BLS2500     0.0000 
     37 H          24.7227   33.7289  102.8745 H         1 BLS2500     0.0000 
     38 H          25.1893   32.8644  105.2787 H         1 BLS2500     0.0000 
     39 H          25.7427   35.7368  105.8037 H         1 BLS2500     0.0000 
     40 H          23.5879   35.4084  105.3428 H         1 BLS2500     0.0000 
     41 H          21.1750   35.0663  105.2162 H         1 BLS2500     0.0000 
     42 H          21.4376   34.7299  106.9361 H         1 BLS2500     0.0000 
     43 H          20.1661   32.7488  105.0393 H         1 BLS2500     0.0000 
     44 H          19.0613   35.0426  106.5663 H         1 BLS2500     0.0000 
     45 H          18.1033   33.5546  106.4775 H         1 BLS2500     0.0000 
     46 H          18.3662   33.5819  103.9956 H         1 BLS2500     0.0000 
     47 H          19.2235   35.1267  104.1308 H         1 BLS2500     0.0000 
     48 H          15.1059   36.6463  104.6284 H         1 BLS2500     0.0000 
     49 H          15.9304   38.2406  104.6904 H         1 BLS2500     0.0000 
     50 H          18.0623   38.3601  104.4547 H         1 BLS2500     0.0000 
     51 H          19.0699   36.8756  104.5344 H         1 BLS2500     0.0000 
     52 H          20.9990   31.8977  107.1581 H         1 BLS2500     0.0000 
     53 H          20.1225   32.9820  107.9595 H         1 BLS2500     0.0000 
     54 H          19.3931   31.8254  107.1131 H         1 BLS2500     0.0000 
     55 H          15.8306   33.8325  103.8373 H         1 BLS2500     0.0000 
     56 H          15.8593   33.8463  105.4452 H         1 BLS2500     0.0000 
     57 H          15.1053   35.0195  104.6444 H         1 BLS2500     0.0000 
@<TRIPOS>BOND
     1   17    1 ar   
     2    3    2 am   
     3    9    2 1    
     4   10    2 1    
     5    4    3 2    
     6    5    3 1    
     7    6    5 2    
     8    7    6 1    
     9    8    6 1    
    10   31    7 1    
    11   32    7 1    
    12    9    8 2    
    13   33    8 1    
    14   34    9 1    
    15   11   10 1    
    16   15   10 1    
    17   35   10 1    
    18   12   11 2    
    19   36   11 1    
    20   13   12 1    
    21   37   12 1    
    22   14   13 1    
    23   18   13 1    
    24   38   13 1    
    25   15   14 1    
    26   17   14 1    
    27   39   14 1    
    28   17   16 ar   
    29   19   18 am   
    30   40   18 1    
    31   20   19 2    
    32   21   19 1    
    33   22   21 1    
    34   41   21 1    
    35   42   21 1    
    36   23   22 1    
    37   24   22 1    
    38   43   22 1    
    39   52   23 1    
    40   53   23 1    
    41   54   23 1    
    42   25   24 1    
    43   44   24 1    
    44   45   24 1    
    45   26   25 1    
    46   46   25 1    
    47   47   25 1    
    48   27   26 1    
    49   28   26 ar   
    50   55   27 1    
    51   56   27 1    
    52   57   27 1    
    53   29   28 ar   
    54   30   28 ar   
    55   48   29 1    
    56   49   29 1    
    57   50   30 1    
    58   51   30 1    
@<TRIPOS>SUBSTRUCTURE
     1 BLS2500     1 GROUP   
@<TRIPOS>SET

