#    Name: 1bmm_BM2_1_INTS_M
#    Modification time : Mon Mar 24 19:38:58 2014

@<TRIPOS>MOLECULE
1bmm_BM2_1_INTS_M
   62     0    12     0     0
SMALL
NO_CHARGES


@<TRIPOS>ATOM
      1 CA         12.3240   41.8380   14.8255 C.3       4 GLC5        0.0000 
      2 CA         12.7030   43.7500   15.5350 C.3      12 GLL5        0.0000 
      3 CA         11.9450   39.9260   14.1160 C.3       8 GLP5        0.0000 
      4 CA         11.5910   45.5430   15.9570 C.3       4 GLC5        0.0000 
      5 CA         10.4790   47.3360   16.3790 C.3       8 GLP5        0.0000 
      6 OD1         9.0235   43.7285   12.7460 O.co2     3 ASC3        0.0000 
      7 OD1        10.8980   44.0430   14.1690 O.co2    11 ASL3        0.0000 
      8 OD1         8.3520   43.4750   11.3640 O.co2     7 ASP3        0.0000 
      9 O           9.0235   43.7285   12.7460 O.2       1 ALC1        0.0000 
     10 O           9.6950   43.9820   14.1280 O.2       9 ALL1        0.0000 
     11 O           8.3520   43.4750   11.3640 O.2       5 ALP1        0.0000 
     12 O           8.7840   43.6640   15.0645 O.2       1 ALC1        0.0000 
     13 O           7.8730   43.3460   16.0010 O.2       5 ALP1        0.0000 
     14 O          15.9750   45.7490   18.1215 O.2       1 ALC1        0.0000 
     15 O          15.1800   44.7030   19.0280 O.2       9 ALL1        0.0000 
     16 O          16.7700   46.7950   17.2150 O.2       5 ALP1        0.0000 
     17 CA         17.4105   44.7130   20.4290 C.3       4 GLC5        0.0000 
     18 CA         15.4120   44.9070   20.5350 C.3      12 GLL5        0.0000 
     19 CA         19.4090   44.5190   20.3230 C.3       8 GLP5        0.0000 
     20 CA         14.6030   47.2510   19.6595 C.3       4 GLC5        0.0000 
     21 CA         14.9560   45.9150   21.4080 C.3      12 GLL5        0.0000 
     22 CA         14.2500   48.5870   17.9110 C.3       8 GLP5        0.0000 
     23 CA         13.9420   43.6480   24.2985 C.3       4 GLC5        0.0000 
     24 CA         13.7420   45.0740   23.2630 C.3      12 GLL5        0.0000 
     25 CA         14.1420   42.2220   25.3340 C.3       8 GLP5        0.0000 
     26 O          10.2910   46.3275   19.8190 O.2       1 ALC1        0.0000 
     27 O          10.6350   45.5750   20.9180 O.2       9 ALL1        0.0000 
     28 O           9.9470   47.0800   18.7200 O.2       5 ALP1        0.0000 
     29 N          12.1800   46.7640   18.3120 N.am      2 SEC2        0.0000 
     30 N          12.5100   46.1940   19.7730 N.am     10 SEL2        0.0000 
     31 N          11.8500   47.3340   16.8510 N.am      6 SEP2        0.0000 
     32 CA         12.0840   41.5235   20.0610 C.3       4 GLC5        0.0000 
     33 CA         11.8980   43.6900   20.5610 C.3      12 GLL5        0.0000 
     34 CA         12.2700   39.3570   19.5610 C.3       8 GLP5        0.0000 
     35 O          10.9125   42.0000   19.3015 O.2       1 ALC1        0.0000 
     36 O          10.6850   43.0680   20.4350 O.2       9 ALL1        0.0000 
     37 O          11.1400   40.9320   18.1680 O.2       5 ALP1        0.0000 
     38 CA         15.1910   49.8165   22.1275 C.3       4 GLC5        0.0000 
     39 CA         13.6510   50.3150   23.6070 C.3      12 GLL5        0.0000 
     40 CA         16.7310   49.3180   20.6480 C.3       8 GLP5        0.0000 
     41 CA         15.8955   50.8240   21.9945 C.3       4 GLC5        0.0000 
     42 CA         14.3090   51.1210   22.8050 C.3      12 GLL5        0.0000 
     43 CA         17.4820   50.5270   21.1840 C.3       8 GLP5        0.0000 
     44 CA         13.7630   45.6755   16.4641 C.3       4 GLC5        0.0000 
     45 CA         13.1260   43.7070   16.8620 C.3      12 GLL5        0.0000 
     46 CA         14.2380   47.6060   16.7140 C.3       8 GLP5        0.0000 
     47 CA         16.0045   47.5440   21.3377 C.3       4 GLC5        0.0000 
     48 CA         15.0753   43.3922   23.6480 C.3       4 GLC5        0.0000 
     49 CA         15.0590   44.5900   23.3910 C.3      12 GLL5        0.0000 
     50 CA         14.8210   41.6770   24.2770 C.3       8 GLP5        0.0000 
     51 CA         15.9361   45.4377   24.6435 C.3       4 GLC5        0.0000 
     52 CA         16.8720   45.6470   26.3000 C.3       8 GLP5        0.0000 
     53 CA         13.0242   48.9190   19.6440 C.3       4 GLC5        0.0000 
     54 CA         12.2510   49.6820   21.6080 C.3      12 GLL5        0.0000 
     55 CA         14.6807   53.1213   21.9400 C.3       4 GLC5        0.0000 
     56 CA         13.9140   51.1740   21.4530 C.3      12 GLL5        0.0000 
     57 CA         15.2500   55.0950   21.7510 C.3       8 GLP5        0.0000 
     58 CA         15.0665   50.0705   20.8930 C.3       4 GLC5        0.0000 
     59 CA         13.8260   49.7050   19.5245 C.3       4 GLC5        0.0000 
     60 CA         10.8476   51.1653   20.8740 C.3       4 GLC5        0.0000 
     61 CA         12.8900   50.4720   20.8230 C.3      12 GLL5        0.0000 
     62 CA          9.3510   52.4690   20.6480 C.3       8 GLP5        0.0000 
@<TRIPOS>BOND
@<TRIPOS>SUBSTRUCTURE
     1 ALC1        9 GROUP        1 X    ALC  0     ROOT ALC X 1
     2 SEC2       29 GROUP        1 X    SEC  0     **** SEC X 2
     3 ASC3        6 GROUP        1 X    ASC  0     **** ASC X 3
     4 GLC5        1 GROUP        1 X    GLC  0     **** GLC X 6
     5 ALP1       11 GROUP        1 Y    ALP  0     ROOT ALP Y 8
     6 SEP2       31 GROUP        1 Y    SEP  0     **** SEP Y 9
     7 ASP3        8 GROUP        1 Y    ASP  0     **** ASP Y 10
     8 GLP5        3 GROUP        1 Y    GLP  0     **** GLP Y 13
     9 ALL1       10 GROUP        1 Z    ALL  0     ROOT ALL Z 15
    10 SEL2       30 GROUP        1 Z    SEL  0     **** SEL Z 16
    11 ASL3        7 GROUP        1 Z    ASL  0     **** ASL Z 17
    12 GLL5        2 GROUP        1 Z    GLL  0     **** GLL Z 20
@<TRIPOS>SET

