#    Name: 1bmm_BM2_1_ligand
#    Modification time : Mon Mar 24 19:38:58 2014

@<TRIPOS>MOLECULE
1bmm_BM2_1_ligand
   68    70     1     0     0
SMALL
NO_CHARGES


@<TRIPOS>ATOM
      1 C27        14.8680   43.5620   18.2060 C.2       1 BM21        0.0000 
      2 O28        14.8240   42.2270   18.4340 O.2       1 BM21        0.0000 
      3 C29        14.6200   43.7730   16.9250 C.3       1 BM21        0.0000 
      4 C30        13.1260   43.7070   16.8620 C.3       1 BM21        0.0000 
      5 C31        12.7030   43.7500   15.5350 C.3       1 BM21        0.0000 
      6 N32        11.4210   43.7390   15.3540 N.pl3     1 BM21        0.0000 
      7 C33        10.8980   44.0430   14.1690 C.cat     1 BM21        0.0000 
      8 N35         9.6950   43.9820   14.1280 N.pl3     1 BM21        0.0000 
      9 N34        11.7210   44.2910   13.2180 N.pl3     1 BM21        0.0000 
     10 N26        15.1800   44.7030   19.0280 N.am      1 BM21        0.0000 
     11 C25        15.4120   44.9070   20.5350 C.3       1 BM21        0.0000 
     12 C24        14.9560   45.9150   21.4080 C.3       1 BM21        0.0000 
     13 N20        13.7350   45.6210   21.8180 N.am      1 BM21        0.0000 
     14 C21        13.7420   45.0740   23.2630 C.3       1 BM21        0.0000 
     15 C22        15.0590   44.5900   23.3910 C.3       1 BM21        0.0000 
     16 C23        15.6000   45.6250   22.6470 C.3       1 BM21        0.0000 
     17 N14        10.6350   45.5750   20.9180 N.pl3     1 BM21        0.0000 
     18 C15        11.5470   44.8970   21.3590 C.3       1 BM21        0.0000 
     19 C18        12.6480   45.7050   20.9680 C.2       1 BM21        0.0000 
     20 O19        12.5100   46.1940   19.7730 O.2       1 BM21        0.0000 
     21 C16        11.8980   43.6900   20.5610 C.3       1 BM21        0.0000 
     22 O17        10.6850   43.0680   20.4350 O.3       1 BM21        0.0000 
     23 S11         9.9810   46.5140   21.7150 S.o2      1 BM21        0.0000 
     24 O13         9.5740   45.9630   22.9530 O.2       1 BM21        0.0000 
     25 O12         8.6800   46.8860   21.1350 O.2       1 BM21        0.0000 
     26 C2         11.3460   48.8200   21.1460 C.ar      1 BM21        0.0000 
     27 C1         10.9130   47.9230   22.0170 C.ar      1 BM21        0.0000 
     28 C8         11.3060   47.9150   23.1990 C.ar      1 BM21        0.0000 
     29 C7         12.1090   48.6970   23.6530 C.ar      1 BM21        0.0000 
     30 C6         13.6510   50.3150   23.6070 C.ar      1 BM21        0.0000 
     31 C5         14.3090   51.1210   22.8050 C.ar      1 BM21        0.0000 
     32 C4         13.9140   51.1740   21.4530 C.ar      1 BM21        0.0000 
     33 C3         12.8900   50.4720   20.8230 C.ar      1 BM21        0.0000 
     34 C9         12.2510   49.6820   21.6080 C.ar      1 BM21        0.0000 
     35 C10        12.6360   49.6140   22.9540 C.ar      1 BM21        0.0000 
     36 H          15.0075   43.0093   16.2558 H         1 BM21        0.0000 
     37 H          14.9177   44.7526   16.5604 H         1 BM21        0.0000 
     38 H          12.7235   44.5485   17.4537 H         1 BM21        0.0000 
     39 H          12.8051   42.7803   17.3704 H         1 BM21        0.0000 
     40 H          13.2220   42.8912   14.9705 H         1 BM21        0.0000 
     41 H          13.1976   44.6619   15.0356 H         1 BM21        0.0000 
     42 H          10.7672   43.4871   16.1488 H         1 BM21        0.0000 
     43 H           9.2366   43.7516   14.9864 H         1 BM21        0.0000 
     44 H           9.2750   44.1679   13.2397 H         1 BM21        0.0000 
     45 H          11.3155   44.5542   12.3426 H         1 BM21        0.0000 
     46 H          12.6915   44.1981   13.4405 H         1 BM21        0.0000 
     47 H          15.2814   45.6592   18.4818 H         1 BM21        0.0000 
     48 H          16.5966   44.8030   20.6607 H         1 BM21        0.0000 
     49 H          15.1496   43.8429   21.0134 H         1 BM21        0.0000 
     50 H          15.1267   46.8636   21.1137 H         1 BM21        0.0000 
     51 H          13.0035   44.3053   23.3208 H         1 BM21        0.0000 
     52 H          13.5276   45.8893   23.9179 H         1 BM21        0.0000 
     53 H          15.1715   43.6540   22.9176 H         1 BM21        0.0000 
     54 H          15.3786   44.6086   24.3961 H         1 BM21        0.0000 
     55 H          15.6369   46.5790   23.2688 H         1 BM21        0.0000 
     56 H          16.7041   45.4290   22.4449 H         1 BM21        0.0000 
     57 H          10.2732   45.5076   19.9161 H         1 BM21        0.0000 
     58 H          11.6334   44.6877   22.3699 H         1 BM21        0.0000 
     59 H          12.6199   43.1128   21.1158 H         1 BM21        0.0000 
     60 H          12.3138   44.0126   19.6202 H         1 BM21        0.0000 
     61 H          11.0117   48.8534   20.1826 H         1 BM21        0.0000 
     62 H          10.8837   47.1355   23.8649 H         1 BM21        0.0000 
     63 H          12.4089   48.6321   24.7039 H         1 BM21        0.0000 
     64 H          13.8229   50.1874   24.5761 H         1 BM21        0.0000 
     65 H          15.0904   51.7104   23.1084 H         1 BM21        0.0000 
     66 H          14.4860   51.8516   20.8272 H         1 BM21        0.0000 
     67 H          12.7128   50.6104   19.8441 H         1 BM21        0.0000 
     68 H          10.8066   42.4126   19.6896 H         1 BM21        0.0000 
@<TRIPOS>BOND
     1    2    1 2    
     2    3    1 1    
     3   10    1 am   
     4    4    3 1    
     5   36    3 1    
     6   37    3 1    
     7    5    4 1    
     8   38    4 1    
     9   39    4 1    
    10    6    5 1    
    11   40    5 1    
    12   41    5 1    
    13    7    6 ar   
    14   42    6 1    
    15    8    7 ar   
    16    9    7 ar   
    17   43    8 1    
    18   44    8 1    
    19   45    9 1    
    20   46    9 1    
    21   11   10 1    
    22   47   10 1    
    23   12   11 1    
    24   48   11 1    
    25   49   11 1    
    26   13   12 1    
    27   16   12 1    
    28   50   12 1    
    29   14   13 1    
    30   19   13 am   
    31   15   14 1    
    32   51   14 1    
    33   52   14 1    
    34   16   15 1    
    35   53   15 1    
    36   54   15 1    
    37   55   16 1    
    38   56   16 1    
    39   18   17 1    
    40   23   17 1    
    41   57   17 1    
    42   19   18 1    
    43   21   18 1    
    44   58   18 1    
    45   20   19 2    
    46   22   21 1    
    47   59   21 1    
    48   60   21 1    
    49   68   22 1    
    50   24   23 2    
    51   25   23 2    
    52   27   23 1    
    53   27   26 ar   
    54   34   26 ar   
    55   61   26 1    
    56   28   27 ar   
    57   29   28 ar   
    58   62   28 1    
    59   35   29 ar   
    60   63   29 1    
    61   31   30 ar   
    62   35   30 ar   
    63   64   30 1    
    64   32   31 ar   
    65   65   31 1    
    66   33   32 ar   
    67   66   32 1    
    68   34   33 ar   
    69   67   33 1    
    70   35   34 ar   
@<TRIPOS>SUBSTRUCTURE
     1 BM21        1 GROUP   
@<TRIPOS>SET

