#    Name: 4n9e_2HL_1_INTS_M
#    Modification time : Tue Mar 25 12:49:17 2014

@<TRIPOS>MOLECULE
4n9e_2HL_1_INTS_M
   57     0     3     0     0
SMALL
NO_CHARGES


@<TRIPOS>ATOM
      1 CA         17.8355    6.0010   -3.5415 C.3       1 GLC5        0.0000 
      2 CA         16.0770    5.3490   -3.5900 C.3       3 GLL5        0.0000 
      3 CA         19.5940    6.6530   -3.4930 C.3       2 GLP5        0.0000 
      4 CA         14.2100    1.6645   -3.1140 C.3       1 GLC5        0.0000 
      5 CA         13.6350    3.6980   -3.4520 C.3       3 GLL5        0.0000 
      6 CA         14.7850   -0.3690   -2.7760 C.3       2 GLP5        0.0000 
      7 CA         15.3045    5.8460    1.7290 C.3       1 GLC5        0.0000 
      8 CA         15.4670    7.6050    0.3520 C.3       3 GLL5        0.0000 
      9 CA         15.1420    4.0870    3.1060 C.3       2 GLP5        0.0000 
     10 CA         12.6000   10.7440    1.7270 C.3       1 GLC5        0.0000 
     11 CA         14.4490    9.6000    1.2740 C.3       3 GLL5        0.0000 
     12 CA         10.7510   11.8880    2.1800 C.3       2 GLP5        0.0000 
     13 CA         17.2755    8.4255    6.8665 C.3       1 GLC5        0.0000 
     14 CA         15.9540    9.7970    7.0720 C.3       3 GLL5        0.0000 
     15 CA         18.5970    7.0540    6.6610 C.3       2 GLP5        0.0000 
     16 CA          9.2287    4.5318   -7.7535 C.3       1 GLC5        0.0000 
     17 CA          9.3010    4.0900   -5.8250 C.3       3 GLL5        0.0000 
     18 CA          8.7720    5.4230   -9.3250 C.3       2 GLP5        0.0000 
     19 CA          7.7283    4.4427   -4.9912 C.3       1 GLC5        0.0000 
     20 CA          5.8680    4.2780   -4.5230 C.3       2 GLP5        0.0000 
     21 CA         10.8752    5.0425   -7.5992 C.3       1 GLC5        0.0000 
     22 CA         12.0530    4.3460   -5.8080 C.3       3 GLL5        0.0000 
     23 CA          9.9990    6.2530   -9.0230 C.3       2 GLP5        0.0000 
     24 CA         12.9150    6.4808   -5.2808 C.3       1 GLC5        0.0000 
     25 CA         14.1780    8.1630   -5.1130 C.3       2 GLP5        0.0000 
     26 CA         10.1367    6.2225   -6.4838 C.3       1 GLC5        0.0000 
     27 CA         11.2510    5.2510   -5.0890 C.3       3 GLL5        0.0000 
     28 CA          9.7100    7.2570   -7.8760 C.3       2 GLP5        0.0000 
     29 CA         10.1054    4.2696   -3.6071 C.3       1 GLC5        0.0000 
     30 CA          9.7910    3.6100   -1.9400 C.3       2 GLP5        0.0000 
     31 CA         15.0405    6.5090   -4.6327 C.3       1 GLC5        0.0000 
     32 CA         15.7290    4.3610   -4.7150 C.3       3 GLL5        0.0000 
     33 CA         17.0137    6.7382   -1.9507 C.3       1 GLC5        0.0000 
     34 CA         15.6470    4.7350   -2.2470 C.3       3 GLL5        0.0000 
     35 CA         18.1440    8.2930   -2.2370 C.3       2 GLP5        0.0000 
     36 CA         11.8370    3.8428   -2.3847 C.3       1 GLC5        0.0000 
     37 CA         14.1310    4.4530   -2.2070 C.3       3 GLL5        0.0000 
     38 CA         15.8030   10.7012    0.7850 C.3       1 GLC5        0.0000 
     39 CA         14.5610    8.6670    0.2440 C.3       3 GLL5        0.0000 
     40 CA         17.1010   12.2690    0.8110 C.3       2 GLP5        0.0000 
     41 CA         14.5225   10.3273   -0.5015 C.3       1 GLC5        0.0000 
     42 CA         14.5400   11.5210   -1.7620 C.3       2 GLP5        0.0000 
     43 CA         16.0377    6.4115    2.9603 C.3       1 GLC5        0.0000 
     44 CA         16.2610    7.4850    1.4840 C.3       3 GLL5        0.0000 
     45 CA         15.8680    4.8830    3.9290 C.3       2 GLP5        0.0000 
     46 CA         16.8908    8.0518   -0.6730 C.3       1 GLC5        0.0000 
     47 CA         16.4093   10.6045    1.6262 C.3       1 GLC5        0.0000 
     48 CA         16.1540    8.3950    2.4990 C.3       3 GLL5        0.0000 
     49 CA         13.0188    7.8075    0.7800 C.3       1 GLC5        0.0000 
     50 CA         11.3060    6.7470    0.7740 C.3       2 GLP5        0.0000 
     51 CA         14.2405    8.6312    7.4365 C.3       1 GLC5        0.0000 
     52 CA         15.1960   10.2940    6.0060 C.3       3 GLL5        0.0000 
     53 CA         12.9060    7.2170    8.3340 C.3       2 GLP5        0.0000 
     54 CA         17.7095   10.3083    8.4240 C.3       1 GLC5        0.0000 
     55 CA         19.6370   10.6010    9.1410 C.3       2 GLP5        0.0000 
     56 CA         13.9878    8.9372    8.3833 C.3       1 GLC5        0.0000 
     57 CA         15.6100   10.2340    8.3420 C.3       3 GLL5        0.0000 
@<TRIPOS>BOND
@<TRIPOS>SUBSTRUCTURE
     1 GLC5        1 GROUP        1 X    GLC  0     ROOT GLC X 6
     2 GLP5        3 GROUP        1 Y    GLP  0     ROOT GLP Y 13
     3 GLL5        2 GROUP        1 Z    GLL  0     ROOT GLL Z 20
@<TRIPOS>SET

