#    Name: 4n9e_2HL_1_ligand
#    Modification time : Tue Mar 25 12:49:17 2014

@<TRIPOS>MOLECULE
4n9e_2HL_1_ligand
   58    62     1     0     0
SMALL
NO_CHARGES


@<TRIPOS>ATOM
      1 C1          9.3010    4.0900   -5.8250 C.ar      1 2HL601      0.0000 
      2 C2         10.0700    3.1910   -6.5390 C.ar      1 2HL601      0.0000 
      3 C3         11.4500    3.3180   -6.5430 C.ar      1 2HL601      0.0000 
      4 C4         12.0530    4.3460   -5.8080 C.ar      1 2HL601      0.0000 
      5 C5         11.2510    5.2510   -5.0890 C.ar      1 2HL601      0.0000 
      6 C6          9.8760    5.1250   -5.0940 C.ar      1 2HL601      0.0000 
      7 C7         13.5350    4.4960   -5.7990 C.2       1 2HL601      0.0000 
      8 O8         14.1080    4.8900   -6.8030 O.2       1 2HL601      0.0000 
      9 N9         14.2650    4.1970   -4.6960 N.am      1 2HL601      0.0000 
     10 C10        15.7290    4.3610   -4.7150 C.3       1 2HL601      0.0000 
     11 C11        16.0770    5.3490   -3.5900 C.3       1 2HL601      0.0000 
     12 C12        15.6470    4.7350   -2.2470 C.3       1 2HL601      0.0000 
     13 C13        14.1310    4.4530   -2.2070 C.3       1 2HL601      0.0000 
     14 C14        13.6350    3.6980   -3.4520 C.3       1 2HL601      0.0000 
     15 C15        16.1200    5.6320   -1.0820 C.3       1 2HL601      0.0000 
     16 N16        15.3450    6.8570   -0.8070 N.pl3     1 2HL601      0.0000 
     17 C17        14.3870    7.4690   -1.5650 C.2       1 2HL601      0.0000 
     18 N18        13.9330    8.5270   -0.9580 N.2       1 2HL601      0.0000 
     19 C19        14.5610    8.6670    0.2440 C.ar      1 2HL601      0.0000 
     20 C20        15.4670    7.6050    0.3520 C.ar      1 2HL601      0.0000 
     21 C21        16.2610    7.4850    1.4840 C.ar      1 2HL601      0.0000 
     22 C22        16.1540    8.3950    2.4990 C.ar      1 2HL601      0.0000 
     23 C23        15.2810    9.4850    2.3840 C.ar      1 2HL601      0.0000 
     24 C24        14.4490    9.6000    1.2740 C.ar      1 2HL601      0.0000 
     25 C25        15.0810   10.4000    3.5190 C.2       1 2HL601      0.0000 
     26 O26        14.5470   11.4870    3.4100 O.2       1 2HL601      0.0000 
     27 N27        15.4070    9.8340    4.7060 N.am      1 2HL601      0.0000 
     28 C28        15.1960   10.2940    6.0060 C.ar      1 2HL601      0.0000 
     29 C29        15.9540    9.7970    7.0720 C.ar      1 2HL601      0.0000 
     30 C30        15.6100   10.2340    8.3420 C.ar      1 2HL601      0.0000 
     31 C31        14.5290   11.0810    8.5230 C.ar      1 2HL601      0.0000 
     32 N32        13.8050   11.4980    7.4990 N.ar      1 2HL601      0.0000 
     33 C33        14.0930   11.1150    6.2730 C.ar      1 2HL601      0.0000 
     34 H           8.2640    3.9940   -5.8315 H         1 2HL601      0.0000 
     35 H           9.6216    2.4298   -7.0661 H         1 2HL601      0.0000 
     36 H          12.0318    2.6662   -7.0790 H         1 2HL601      0.0000 
     37 H          11.7040    6.0095   -4.5584 H         1 2HL601      0.0000 
     38 H           9.2877    5.7768   -4.5725 H         1 2HL601      0.0000 
     39 H          16.0609    4.7776   -5.6511 H         1 2HL601      0.0000 
     40 H          16.2269    3.4268   -4.5163 H         1 2HL601      0.0000 
     41 H          15.5449    6.2724   -3.7473 H         1 2HL601      0.0000 
     42 H          17.1406    5.5202   -3.5803 H         1 2HL601      0.0000 
     43 H          16.1707    3.7709   -2.1492 H         1 2HL601      0.0000 
     44 H          13.5958    5.4040   -2.1291 H         1 2HL601      0.0000 
     45 H          13.9044    3.8602   -1.3159 H         1 2HL601      0.0000 
     46 H          13.8537    2.6302   -3.3137 H         1 2HL601      0.0000 
     47 H          12.5430    3.8072   -3.5053 H         1 2HL601      0.0000 
     48 H          17.1932    5.8951   -1.2797 H         1 2HL601      0.0000 
     49 H          16.1583    4.9895   -0.1622 H         1 2HL601      0.0000 
     50 H          14.1043    7.1279   -2.4451 H         1 2HL601      0.0000 
     51 H          16.9328    6.7018    1.5513 H         1 2HL601      0.0000 
     52 H          16.7133    8.2916    3.3613 H         1 2HL601      0.0000 
     53 H          13.7661   10.3565    1.2140 H         1 2HL601      0.0000 
     54 H          15.9194    8.8574    4.6508 H         1 2HL601      0.0000 
     55 H          16.7112    9.1536    6.9179 H         1 2HL601      0.0000 
     56 H          16.1634    9.9259    9.1576 H         1 2HL601      0.0000 
     57 H          14.3031   11.3817    9.5031 H         1 2HL601      0.0000 
     58 H          13.5074   11.4108    5.4545 H         1 2HL601      0.0000 
@<TRIPOS>BOND
     1    2    1 ar   
     2    6    1 ar   
     3   34    1 1    
     4    3    2 ar   
     5   35    2 1    
     6    4    3 ar   
     7   36    3 1    
     8    5    4 ar   
     9    7    4 1    
    10    6    5 ar   
    11   37    5 1    
    12   38    6 1    
    13    8    7 2    
    14    9    7 am   
    15   10    9 1    
    16   14    9 1    
    17   11   10 1    
    18   39   10 1    
    19   40   10 1    
    20   12   11 1    
    21   41   11 1    
    22   42   11 1    
    23   13   12 1    
    24   15   12 1    
    25   43   12 1    
    26   14   13 1    
    27   44   13 1    
    28   45   13 1    
    29   46   14 1    
    30   47   14 1    
    31   16   15 1    
    32   48   15 1    
    33   49   15 1    
    34   17   16 1    
    35   20   16 1    
    36   18   17 2    
    37   50   17 1    
    38   19   18 1    
    39   20   19 ar   
    40   24   19 ar   
    41   21   20 ar   
    42   22   21 ar   
    43   51   21 1    
    44   23   22 ar   
    45   52   22 1    
    46   24   23 ar   
    47   25   23 1    
    48   53   24 1    
    49   26   25 2    
    50   27   25 am   
    51   28   27 1    
    52   54   27 1    
    53   29   28 ar   
    54   33   28 ar   
    55   30   29 ar   
    56   55   29 1    
    57   31   30 ar   
    58   56   30 1    
    59   32   31 ar   
    60   57   31 1    
    61   33   32 ar   
    62   58   33 1    
@<TRIPOS>SUBSTRUCTURE
     1 2HL601      1 GROUP   
@<TRIPOS>SET

