#    Name: 2x9i_BLA_1_INTS_M
#    Modification time : Tue Mar 25 05:35:17 2014

@<TRIPOS>MOLECULE
2x9i_BLA_1_INTS_M
  112     0     9     0     0
SMALL
NO_CHARGES


@<TRIPOS>ATOM
      1 CA          8.4405   32.4790  -24.0925 C.3       3 GLC5        0.0000 
      2 CA          8.6390   34.2560  -24.1320 C.3       9 GLL5        0.0000 
      3 CA          8.2420   30.7020  -24.0530 C.3       6 GLP5        0.0000 
      4 CA         10.9365   34.0255  -19.6515 C.3       3 GLC5        0.0000 
      5 CA          9.7210   32.6300  -19.5830 C.3       9 GLL5        0.0000 
      6 CA         12.1520   35.4210  -19.7200 C.3       6 GLP5        0.0000 
      7 CA         12.5990   34.0170  -21.4860 C.3       3 GLC5        0.0000 
      8 CA         11.8130   32.6590  -22.6040 C.3       9 GLL5        0.0000 
      9 CA         13.3850   35.3750  -20.3680 C.3       6 GLP5        0.0000 
     10 CA         12.9175   33.8110  -23.2735 C.3       3 GLC5        0.0000 
     11 CA         14.0220   34.9630  -23.9430 C.3       6 GLP5        0.0000 
     12 NZ         14.8450   31.7410  -21.6070 N.4       2 LYC4        0.0000 
     13 NZ         13.6630   31.2540  -22.3690 N.4       8 LYL4        0.0000 
     14 NZ         16.0270   32.2280  -20.8450 N.4       5 LYP4        0.0000 
     15 N          14.8450   31.7410  -21.6070 N.am      1 SEC2        0.0000 
     16 N          13.6630   31.2540  -22.3690 N.am      7 SEL2        0.0000 
     17 N          16.0270   32.2280  -20.8450 N.am      4 SEP2        0.0000 
     18 CA          6.7505   33.5120  -20.2475 C.3       3 GLC5        0.0000 
     19 CA          7.6980   34.9550  -19.2730 C.3       9 GLL5        0.0000 
     20 CA          5.8030   32.0690  -21.2220 C.3       6 GLP5        0.0000 
     21 CA          4.9570   34.9575  -16.6955 C.3       3 GLC5        0.0000 
     22 CA          6.8930   35.8770  -16.2960 C.3       9 GLL5        0.0000 
     23 CA          3.0210   34.0380  -17.0950 C.3       6 GLP5        0.0000 
     24 CA          6.7295   34.7835  -14.9680 C.3       3 GLC5        0.0000 
     25 CA          6.5660   33.6900  -13.6400 C.3       6 GLP5        0.0000 
     26 N           4.3975   39.7560  -20.3800 N.am      1 SEC2        0.0000 
     27 N           5.0020   38.8340  -19.5740 N.am      7 SEL2        0.0000 
     28 N           3.7930   40.6780  -21.1860 N.am      4 SEP2        0.0000 
     29 CA          4.5750   41.0515  -18.4600 C.3       3 GLC5        0.0000 
     30 CA          4.4510   39.4830  -16.8800 C.3       9 GLL5        0.0000 
     31 CA          4.6990   42.6200  -20.0400 C.3       6 GLP5        0.0000 
     32 CA          2.8485   39.7055  -15.9200 C.3       3 GLC5        0.0000 
     33 CA          1.2460   39.9280  -14.9600 C.3       6 GLP5        0.0000 
     34 CA          1.3280   42.0490  -25.1220 C.3       3 GLC5        0.0000 
     35 CA          2.9860   41.4030  -25.1190 C.3       9 GLL5        0.0000 
     36 CA         -0.3300   42.6950  -25.1250 C.3       6 GLP5        0.0000 
     37 CA          1.9975   39.7225  -25.6080 C.3       3 GLC5        0.0000 
     38 CA          1.0090   38.0420  -26.0970 C.3       6 GLP5        0.0000 
     39 N           3.4105   39.8525  -22.2690 N.am      1 SEC2        0.0000 
     40 N           3.0280   39.0270  -23.3520 N.am      7 SEL2        0.0000 
     41 CA          3.9980   43.3345  -27.9590 C.3       3 GLC5        0.0000 
     42 CA          4.7720   41.6400  -27.9400 C.3       9 GLL5        0.0000 
     43 CA          3.2240   45.0290  -27.9780 C.3       6 GLP5        0.0000 
     44 CA          5.6635   43.1840  -27.0780 C.3       3 GLC5        0.0000 
     45 CA          6.5550   44.7280  -26.2160 C.3       6 GLP5        0.0000 
     46 CA          3.2115   41.7365  -29.5200 C.3       3 GLC5        0.0000 
     47 CA          1.6510   41.8330  -31.1000 C.3       6 GLP5        0.0000 
     48 CA          7.4070   38.7490  -27.7310 C.3       3 GLC5        0.0000 
     49 CA          6.0820   37.7330  -26.6070 C.3       9 GLL5        0.0000 
     50 CA          8.7320   39.7650  -28.8550 C.3       6 GLP5        0.0000 
     51 CA          9.0685   37.3330  -27.2685 C.3       3 GLC5        0.0000 
     52 CA          7.6470   35.8120  -27.1990 C.3       9 GLL5        0.0000 
     53 CA         10.4900   38.8540  -27.3380 C.3       6 GLP5        0.0000 
     54 CA          8.1860   37.8635  -28.7615 C.3       3 GLC5        0.0000 
     55 CA          7.6400   35.9620  -28.6680 C.3       9 GLL5        0.0000 
     56 CA          6.1070   34.8890  -28.2555 C.3       3 GLC5        0.0000 
     57 CA          4.5740   33.8160  -27.8430 C.3       6 GLP5        0.0000 
     58 CA          5.9770   37.1015  -29.5400 C.3       3 GLC5        0.0000 
     59 CA          4.3140   38.2410  -30.4120 C.3       6 GLP5        0.0000 
     60 CA          7.6630   36.7890  -30.6815 C.3       3 GLC5        0.0000 
     61 CA          7.6860   37.6160  -32.6950 C.3       6 GLP5        0.0000 
     62 CA          9.6100   33.2120  -29.1475 C.3       3 GLC5        0.0000 
     63 CA          9.2460   33.7710  -27.0740 C.3       9 GLL5        0.0000 
     64 CA          9.9740   32.6530  -31.2210 C.3       6 GLP5        0.0000 
     65 CA          9.3335   31.5730  -27.1135 C.3       3 GLC5        0.0000 
     66 CA          9.4210   29.3750  -27.1530 C.3       6 GLP5        0.0000 
     67 CA          8.2460   32.3650  -26.0215 C.3       3 GLC5        0.0000 
     68 CA          7.2460   30.9590  -24.9690 C.3       6 GLP5        0.0000 
     69 CA         12.1320   35.7530  -26.3665 C.3       3 GLC5        0.0000 
     70 CA         10.6930   34.2220  -27.0250 C.3       9 GLL5        0.0000 
     71 CA         13.5710   37.2840  -25.7080 C.3       6 GLP5        0.0000 
     72 N          10.3060   31.3100  -28.9955 N.am      1 SEC2        0.0000 
     73 N          11.1890   32.4880  -28.5040 N.am      7 SEL2        0.0000 
     74 N           9.4230   30.1320  -29.4870 N.am      4 SEP2        0.0000 
     75 N          13.5155   33.1670  -27.5755 N.am      1 SEC2        0.0000 
     76 N          12.5510   32.8470  -26.7820 N.am      7 SEL2        0.0000 
     77 N          14.4800   33.4870  -28.3690 N.am      4 SEP2        0.0000 
     78 CA          9.2477   36.3688  -23.9295 C.3       3 GLC5        0.0000 
     79 CA         10.1380   38.0750  -23.2360 C.3       6 GLP5        0.0000 
     80 CA          7.3978   32.8820  -21.8105 C.3       3 GLC5        0.0000 
     81 CA          8.6010   34.1660  -22.7550 C.3       9 GLL5        0.0000 
     82 CA          7.4950   32.6773  -20.6685 C.3       3 GLC5        0.0000 
     83 CA          8.1880   34.4790  -20.5910 C.3       9 GLL5        0.0000 
     84 CA          9.6632   31.5555  -23.3325 C.3       3 GLC5        0.0000 
     85 CA         10.3560   32.1590  -22.6200 C.3       9 GLL5        0.0000 
     86 CA          8.6465   36.5110  -20.3230 C.3       3 GLC5        0.0000 
     87 CA          9.9850   37.5290  -21.5260 C.3       6 GLP5        0.0000 
     88 CA          4.2885   36.7275  -17.0798 C.3       3 GLC5        0.0000 
     89 CA          6.5270   36.4880  -17.5830 C.3       9 GLL5        0.0000 
     90 CA          2.4230   36.4120  -16.5010 C.3       6 GLP5        0.0000 
     91 CA          8.0667   37.5250  -16.6921 C.3       3 GLC5        0.0000 
     92 CA          9.6100   38.5900  -16.4070 C.3       6 GLP5        0.0000 
     93 CA          5.1445   39.7073  -15.1575 C.3       3 GLC5        0.0000 
     94 CA          5.1570   38.4260  -16.6980 C.3       9 GLL5        0.0000 
     95 CA          5.4850   40.4600  -13.5260 C.3       6 GLP5        0.0000 
     96 CA          6.5695   39.9282  -17.2790 C.3       3 GLC5        0.0000 
     97 CA          8.3350   40.9020  -17.7690 C.3       6 GLP5        0.0000 
     98 CA          3.6135   37.6833  -16.6450 C.3       3 GLC5        0.0000 
     99 CA          6.5248   39.4520  -25.0633 C.3       3 GLC5        0.0000 
    100 CA          7.4000   40.8100  -23.8880 C.3       6 GLP5        0.0000 
    101 CA          5.0083   36.2100  -26.4078 C.3       3 GLC5        0.0000 
    102 CA          5.2170   38.4550  -25.8700 C.3       9 GLL5        0.0000 
    103 CA          4.3670   34.3260  -26.5770 C.3       6 GLP5        0.0000 
    104 CA          4.6077   37.6660  -28.0037 C.3       3 GLC5        0.0000 
    105 CA          3.5660   37.2380  -29.7690 C.3       6 GLP5        0.0000 
    106 CA          2.8676   38.6312  -25.9621 C.3       3 GLC5        0.0000 
    107 CA          6.0431   40.5307  -25.2599 C.3       3 GLC5        0.0000 
    108 CA          3.7970   40.1770  -25.2930 C.3       9 GLL5        0.0000 
    109 CA          6.8432   40.4218  -28.2823 C.3       3 GLC5        0.0000 
    110 CA          5.1370   40.5170  -27.4790 C.3       9 GLL5        0.0000 
    111 CA          4.5764   39.5695  -28.9104 C.3       3 GLC5        0.0000 
    112 CA          9.4039   35.6735  -21.5245 C.3       3 GLC5        0.0000 
@<TRIPOS>BOND
@<TRIPOS>SUBSTRUCTURE
     1 SEC2       15 GROUP        1 X    SEC  0     ROOT SEC X 2
     2 LYC4       12 GROUP        1 X    LYC  0     **** LYC X 4
     3 GLC5        1 GROUP        1 X    GLC  0     **** GLC X 6
     4 SEP2       17 GROUP        1 Y    SEP  0     ROOT SEP Y 9
     5 LYP4       14 GROUP        1 Y    LYP  0     **** LYP Y 11
     6 GLP5        3 GROUP        1 Y    GLP  0     **** GLP Y 13
     7 SEL2       16 GROUP        1 Z    SEL  0     ROOT SEL Z 16
     8 LYL4       13 GROUP        1 Z    LYL  0     **** LYL Z 18
     9 GLL5        2 GROUP        1 Z    GLL  0     **** GLL Z 20
@<TRIPOS>SET

