#    Name: 2x9i_BLA_1_ligand
#    Modification time : Tue Mar 25 05:35:17 2014

@<TRIPOS>MOLECULE
2x9i_BLA_1_ligand
   71    74     1     0     0
SMALL
NO_CHARGES


@<TRIPOS>ATOM
      1 CHA         8.6390   34.2560  -24.1320 C.2       1 BLA1234     0.0000 
      2 NA          7.8890   34.9110  -21.8210 N.pl3     1 BLA1234     0.0000 
      3 C1A         8.6010   34.1660  -22.7550 C.2       1 BLA1234     0.0000 
      4 C2A         9.3840   33.2240  -22.0430 C.2       1 BLA1234     0.0000 
      5 C3A         9.1180   33.4030  -20.7030 C.2       1 BLA1234     0.0000 
      6 C4A         8.1880   34.4790  -20.5910 C.2       1 BLA1234     0.0000 
      7 CMA         9.7210   32.6300  -19.5830 C.3       1 BLA1234     0.0000 
      8 CAA        10.3560   32.1590  -22.6200 C.3       1 BLA1234     0.0000 
      9 CBA        11.8130   32.6590  -22.6040 C.3       1 BLA1234     0.0000 
     10 CGA        12.7490   31.6240  -23.1410 C.2       1 BLA1234     0.0000 
     11 O1A        13.6630   31.2540  -22.3690 O.co2     1 BLA1234     0.0000 
     12 O2A        12.5450   31.1990  -24.3060 O.co2     1 BLA1234     0.0000 
     13 CHB         7.6980   34.9550  -19.2730 C.2       1 BLA1234     0.0000 
     14 NB          6.3310   36.9250  -19.8760 N.am      1 BLA1234     0.0000 
     15 C1B         6.9180   36.0310  -18.9670 C.2       1 BLA1234     0.0000 
     16 C2B         6.5270   36.4880  -17.5830 C.2       1 BLA1234     0.0000 
     17 C3B         5.7810   37.5980  -17.7340 C.2       1 BLA1234     0.0000 
     18 C4B         5.6500   37.8740  -19.1450 C.2       1 BLA1234     0.0000 
     19 CMB         6.8930   35.8770  -16.2960 C.3       1 BLA1234     0.0000 
     20 OB          5.0020   38.8340  -19.5740 O.2       1 BLA1234     0.0000 
     21 CAB         5.1570   38.4260  -16.6980 C.2       1 BLA1234     0.0000 
     22 CBB         4.4510   39.4830  -16.8800 C.2       1 BLA1234     0.0000 
     23 NC          4.5990   38.0520  -24.7270 N.am      1 BLA1234     0.0000 
     24 C1C         3.7350   39.0380  -24.3280 C.2       1 BLA1234     0.0000 
     25 C2C         3.7970   40.1770  -25.2930 C.2       1 BLA1234     0.0000 
     26 C3C         4.6740   39.7950  -26.2760 C.2       1 BLA1234     0.0000 
     27 C4C         5.2170   38.4550  -25.8700 C.2       1 BLA1234     0.0000 
     28 CMC         2.9860   41.4030  -25.1190 C.3       1 BLA1234     0.0000 
     29 OC          3.0280   39.0270  -23.3520 O.2       1 BLA1234     0.0000 
     30 CAC         5.1370   40.5170  -27.4790 C.2       1 BLA1234     0.0000 
     31 CBC         4.7720   41.6400  -27.9400 C.2       1 BLA1234     0.0000 
     32 CHD         6.0820   37.7330  -26.6070 C.2       1 BLA1234     0.0000 
     33 ND          7.1740   36.1760  -25.0100 N.2       1 BLA1234     0.0000 
     34 C1D         6.9230   36.6360  -26.2270 C.2       1 BLA1234     0.0000 
     35 C2D         7.6470   35.8120  -27.1990 C.2       1 BLA1234     0.0000 
     36 C3D         8.3320   34.8690  -26.4990 C.2       1 BLA1234     0.0000 
     37 C4D         8.0760   35.0690  -25.1140 C.2       1 BLA1234     0.0000 
     38 CMD         7.6400   35.9620  -28.6680 C.3       1 BLA1234     0.0000 
     39 CAD         9.2460   33.7710  -27.0740 C.3       1 BLA1234     0.0000 
     40 CBD        10.6930   34.2220  -27.0250 C.3       1 BLA1234     0.0000 
     41 CGD        11.5730   33.1280  -27.5060 C.2       1 BLA1234     0.0000 
     42 O1D        11.1890   32.4880  -28.5040 O.co2     1 BLA1234     0.0000 
     43 O2D        12.5510   32.8470  -26.7820 O.co2     1 BLA1234     0.0000 
     44 H           9.3140   33.4460  -24.5959 H         1 BLA1234     0.0000 
     45 H           7.2805   35.6236  -22.0550 H         1 BLA1234     0.0000 
     46 H          10.0639   31.9357  -23.6432 H         1 BLA1234     0.0000 
     47 H          10.2799   31.2544  -22.0217 H         1 BLA1234     0.0000 
     48 H          12.0798   32.9111  -21.5742 H         1 BLA1234     0.0000 
     49 H          11.8717   33.5696  -23.2061 H         1 BLA1234     0.0000 
     50 H           8.0351   34.3207  -18.4522 H         1 BLA1234     0.0000 
     51 H           6.3993   36.8726  -20.8161 H         1 BLA1234     0.0000 
     52 H           5.3514   38.0508  -15.6996 H         1 BLA1234     0.0000 
     53 H           4.7404   37.2183  -24.2721 H         1 BLA1234     0.0000 
     54 H           5.9158   39.9316  -28.0035 H         1 BLA1234     0.0000 
     55 H           6.1804   38.0033  -27.6692 H         1 BLA1234     0.0000 
     56 H           8.9562   33.5756  -28.1014 H         1 BLA1234     0.0000 
     57 H           9.1222   32.8676  -26.4856 H         1 BLA1234     0.0000 
     58 H          10.9467   34.4867  -25.9986 H         1 BLA1234     0.0000 
     59 H          10.8102   35.1046  -27.6537 H         1 BLA1234     0.0000 
     60 H          10.7162   32.7254  -19.5594 H         1 BLA1234     0.0000 
     61 H           9.3763   32.9332  -18.6946 H         1 BLA1234     0.0000 
     62 H           9.5219   31.6528  -19.6567 H         1 BLA1234     0.0000 
     63 H           7.8840   35.8546  -16.1640 H         1 BLA1234     0.0000 
     64 H           6.5056   36.3793  -15.5229 H         1 BLA1234     0.0000 
     65 H           6.5666   34.9343  -16.2263 H         1 BLA1234     0.0000 
     66 H           3.1951   41.8676  -24.2585 H         1 BLA1234     0.0000 
     67 H           3.1461   42.0617  -25.8542 H         1 BLA1234     0.0000 
     68 H           2.0063   41.2025  -25.1133 H         1 BLA1234     0.0000 
     69 H           7.9826   36.8577  -28.9515 H         1 BLA1234     0.0000 
     70 H           8.2128   35.2744  -29.1143 H         1 BLA1234     0.0000 
     71 H           6.7193   35.8671  -29.0466 H         1 BLA1234     0.0000 
@<TRIPOS>BOND
     1    3    1 1    
     2   37    1 2    
     3   44    1 1    
     4    3    2 1    
     5    6    2 1    
     6   45    2 1    
     7    4    3 2    
     8    5    4 1    
     9    8    4 1    
    10    6    5 2    
    11    7    5 1    
    12   13    6 1    
    13   60    7 1    
    14   61    7 1    
    15   62    7 1    
    16    9    8 1    
    17   46    8 1    
    18   47    8 1    
    19   10    9 1    
    20   48    9 1    
    21   49    9 1    
    22   11   10 ar   
    23   12   10 ar   
    24   15   13 2    
    25   50   13 1    
    26   15   14 1    
    27   18   14 am   
    28   51   14 1    
    29   16   15 1    
    30   17   16 2    
    31   19   16 1    
    32   18   17 1    
    33   21   17 1    
    34   20   18 2    
    35   63   19 1    
    36   64   19 1    
    37   65   19 1    
    38   22   21 2    
    39   52   21 1    
    40   24   23 am   
    41   27   23 1    
    42   53   23 1    
    43   25   24 1    
    44   29   24 2    
    45   26   25 2    
    46   28   25 1    
    47   27   26 1    
    48   30   26 1    
    49   32   27 2    
    50   66   28 1    
    51   67   28 1    
    52   68   28 1    
    53   31   30 2    
    54   54   30 1    
    55   34   32 1    
    56   55   32 1    
    57   34   33 2    
    58   37   33 1    
    59   35   34 1    
    60   36   35 2    
    61   38   35 1    
    62   37   36 1    
    63   39   36 1    
    64   69   38 1    
    65   70   38 1    
    66   71   38 1    
    67   40   39 1    
    68   56   39 1    
    69   57   39 1    
    70   41   40 1    
    71   58   40 1    
    72   59   40 1    
    73   42   41 ar   
    74   43   41 ar   
@<TRIPOS>SUBSTRUCTURE
     1 BLA1234     1 GROUP   
@<TRIPOS>SET

