#    Name: 3l1c_ADP_2_INTS_M
#    Modification time : Mon Mar 24 20:47:43 2014

@<TRIPOS>MOLECULE
3l1c_ADP_2_INTS_M
   56     0    12     0     0
SMALL
NO_CHARGES


@<TRIPOS>ATOM
      1 NZ        -37.9285   -6.0885   64.4825 N.4       2 LYC4        0.0000 
      2 NZ        -38.7490   -5.5820   64.8510 N.4      10 LYL4        0.0000 
      3 NZ        -37.1080   -6.5950   64.1140 N.4       6 LYP4        0.0000 
      4 N         -38.9015   -5.8290   66.5465 N.am      1 SEC2        0.0000 
      5 N         -38.7490   -5.5820   64.8510 N.am      9 SEL2        0.0000 
      6 N         -39.0540   -6.0760   68.2420 N.am      5 SEP2        0.0000 
      7 N         -38.9960   -4.5165   65.9510 N.am      1 SEC2        0.0000 
      8 N         -39.2430   -3.4510   67.0510 N.am      5 SEP2        0.0000 
      9 N         -38.5910   -4.1310   64.6940 N.am      1 SEC2        0.0000 
     10 N         -38.4330   -2.6800   64.5370 N.am      5 SEP2        0.0000 
     11 NZ        -38.8555   -6.0070   63.5460 N.4       2 LYC4        0.0000 
     12 NZ        -40.6030   -5.4190   62.9780 N.4      10 LYL4        0.0000 
     13 Zn        -40.4715   -6.3970   62.0500 Zn        3 ZIC7        0.0000 
     14 Zn        -40.6030   -5.4190   62.9780 Zn       11 ZIL7        0.0000 
     15 Zn        -40.3400   -7.3750   61.1220 Zn        7 ZIP7        0.0000 
     16 N         -40.2760   -4.0585   62.4850 N.am      1 SEC2        0.0000 
     17 N         -40.6030   -5.4190   62.9780 N.am      9 SEL2        0.0000 
     18 N         -39.9490   -2.6980   61.9920 N.am      5 SEP2        0.0000 
     19 N         -40.8290   -5.0675   61.6510 N.am      1 SEC2        0.0000 
     20 N         -41.0550   -4.7160   60.3240 N.am      5 SEP2        0.0000 
     21 NZ        -38.6755   -7.0925   64.2770 N.4       2 LYC4        0.0000 
     22 NZ        -40.2430   -7.5900   64.4400 N.4      10 LYL4        0.0000 
     23 N         -40.0720   -7.9250   65.7295 N.am      1 SEC2        0.0000 
     24 N         -40.2430   -7.5900   64.4400 N.am      9 SEL2        0.0000 
     25 N         -39.9010   -8.2600   67.0190 N.am      5 SEP2        0.0000 
     26 N         -38.6755   -7.0925   64.2770 N.am      1 SEC2        0.0000 
     27 N         -37.1080   -6.5950   64.1140 N.am      5 SEP2        0.0000 
     28 N         -42.0460   -2.3295   63.4350 N.am      1 SEC2        0.0000 
     29 N         -42.0070   -3.5300   64.0710 N.am      9 SEL2        0.0000 
     30 N         -42.0850   -1.1290   62.7990 N.am      5 SEP2        0.0000 
     31 N         -40.5005   -6.9035   66.2440 N.am      1 SEC2        0.0000 
     32 N         -41.1000   -5.5470   65.4690 N.am      9 SEL2        0.0000 
     33 CA        -42.1290   -6.6165   67.6325 C.3       4 GLC5        0.0000 
     34 CA        -43.4890   -5.4520   67.1840 C.3      12 GLL5        0.0000 
     35 CA        -40.7690   -7.7810   68.0810 C.3       8 GLP5        0.0000 
     36 CA        -46.0660   -2.7065   69.8070 C.3       4 GLC5        0.0000 
     37 CA        -45.4600   -2.6040   68.0090 C.3      12 GLL5        0.0000 
     38 CA        -46.6720   -2.8090   71.6050 C.3       8 GLP5        0.0000 
     39 CA        -43.0300    1.7655   71.1670 C.3       4 GLC5        0.0000 
     40 CA        -43.3130    1.7440   69.2690 C.3      12 GLL5        0.0000 
     41 CA        -42.7470    1.7870   73.0650 C.3       8 GLP5        0.0000 
     42 CA        -44.8600    1.7920   71.7685 C.3       4 GLC5        0.0000 
     43 CA        -45.6110    1.6380   69.8030 C.3      12 GLL5        0.0000 
     44 CA        -44.1090    1.9460   73.7340 C.3       8 GLP5        0.0000 
     45 CA        -45.6690   -1.5470   70.1715 C.3       4 GLC5        0.0000 
     46 CA        -44.6660   -0.2850   68.7380 C.3      12 GLL5        0.0000 
     47 CA        -46.3062   -4.9145   68.9915 C.3       4 GLC5        0.0000 
     48 CA        -45.7880   -4.6280   66.7380 C.3      12 GLL5        0.0000 
     49 CA        -47.3330   -5.0520   70.7070 C.3       8 GLP5        0.0000 
     50 CA        -45.5030   -1.0907   66.3905 C.3       4 GLC5        0.0000 
     51 CA        -45.4130    0.6810   65.4800 C.3       8 GLP5        0.0000 
     52 CA        -42.0252    0.2415   70.1540 C.3       4 GLC5        0.0000 
     53 CA        -43.3900    0.3880   68.6910 C.3      12 GLL5        0.0000 
     54 CA        -40.6990   -0.5830   71.3280 C.3       8 GLP5        0.0000 
     55 CA        -43.6085   -0.1098   66.7553 C.3       4 GLC5        0.0000 
     56 CA        -43.1890   -0.2710   64.7960 C.3       8 GLP5        0.0000 
@<TRIPOS>BOND
@<TRIPOS>SUBSTRUCTURE
     1 SEC2        4 GROUP        1 X    SEC  0     ROOT SEC X 2
     2 LYC4        1 GROUP        1 X    LYC  0     **** LYC X 4
     3 ZIC7       13 GROUP        1 X    ZIC  0     **** ZIC X 5
     4 GLC5       33 GROUP        1 X    GLC  0     **** GLC X 6
     5 SEP2        6 GROUP        1 Y    SEP  0     ROOT SEP Y 9
     6 LYP4        3 GROUP        1 Y    LYP  0     **** LYP Y 11
     7 ZIP7       15 GROUP        1 Y    ZIP  0     **** ZIP Y 12
     8 GLP5       35 GROUP        1 Y    GLP  0     **** GLP Y 13
     9 SEL2        5 GROUP        1 Z    SEL  0     ROOT SEL Z 16
    10 LYL4        2 GROUP        1 Z    LYL  0     **** LYL Z 18
    11 ZIL7       14 GROUP        1 Z    ZIL  0     **** ZIL Z 19
    12 GLL5       34 GROUP        1 Z    GLL  0     **** GLL Z 20
@<TRIPOS>SET

