#    Name: 3l1c_ADP_2_ligand
#    Modification time : Mon Mar 24 20:47:43 2014

@<TRIPOS>MOLECULE
3l1c_ADP_2_ligand
   39    41     1     0     0
SMALL
NO_CHARGES


@<TRIPOS>ATOM
      1 PB        -40.1000   -6.0800   64.2900 P.3       1 ADP999      0.0000 
      2 O1B       -38.7490   -5.5820   64.8510 O.co2     1 ADP999      0.0000 
      3 O2B       -40.6030   -5.4190   62.9780 O.co2     1 ADP999      0.0000 
      4 O3B       -40.2430   -7.5900   64.4400 O.co2     1 ADP999      0.0000 
      5 PA        -42.3780   -4.7190   64.9360 P.3       1 ADP999      0.0000 
      6 O1A       -43.1910   -5.8020   64.2460 O.co2     1 ADP999      0.0000 
      7 O2A       -42.0070   -3.5300   64.0710 O.co2     1 ADP999      0.0000 
      8 O3A       -41.1000   -5.5470   65.4690 O.3       1 ADP999      0.0000 
      9 O5'       -43.0660   -4.3930   66.3180 O.3       1 ADP999      0.0000 
     10 C5'       -43.4890   -5.4520   67.1840 C.3       1 ADP999      0.0000 
     11 C4'       -44.7710   -4.9260   67.8140 C.3       1 ADP999      0.0000 
     12 O4'       -44.6780   -3.6760   68.5470 O.3       1 ADP999      0.0000 
     13 C3'       -45.7880   -4.6280   66.7380 C.3       1 ADP999      0.0000 
     14 O3'       -47.0030   -5.0320   67.3580 O.3       1 ADP999      0.0000 
     15 C2'       -45.7260   -3.1210   66.5930 C.3       1 ADP999      0.0000 
     16 O2'       -46.9040   -2.6620   65.9610 O.3       1 ADP999      0.0000 
     17 C1'       -45.4600   -2.6040   68.0090 C.3       1 ADP999      0.0000 
     18 N9        -44.4800   -1.4830   68.1770 N.pl3     1 ADP999      0.0000 
     19 C8        -43.1860   -1.5660   67.8100 C.2       1 ADP999      0.0000 
     20 N7        -42.5180   -0.4400   68.1170 N.2       1 ADP999      0.0000 
     21 C5        -43.3900    0.3880   68.6910 C.ar      1 ADP999      0.0000 
     22 C6        -43.3130    1.7440   69.2690 C.ar      1 ADP999      0.0000 
     23 N6        -42.1150    2.3950   69.2270 N.pl3     1 ADP999      0.0000 
     24 N1        -44.4480    2.3000   69.8060 N.ar      1 ADP999      0.0000 
     25 C2        -45.6110    1.6380   69.8030 C.ar      1 ADP999      0.0000 
     26 N3        -45.6990    0.3830   69.3050 N.ar      1 ADP999      0.0000 
     27 C4        -44.6660   -0.2850   68.7380 C.ar      1 ADP999      0.0000 
     28 H         -42.7793   -5.6426   67.9669 H         1 ADP999      0.0000 
     29 H         -43.7203   -6.3499   66.6424 H         1 ADP999      0.0000 
     30 H         -45.2082   -5.6954   68.4450 H         1 ADP999      0.0000 
     31 H         -45.5473   -5.1131   65.8825 H         1 ADP999      0.0000 
     32 H         -44.8303   -2.9148   66.0010 H         1 ADP999      0.0000 
     33 H         -46.3180   -2.4765   68.5487 H         1 ADP999      0.0000 
     34 H         -42.7826   -2.3516   67.3729 H         1 ADP999      0.0000 
     35 H         -42.0974    3.3106   69.6287 H         1 ADP999      0.0000 
     36 H         -41.3597    1.8994   68.7982 H         1 ADP999      0.0000 
     37 H         -46.4735    2.0945   70.1922 H         1 ADP999      0.0000 
     38 H         -46.8655   -4.8597   68.3334 H         1 ADP999      0.0000 
     39 H         -47.6075   -3.3276   66.2103 H         1 ADP999      0.0000 
@<TRIPOS>BOND
     1    2    1 ar   
     2    3    1 ar   
     3    4    1 ar   
     4    8    1 1    
     5    6    5 ar   
     6    7    5 ar   
     7    8    5 1    
     8    9    5 1    
     9   10    9 1    
    10   11   10 1    
    11   28   10 1    
    12   29   10 1    
    13   12   11 1    
    14   13   11 1    
    15   30   11 1    
    16   17   12 1    
    17   14   13 1    
    18   15   13 1    
    19   31   13 1    
    20   38   14 1    
    21   16   15 1    
    22   17   15 1    
    23   32   15 1    
    24   39   16 1    
    25   18   17 1    
    26   33   17 1    
    27   19   18 1    
    28   27   18 1    
    29   20   19 2    
    30   34   19 1    
    31   21   20 1    
    32   22   21 ar   
    33   27   21 ar   
    34   23   22 1    
    35   24   22 ar   
    36   35   23 1    
    37   36   23 1    
    38   25   24 ar   
    39   26   25 ar   
    40   37   25 1    
    41   27   26 ar   
@<TRIPOS>SUBSTRUCTURE
     1 ADP999      1 GROUP   
@<TRIPOS>SET

