#    Name: 4iv8_SAM_1_INTS_M
#    Modification time : Tue Mar 25 04:41:12 2014

@<TRIPOS>MOLECULE
4iv8_SAM_1_INTS_M
   55     0     9     0     0
SMALL
NO_CHARGES


@<TRIPOS>ATOM
      1 O         -19.1910  -42.4920   12.5740 O.2       1 ALC1        0.0000 
      2 O         -20.0960  -41.7510   12.1610 O.2       7 ALL1        0.0000 
      3 O         -18.2860  -43.2330   12.9870 O.2       4 ALP1        0.0000 
      4 O         -20.4770  -40.6410   13.1745 O.2       1 ALC1        0.0000 
      5 O         -20.8580  -39.5310   14.1880 O.2       4 ALP1        0.0000 
      6 CA        -20.5540  -41.7840   17.2315 C.3       3 GLC5        0.0000 
      7 CA        -21.5760  -43.2260   16.2860 C.3       9 GLL5        0.0000 
      8 CA        -19.5320  -40.3420   18.1770 C.3       6 GLP5        0.0000 
      9 CA        -21.4665  -43.1525   18.5055 C.3       3 GLC5        0.0000 
     10 CA        -21.3570  -43.0790   20.7250 C.3       6 GLP5        0.0000 
     11 CA        -18.5635  -43.9000   15.3665 C.3       3 GLC5        0.0000 
     12 CA        -20.4810  -44.2510   16.0350 C.3       9 GLL5        0.0000 
     13 CA        -16.6460  -43.5490   14.6980 C.3       6 GLP5        0.0000 
     14 CA        -19.4160  -42.5270   16.6855 C.3       3 GLC5        0.0000 
     15 CA        -18.3510  -40.8030   17.3360 C.3       6 GLP5        0.0000 
     16 O         -19.5080  -46.5665   14.7275 O.2       1 ALC1        0.0000 
     17 O         -20.8480  -46.4340   15.0940 O.2       7 ALL1        0.0000 
     18 O         -18.1680  -46.6990   14.3610 O.2       4 ALP1        0.0000 
     19 O         -18.8910  -47.9665   16.5265 O.2       1 ALC1        0.0000 
     20 O         -19.8320  -47.5870   17.2380 O.2       7 ALL1        0.0000 
     21 O         -17.9500  -48.3460   15.8150 O.2       4 ALP1        0.0000 
     22 CA        -17.7465  -44.4400   15.9735 C.3       3 GLC5        0.0000 
     23 CA        -18.8470  -45.3310   17.2490 C.3       9 GLL5        0.0000 
     24 CA        -15.3915  -47.0410   20.0785 C.3       3 GLC5        0.0000 
     25 CA        -14.9940  -45.1610   20.3760 C.3       9 GLL5        0.0000 
     26 CA        -15.7890  -48.9210   19.7810 C.3       6 GLP5        0.0000 
     27 CA        -13.3345  -46.4865   20.6090 C.3       3 GLC5        0.0000 
     28 CA        -11.6750  -47.8120   20.8420 C.3       6 GLP5        0.0000 
     29 CA        -13.3475  -43.8760   20.1690 C.3       3 GLC5        0.0000 
     30 CA        -11.7010  -42.5910   19.9620 C.3       6 GLP5        0.0000 
     31 O         -13.3400  -45.3885   22.2070 O.2       1 ALC1        0.0000 
     32 O         -14.6370  -44.9940   21.6770 O.2       7 ALL1        0.0000 
     33 O         -12.0430  -45.7830   22.7370 O.2       4 ALP1        0.0000 
     34 N         -12.5850  -45.5225   19.5885 N.am      2 SEC2        0.0000 
     35 N         -14.0820  -45.3700   19.3940 N.am      8 SEL2        0.0000 
     36 N         -11.0880  -45.6750   19.7830 N.am      5 SEP2        0.0000 
     37 CA        -12.7310  -45.9735   16.8610 C.3       3 GLC5        0.0000 
     38 CA        -14.4440  -45.5250   18.1030 C.3       9 GLL5        0.0000 
     39 CA        -11.0180  -46.4220   15.6190 C.3       6 GLP5        0.0000 
     40 CA        -14.7240  -46.6345   16.6165 C.3       3 GLC5        0.0000 
     41 CA        -15.0040  -47.7440   15.1300 C.3       6 GLP5        0.0000 
     42 CA        -15.1165  -47.2230   18.9420 C.3       3 GLC5        0.0000 
     43 CA        -12.7005  -44.4320   18.4780 C.3       3 GLC5        0.0000 
     44 CA        -10.9570  -43.3390   18.8530 C.3       6 GLP5        0.0000 
     45 N         -15.6060  -47.0395   17.5140 N.am      2 SEC2        0.0000 
     46 N         -15.7360  -45.4880   17.6900 N.am      8 SEL2        0.0000 
     47 N         -15.4760  -48.5910   17.3380 N.am      5 SEP2        0.0000 
     48 CA        -16.6945  -44.4175   16.6395 C.3       3 GLC5        0.0000 
     49 CA        -16.7430  -45.2860   18.5810 C.3       9 GLL5        0.0000 
     50 CA        -20.4773  -45.0840   11.8480 C.3       3 GLC5        0.0000 
     51 CA        -21.4410  -43.5980   12.9710 C.3       9 GLL5        0.0000 
     52 CA        -19.7530  -46.9480   11.3390 C.3       6 GLP5        0.0000 
     53 CA        -18.3742  -47.1767   18.5772 C.3       3 GLC5        0.0000 
     54 CA        -17.2780  -48.5930   19.8300 C.3       6 GLP5        0.0000 
     55 CA        -16.9295  -46.8918   19.5598 C.3       3 GLC5        0.0000 
@<TRIPOS>BOND
@<TRIPOS>SUBSTRUCTURE
     1 ALC1        1 GROUP        1 X    ALC  0     ROOT ALC X 1
     2 SEC2       34 GROUP        1 X    SEC  0     **** SEC X 2
     3 GLC5        6 GROUP        1 X    GLC  0     **** GLC X 6
     4 ALP1        3 GROUP        1 Y    ALP  0     ROOT ALP Y 8
     5 SEP2       36 GROUP        1 Y    SEP  0     **** SEP Y 9
     6 GLP5        8 GROUP        1 Y    GLP  0     **** GLP Y 13
     7 ALL1        2 GROUP        1 Z    ALL  0     ROOT ALL Z 15
     8 SEL2       35 GROUP        1 Z    SEL  0     **** SEL Z 16
     9 GLL5        7 GROUP        1 Z    GLL  0     **** GLL Z 20
@<TRIPOS>SET

