#    Name: 4iv8_SAM_1_ligand
#    Modification time : Tue Mar 25 04:41:13 2014

@<TRIPOS>MOLECULE
4iv8_SAM_1_ligand
   50    52     1     0     0
SMALL
NO_CHARGES


@<TRIPOS>ATOM
      1 N         -20.0960  -41.7510   12.1610 N.4       1 SAM301      0.0000 
      2 CA        -20.9620  -42.8420   11.7430 C.3       1 SAM301      0.0000 
      3 C         -22.1690  -42.2950   11.0460 C.2       1 SAM301      0.0000 
      4 O         -22.9460  -43.1200   10.5240 O.co2     1 SAM301      0.0000 
      5 OXT       -22.3600  -41.0530   11.0270 O.co2     1 SAM301      0.0000 
      6 CB        -21.4410  -43.5980   12.9710 C.3       1 SAM301      0.0000 
      7 CG        -22.4190  -42.7290   13.7510 C.3       1 SAM301      0.0000 
      8 SD        -22.7960  -43.4940   15.1670 S.3       1 SAM301      0.0000 
      9 CE        -24.1790  -42.8490   15.8390 C.3       1 SAM301      0.0000 
     10 C5'       -21.5760  -43.2260   16.2860 C.3       1 SAM301      0.0000 
     11 C4'       -20.4810  -44.2510   16.0350 C.3       1 SAM301      0.0000 
     12 O4'       -19.3500  -44.0510   16.8940 O.3       1 SAM301      0.0000 
     13 C3'       -20.9950  -45.6660   16.2940 C.3       1 SAM301      0.0000 
     14 O3'       -20.8480  -46.4340   15.0940 O.3       1 SAM301      0.0000 
     15 C2'       -20.0940  -46.1900   17.4000 C.3       1 SAM301      0.0000 
     16 O2'       -19.8320  -47.5870   17.2380 O.3       1 SAM301      0.0000 
     17 C1'       -18.8470  -45.3310   17.2490 C.3       1 SAM301      0.0000 
     18 N9        -18.0720  -45.2080   18.5040 N.pl3     1 SAM301      0.0000 
     19 C8        -18.5790  -44.9730   19.7350 C.2       1 SAM301      0.0000 
     20 N7        -17.5880  -44.9100   20.6640 N.2       1 SAM301      0.0000 
     21 C5        -16.4190  -45.0950   19.9980 C.ar      1 SAM301      0.0000 
     22 C6        -14.9940  -45.1610   20.3760 C.ar      1 SAM301      0.0000 
     23 N6        -14.6370  -44.9940   21.6770 N.pl3     1 SAM301      0.0000 
     24 N1        -14.0820  -45.3700   19.3940 N.ar      1 SAM301      0.0000 
     25 C2        -14.4440  -45.5250   18.1030 C.ar      1 SAM301      0.0000 
     26 N3        -15.7360  -45.4880   17.6900 N.ar      1 SAM301      0.0000 
     27 C4        -16.7430  -45.2860   18.5810 C.ar      1 SAM301      0.0000 
     28 H         -20.4535  -43.5204   11.0999 H         1 SAM301      0.0000 
     29 H         -20.5927  -43.8397   13.6015 H         1 SAM301      0.0000 
     30 H         -21.9377  -44.5114   12.6634 H         1 SAM301      0.0000 
     31 H         -23.3391  -42.6039   13.2231 H         1 SAM301      0.0000 
     32 H         -21.9812  -41.7933   14.0226 H         1 SAM301      0.0000 
     33 H         -22.0272  -43.3508   17.2400 H         1 SAM301      0.0000 
     34 H         -21.2392  -42.2331   16.1131 H         1 SAM301      0.0000 
     35 H         -20.1847  -44.1999   14.9954 H         1 SAM301      0.0000 
     36 H         -21.9825  -45.6047   16.6443 H         1 SAM301      0.0000 
     37 H         -20.5518  -45.9458   18.3332 H         1 SAM301      0.0000 
     38 H         -18.2508  -45.7328   16.4642 H         1 SAM301      0.0000 
     39 H         -19.5311  -44.8624   19.9353 H         1 SAM301      0.0000 
     40 H         -13.6571  -45.0329   21.8729 H         1 SAM301      0.0000 
     41 H         -15.3857  -44.8470   22.3234 H         1 SAM301      0.0000 
     42 H         -13.6872  -45.6829   17.3768 H         1 SAM301      0.0000 
     43 H         -19.7876  -41.2028   11.3836 H         1 SAM301      0.0000 
     44 H         -20.5600  -41.1294   12.7922 H         1 SAM301      0.0000 
     45 H         -19.2769  -42.0849   12.6275 H         1 SAM301      0.0000 
     46 H         -24.4198  -43.3004   16.6982 H         1 SAM301      0.0000 
     47 H         -24.0753  -41.8747   16.0388 H         1 SAM301      0.0000 
     48 H         -24.9660  -42.9409   15.2290 H         1 SAM301      0.0000 
     49 H         -19.8630  -46.4618   14.9237 H         1 SAM301      0.0000 
     50 H         -18.8453  -47.6495   17.0881 H         1 SAM301      0.0000 
@<TRIPOS>BOND
     1    2    1 1    
     2   43    1 1    
     3   44    1 1    
     4   45    1 1    
     5    3    2 1    
     6    6    2 1    
     7   28    2 1    
     8    4    3 ar   
     9    5    3 ar   
    10    7    6 1    
    11   29    6 1    
    12   30    6 1    
    13    8    7 1    
    14   31    7 1    
    15   32    7 1    
    16    9    8 1    
    17   10    8 1    
    18   46    9 1    
    19   47    9 1    
    20   48    9 1    
    21   11   10 1    
    22   33   10 1    
    23   34   10 1    
    24   12   11 1    
    25   13   11 1    
    26   35   11 1    
    27   17   12 1    
    28   14   13 1    
    29   15   13 1    
    30   36   13 1    
    31   49   14 1    
    32   16   15 1    
    33   17   15 1    
    34   37   15 1    
    35   50   16 1    
    36   18   17 1    
    37   38   17 1    
    38   19   18 1    
    39   27   18 1    
    40   20   19 2    
    41   39   19 1    
    42   21   20 1    
    43   22   21 ar   
    44   27   21 ar   
    45   23   22 1    
    46   24   22 ar   
    47   40   23 1    
    48   41   23 1    
    49   25   24 ar   
    50   26   25 ar   
    51   42   25 1    
    52   27   26 ar   
@<TRIPOS>SUBSTRUCTURE
     1 SAM301      1 GROUP   
@<TRIPOS>SET

