#    Name: 3ral_04Z_1_INTS_M
#    Modification time : Tue Mar 25 11:19:41 2014

@<TRIPOS>MOLECULE
3ral_04Z_1_INTS_M
   66     0     9     0     0
SMALL
NO_CHARGES


@<TRIPOS>ATOM
      1 N          91.1020   82.9065  -51.9100 N.am      2 SEC2        0.0000 
      2 N          92.1830   82.2250  -50.7910 N.am      8 SEL2        0.0000 
      3 N          90.0210   83.5880  -53.0290 N.am      5 SEP2        0.0000 
      4 N          86.0940   80.1420  -46.1460 N.am      2 SEC2        0.0000 
      5 N          86.0320   80.9820  -44.9520 N.am      8 SEL2        0.0000 
      6 N          86.1560   79.3020  -47.3400 N.am      5 SEP2        0.0000 
      7 CA         93.0195   82.6030  -47.7320 C.3       3 GLC5        0.0000 
      8 CA         92.8390   80.9390  -48.6460 C.3       9 GLL5        0.0000 
      9 CA         93.2000   84.2670  -46.8180 C.3       6 GLP5        0.0000 
     10 O          93.6200   82.1915  -53.5220 O.2       1 ALC1        0.0000 
     11 O          93.7360   81.4270  -52.3760 O.2       7 ALL1        0.0000 
     12 O          93.5040   82.9560  -54.6680 O.2       4 ALP1        0.0000 
     13 N          85.3145   83.7285  -43.2760 N.am      2 SEC2        0.0000 
     14 N          86.7200   83.3220  -43.8580 N.am      8 SEL2        0.0000 
     15 N          83.9090   84.1350  -42.6940 N.am      5 SEP2        0.0000 
     16 N          85.3680   83.7180  -44.8360 N.am      2 SEC2        0.0000 
     17 N          84.0160   84.1140  -45.8140 N.am      5 SEP2        0.0000 
     18 CA         96.9855   80.4380  -47.3045 C.3       3 GLC5        0.0000 
     19 CA         96.5820   79.0040  -48.3690 C.3       9 GLL5        0.0000 
     20 CA         97.3890   81.8720  -46.2400 C.3       6 GLP5        0.0000 
     21 CA         92.0935   78.1060  -48.9615 C.3       3 GLC5        0.0000 
     22 CA         94.2490   78.0420  -48.3230 C.3       9 GLL5        0.0000 
     23 CA         89.9380   78.1700  -49.6000 C.3       6 GLP5        0.0000 
     24 O          88.2210   79.7565  -43.8775 O.2       1 ALC1        0.0000 
     25 O          87.9830   81.1020  -43.2730 O.2       7 ALL1        0.0000 
     26 O          88.4590   78.4110  -44.4820 O.2       4 ALP1        0.0000 
     27 CA         93.8845   75.3865  -47.7070 C.3       3 GLC5        0.0000 
     28 CA         94.5620   77.2710  -47.1570 C.3       9 GLL5        0.0000 
     29 CA         93.2070   73.5020  -48.2570 C.3       6 GLP5        0.0000 
     30 CA         98.2645   78.2330  -43.4630 C.3       3 GLC5        0.0000 
     31 CA         98.6200   77.6970  -45.5780 C.3       9 GLL5        0.0000 
     32 CA         97.9090   78.7690  -41.3480 C.3       6 GLP5        0.0000 
     33 CA         98.9680   76.6085  -44.1405 C.3       3 GLC5        0.0000 
     34 CA         99.3160   75.5200  -42.7030 C.3       6 GLP5        0.0000 
     35 CA         97.4325   79.5455  -45.4730 C.3       3 GLC5        0.0000 
     36 CA         96.2450   81.3940  -45.3680 C.3       6 GLP5        0.0000 
     37 CA        100.1470   77.6520  -46.3725 C.3       3 GLC5        0.0000 
     38 CA        101.6740   77.6070  -47.1670 C.3       6 GLP5        0.0000 
     39 CA         96.0610   80.7505  -48.2200 C.3       3 GLC5        0.0000 
     40 CA         95.2440   78.9190  -48.9490 C.3       9 GLL5        0.0000 
     41 CA         96.8780   82.5820  -47.4910 C.3       6 GLP5        0.0000 
     42 CA         90.0450   79.7650  -48.3105 C.3       3 GLC5        0.0000 
     43 CA         90.1520   81.3600  -47.0210 C.3       9 GLL5        0.0000 
     44 CA         87.5720   83.9550  -49.0155 C.3       3 GLC5        0.0000 
     45 CA         88.9580   83.5070  -47.5960 C.3       9 GLL5        0.0000 
     46 CA         86.1860   84.4030  -50.4350 C.3       6 GLP5        0.0000 
     47 CA         96.3270   79.5978  -46.1283 C.3       3 GLC5        0.0000 
     48 CA         95.9080   77.3670  -46.5810 C.3       9 GLL5        0.0000 
     49 CA         96.6190   76.3073  -47.9548 C.3       3 GLC5        0.0000 
     50 CA         96.9100   78.2360  -47.1960 C.3       9 GLL5        0.0000 
     51 CA         96.8290   74.8130  -49.0210 C.3       6 GLP5        0.0000 
     52 CA         96.3710   76.8872  -48.8400 C.3       3 GLC5        0.0000 
     53 CA         94.1232   77.3063  -50.2780 C.3       3 GLC5        0.0000 
     54 CA         93.5000   76.1320  -51.9200 C.3       6 GLP5        0.0000 
     55 CA         95.6172   76.2348  -48.3805 C.3       3 GLC5        0.0000 
     56 CA         94.4137   82.5147  -50.7777 C.3       3 GLC5        0.0000 
     57 CA         93.7160   80.6740  -50.0860 C.3       9 GLL5        0.0000 
     58 CA         95.3530   83.9710  -50.9490 C.3       6 GLP5        0.0000 
     59 CA         92.2721   79.9589  -50.9522 C.3       3 GLC5        0.0000 
     60 CA         93.2330   81.4430  -51.1270 C.3       9 GLL5        0.0000 
     61 CA         91.2890   78.7930  -51.6580 C.3       6 GLP5        0.0000 
     62 CA         88.7657   79.4105  -46.5397 C.3       3 GLC5        0.0000 
     63 CA         87.8100   77.5650  -46.6080 C.3       6 GLP5        0.0000 
     64 CA         91.3595   83.4988  -47.1731 C.3       3 GLC5        0.0000 
     65 CA         86.9925   82.2704  -47.5386 C.3       3 GLC5        0.0000 
     66 CA         85.4200   81.4350  -48.2470 C.3       6 GLP5        0.0000 
@<TRIPOS>BOND
@<TRIPOS>SUBSTRUCTURE
     1 ALC1       10 GROUP        1 X    ALC  0     ROOT ALC X 1
     2 SEC2        1 GROUP        1 X    SEC  0     **** SEC X 2
     3 GLC5        7 GROUP        1 X    GLC  0     **** GLC X 6
     4 ALP1       12 GROUP        1 Y    ALP  0     ROOT ALP Y 8
     5 SEP2        3 GROUP        1 Y    SEP  0     **** SEP Y 9
     6 GLP5        9 GROUP        1 Y    GLP  0     **** GLP Y 13
     7 ALL1       11 GROUP        1 Z    ALL  0     ROOT ALL Z 15
     8 SEL2        2 GROUP        1 Z    SEL  0     **** SEL Z 16
     9 GLL5        8 GROUP        1 Z    GLL  0     **** GLL Z 20
@<TRIPOS>SET

