#    Name: 3ral_04Z_1_ligand
#    Modification time : Tue Mar 25 11:19:41 2014

@<TRIPOS>MOLECULE
3ral_04Z_1_ligand
   43    45     1     0     0
SMALL
NO_CHARGES


@<TRIPOS>ATOM
      1 C1         95.9080   77.3670  -46.5810 C.ar      1 04Z499      0.0000 
      2 N1         92.1830   82.2250  -50.7910 N.2       1 04Z499      0.0000 
      3 O1         86.0320   80.9820  -44.9520 O.2       1 04Z499      0.0000 
      4 S1         92.8390   80.9390  -48.6460 S.3       1 04Z499      0.0000 
      5 C2         96.9100   78.2360  -47.1960 C.ar      1 04Z499      0.0000 
      6 N2         93.7360   81.4270  -52.3760 N.pl3     1 04Z499      0.0000 
      7 O2         86.7200   83.3220  -43.8580 O.2       1 04Z499      0.0000 
      8 S2         87.2540   81.8790  -44.4080 S.o2      1 04Z499      0.0000 
      9 C3         96.5820   79.0040  -48.3690 C.ar      1 04Z499      0.0000 
     10 N3         90.8080   82.8040  -48.9980 N.pl3     1 04Z499      0.0000 
     11 O3         95.5220   79.5680  -51.3300 O.2       1 04Z499      0.0000 
     12 C4         94.2490   78.0420  -48.3230 C.ar      1 04Z499      0.0000 
     13 N4         87.9830   81.1020  -43.2730 N.pl3     1 04Z499      0.0000 
     14 C5         94.5620   77.2710  -47.1570 C.ar      1 04Z499      0.0000 
     15 O6         98.2000   78.3500  -46.6630 O.3       1 04Z499      0.0000 
     16 C7         98.6200   77.6970  -45.5780 C.3       1 04Z499      0.0000 
     17 C10        95.2440   78.9190  -48.9490 C.ar      1 04Z499      0.0000 
     18 C11        94.8610   79.7120  -50.1590 C.2       1 04Z499      0.0000 
     19 C12        93.7160   80.6740  -50.0860 C.2       1 04Z499      0.0000 
     20 C13        93.2330   81.4430  -51.1270 C.2       1 04Z499      0.0000 
     21 C14        91.8540   82.0730  -49.5030 C.2       1 04Z499      0.0000 
     22 C15        90.0080   82.5480  -47.9000 C.ar      1 04Z499      0.0000 
     23 C16        90.1520   81.3600  -47.0210 C.ar      1 04Z499      0.0000 
     24 C17        89.2910   81.1520  -45.9220 C.ar      1 04Z499      0.0000 
     25 C18        88.2490   82.1150  -45.6420 C.ar      1 04Z499      0.0000 
     26 C19        88.0950   83.2940  -46.4870 C.ar      1 04Z499      0.0000 
     27 C20        88.9580   83.5070  -47.5960 C.ar      1 04Z499      0.0000 
     28 H          96.1395   76.8332  -45.7617 H         1 04Z499      0.0000 
     29 H          93.3127   82.0551  -53.0289 H         1 04Z499      0.0000 
     30 H          94.4881   80.7885  -52.5393 H         1 04Z499      0.0000 
     31 H          97.2706   79.6041  -48.7976 H         1 04Z499      0.0000 
     32 H          90.5687   83.7280  -49.5434 H         1 04Z499      0.0000 
     33 H          93.3195   77.9901  -48.7373 H         1 04Z499      0.0000 
     34 H          88.3926   81.6595  -42.5510 H         1 04Z499      0.0000 
     35 H          87.9854   80.1052  -43.3534 H         1 04Z499      0.0000 
     36 H          93.8834   76.6711  -46.7299 H         1 04Z499      0.0000 
     37 H          90.8967   80.7001  -47.2416 H         1 04Z499      0.0000 
     38 H          89.3893   80.3405  -45.3255 H         1 04Z499      0.0000 
     39 H          87.3591   83.9595  -46.2673 H         1 04Z499      0.0000 
     40 H          88.8530   84.3253  -48.1855 H         1 04Z499      0.0000 
     41 H          99.5709   77.9150  -45.3582 H         1 04Z499      0.0000 
     42 H          98.0732   77.9251  -44.7724 H         1 04Z499      0.0000 
     43 H          98.5667   76.7056  -45.6974 H         1 04Z499      0.0000 
@<TRIPOS>BOND
     1    5    1 ar   
     2   14    1 ar   
     3   28    1 1    
     4   20    2 1    
     5   21    2 2    
     6    8    3 2    
     7   19    4 1    
     8   21    4 1    
     9    9    5 ar   
    10   15    5 1    
    11   20    6 1    
    12   29    6 1    
    13   30    6 1    
    14    8    7 2    
    15   13    8 1    
    16   25    8 1    
    17   17    9 ar   
    18   31    9 1    
    19   21   10 1    
    20   22   10 1    
    21   32   10 1    
    22   18   11 2    
    23   14   12 ar   
    24   17   12 ar   
    25   33   12 1    
    26   34   13 1    
    27   35   13 1    
    28   36   14 1    
    29   16   15 1    
    30   41   16 1    
    31   42   16 1    
    32   43   16 1    
    33   18   17 1    
    34   19   18 1    
    35   20   19 2    
    36   23   22 ar   
    37   27   22 ar   
    38   24   23 ar   
    39   37   23 1    
    40   25   24 ar   
    41   38   24 1    
    42   26   25 ar   
    43   27   26 ar   
    44   39   26 1    
    45   40   27 1    
@<TRIPOS>SUBSTRUCTURE
     1 04Z499      1 GROUP   
@<TRIPOS>SET

