#    Name: 4eaw_0NQ_1_INTS_M
#    Modification time : Mon Apr  7 23:30:47 2014

@<TRIPOS>MOLECULE
4eaw_0NQ_1_INTS_M
   68     0     9     0     0
SMALL
NO_CHARGES


@<TRIPOS>ATOM
      1 CA        -24.8035   -7.1365   35.4025 C.3       3 GLC5        0.0000 
      2 CA        -25.4470   -8.0760   33.7290 C.3       9 GLL5        0.0000 
      3 CA        -24.1600   -6.1970   37.0760 C.3       6 GLP5        0.0000 
      4 CA        -28.0165   -9.8020   33.7395 C.3       3 GLC5        0.0000 
      5 CA        -26.0300   -9.4840   33.8240 C.3       9 GLL5        0.0000 
      6 CA        -30.0030  -10.1200   33.6550 C.3       6 GLP5        0.0000 
      7 CA        -26.9815  -10.5130   32.2305 C.3       3 GLC5        0.0000 
      8 CA        -27.9330  -11.5420   30.6370 C.3       6 GLP5        0.0000 
      9 CA        -22.6525  -10.2535   33.4990 C.3       3 GLC5        0.0000 
     10 CA        -24.1380  -10.4750   35.1520 C.3       9 GLL5        0.0000 
     11 CA        -21.1670  -10.0320   31.8460 C.3       6 GLP5        0.0000 
     12 CA        -22.5180   -9.9505   36.0450 C.3       3 GLC5        0.0000 
     13 CA        -20.8980   -9.4260   36.9380 C.3       6 GLP5        0.0000 
     14 CA        -27.8430  -12.7255   36.2430 C.3       3 GLC5        0.0000 
     15 CA        -26.3780  -11.6260   35.1020 C.3       9 GLL5        0.0000 
     16 CA        -29.3080  -13.8250   37.3840 C.3       6 GLP5        0.0000 
     17 CA        -28.1905  -10.8730   34.3785 C.3       3 GLC5        0.0000 
     18 CA        -25.4190  -11.3410   37.2225 C.3       3 GLC5        0.0000 
     19 CA        -26.1810   -9.4590   36.3370 C.3       9 GLL5        0.0000 
     20 CA        -24.6570  -13.2230   38.1080 C.3       6 GLP5        0.0000 
     21 CA        -27.8950   -8.3505   36.0350 C.3       3 GLC5        0.0000 
     22 CA        -29.6090   -7.2420   35.7330 C.3       6 GLP5        0.0000 
     23 CA        -25.2195   -8.1815   37.3060 C.3       3 GLC5        0.0000 
     24 CA        -24.2580   -6.9040   38.2750 C.3       6 GLP5        0.0000 
     25 CA        -28.2040   -6.1300   34.6950 C.3       3 GLC5        0.0000 
     26 CA        -26.7990   -5.0180   33.6570 C.3       9 GLL5        0.0000 
     27 CA        -25.9125   -5.0980   35.2305 C.3       3 GLC5        0.0000 
     28 CA        -25.0260   -5.1780   36.8040 C.3       6 GLP5        0.0000 
     29 CA        -30.1715   -3.7520   32.8720 C.3       3 GLC5        0.0000 
     30 CA        -28.6740   -4.9540   32.0720 C.3       9 GLL5        0.0000 
     31 CA        -31.6690   -2.5500   33.6720 C.3       6 GLP5        0.0000 
     32 CA        -30.7535   -5.5130   32.0030 C.3       3 GLC5        0.0000 
     33 CA        -32.8330   -6.0720   31.9340 C.3       6 GLP5        0.0000 
     34 N         -29.2060   -7.7095   29.0225 N.am      2 SEC2        0.0000 
     35 N         -28.3340   -7.1300   29.9130 N.am      8 SEL2        0.0000 
     36 N         -30.0780   -8.2890   28.1320 N.am      5 SEP2        0.0000 
     37 CA        -24.6430   -8.0280   23.4585 C.3       3 GLC5        0.0000 
     38 CA        -23.4960   -8.8380   24.9470 C.3       9 GLL5        0.0000 
     39 CA        -25.7900   -7.2180   21.9700 C.3       6 GLP5        0.0000 
     40 O         -19.9925   -9.6740   23.9695 O.2       1 ALC1        0.0000 
     41 O         -21.4900   -9.6770   23.8120 O.2       7 ALL1        0.0000 
     42 O         -18.4950   -9.6710   24.1270 O.2       4 ALP1        0.0000 
     43 CA        -23.8430   -7.4415   21.8980 C.3       3 GLC5        0.0000 
     44 CA        -21.8960   -7.6650   21.8260 C.3       9 GLL5        0.0000 
     45 N         -20.3120  -10.1915   20.1950 N.am      2 SEC2        0.0000 
     46 N         -20.9410  -10.1080   21.5230 N.am      8 SEL2        0.0000 
     47 N         -19.6830  -10.2750   18.8670 N.am      5 SEP2        0.0000 
     48 N         -19.8495  -11.2125   22.2875 N.am      2 SEC2        0.0000 
     49 N         -18.7580  -12.3170   23.0520 N.am      5 SEP2        0.0000 
     50 CA        -19.9355  -10.7825   27.0295 C.3       3 GLC5        0.0000 
     51 CA        -21.6460   -9.7090   26.2020 C.3       9 GLL5        0.0000 
     52 CA        -18.2250  -11.8560   27.8570 C.3       6 GLP5        0.0000 
     53 CA        -21.9505  -10.4235   28.9840 C.3       3 GLC5        0.0000 
     54 CA        -22.3520   -9.4550   27.3580 C.3       9 GLL5        0.0000 
     55 CA        -21.5490  -11.3920   30.6100 C.3       6 GLP5        0.0000 
     56 CA        -25.2099  -12.8000   35.0023 C.3       3 GLC5        0.0000 
     57 CA        -24.7780  -14.6050   34.8870 C.3       6 GLP5        0.0000 
     58 CA        -25.1494  -12.1090   36.6127 C.3       3 GLC5        0.0000 
     59 CA        -29.2015   -6.5202   33.2934 C.3       3 GLC5        0.0000 
     60 CA        -27.0450   -6.9730   32.0480 C.3       9 GLL5        0.0000 
     61 CA        -30.4990   -7.4640   34.4790 C.3       6 GLP5        0.0000 
     62 CA        -27.2555   -9.3338   29.5269 C.3       3 GLC5        0.0000 
     63 CA        -27.2080   -7.3740   30.6050 C.3       9 GLL5        0.0000 
     64 CA        -28.4020  -10.8160   29.4940 C.3       6 GLP5        0.0000 
     65 CA        -25.0970   -6.2420   23.7350 C.3       3 GLC5        0.0000 
     66 CA        -25.0390   -5.3390   25.9310 C.3       9 GLL5        0.0000 
     67 CA        -22.0705  -11.5250   27.2040 C.3       3 GLC5        0.0000 
     68 CA        -22.1420  -13.4680   27.6280 C.3       6 GLP5        0.0000 
@<TRIPOS>BOND
@<TRIPOS>SUBSTRUCTURE
     1 ALC1       40 GROUP        1 X    ALC  0     ROOT ALC X 1
     2 SEC2       34 GROUP        1 X    SEC  0     **** SEC X 2
     3 GLC5        1 GROUP        1 X    GLC  0     **** GLC X 6
     4 ALP1       42 GROUP        1 Y    ALP  0     ROOT ALP Y 8
     5 SEP2       36 GROUP        1 Y    SEP  0     **** SEP Y 9
     6 GLP5        3 GROUP        1 Y    GLP  0     **** GLP Y 13
     7 ALL1       41 GROUP        1 Z    ALL  0     ROOT ALL Z 15
     8 SEL2       35 GROUP        1 Z    SEL  0     **** SEL Z 16
     9 GLL5        2 GROUP        1 Z    GLL  0     **** GLL Z 20
@<TRIPOS>SET

