#    Name: 4eaw_0NQ_1_ligand
#    Modification time : Mon Apr  7 23:30:47 2014

@<TRIPOS>MOLECULE
4eaw_0NQ_1_ligand
   73    75     1     0     0
SMALL
NO_CHARGES


@<TRIPOS>ATOM
      1 O26       -24.0580   -8.5380   31.2640 O.2       1 0NQ601      0.0000 
      2 C24       -25.1550   -8.0160   31.2880 C.2       1 0NQ601      0.0000 
      3 N23       -25.6970   -7.4630   32.4230 N.am      1 0NQ601      0.0000 
      4 C31       -25.4470   -8.0760   33.7290 C.3       1 0NQ601      0.0000 
      5 C32       -26.0300   -9.4840   33.8240 C.3       1 0NQ601      0.0000 
      6 C33       -25.6730  -10.2530   35.1140 C.3       1 0NQ601      0.0000 
      7 C36       -24.1380  -10.4750   35.1520 C.3       1 0NQ601      0.0000 
      8 C35       -26.3780  -11.6260   35.1020 C.3       1 0NQ601      0.0000 
      9 C34       -26.1810   -9.4590   36.3370 C.3       1 0NQ601      0.0000 
     10 C22       -27.0450   -6.9730   32.0480 C.3       1 0NQ601      0.0000 
     11 C27       -27.2230   -5.4250   32.2390 C.3       1 0NQ601      0.0000 
     12 C30       -26.4190   -4.5930   31.2120 C.3       1 0NQ601      0.0000 
     13 C29       -26.7990   -5.0180   33.6570 C.3       1 0NQ601      0.0000 
     14 C28       -28.6740   -4.9540   32.0720 C.3       1 0NQ601      0.0000 
     15 C21       -27.2080   -7.3740   30.6050 C.2       1 0NQ601      0.0000 
     16 O25       -28.3340   -7.1300   29.9130 O.co2     1 0NQ601      0.0000 
     17 C1        -26.0540   -7.8740   30.1440 C.2       1 0NQ601      0.0000 
     18 C2        -25.5870   -8.0790   28.7450 C.2       1 0NQ601      0.0000 
     19 N5        -26.3320   -7.6790   27.7450 N.pl3     1 0NQ601      0.0000 
     20 P4        -25.8480   -7.8370   26.1280 P.3       1 0NQ601      0.0000 
     21 O6        -26.7500   -8.7370   25.4920 O.2       1 0NQ601      0.0000 
     22 O7        -25.8900   -6.3670   25.4280 O.3       1 0NQ601      0.0000 
     23 C19       -25.0390   -5.3390   25.9310 C.3       1 0NQ601      0.0000 
     24 C20       -23.7690   -5.1930   25.0690 C.3       1 0NQ601      0.0000 
     25 C8        -24.1990   -8.5780   26.1220 C.ar      1 0NQ601      0.0000 
     26 C13       -23.4960   -8.8380   24.9470 C.ar      1 0NQ601      0.0000 
     27 C12       -22.2300   -9.4050   24.9720 C.ar      1 0NQ601      0.0000 
     28 N14       -21.4900   -9.6770   23.8120 N.pl3     1 0NQ601      0.0000 
     29 S15       -21.9340   -9.4140   22.2740 S.o2      1 0NQ601      0.0000 
     30 C18       -21.8960   -7.6650   21.8260 C.3       1 0NQ601      0.0000 
     31 O17       -23.2250   -9.9180   22.0530 O.2       1 0NQ601      0.0000 
     32 O16       -20.9410  -10.1080   21.5230 O.2       1 0NQ601      0.0000 
     33 C11       -21.6460   -9.7090   26.2020 C.ar      1 0NQ601      0.0000 
     34 C10       -22.3520   -9.4550   27.3580 C.ar      1 0NQ601      0.0000 
     35 C9        -23.6190   -8.8750   27.3350 C.ar      1 0NQ601      0.0000 
     36 N3        -24.3060   -8.6440   28.5680 N.pl3     1 0NQ601      0.0000 
     37 H         -25.8885   -7.4673   34.5341 H         1 0NQ601      0.0000 
     38 H         -24.3652   -8.1390   33.9273 H         1 0NQ601      0.0000 
     39 H         -25.6848  -10.0771   32.9572 H         1 0NQ601      0.0000 
     40 H         -27.1312   -9.4249   33.7462 H         1 0NQ601      0.0000 
     41 H         -27.7915   -7.4832   32.6292 H         1 0NQ601      0.0000 
     42 H         -27.2563   -7.2398   27.7738 H         1 0NQ601      0.0000 
     43 H         -24.7115   -5.5455   26.9621 H         1 0NQ601      0.0000 
     44 H         -25.5413   -4.3589   25.9406 H         1 0NQ601      0.0000 
     45 H         -23.9314   -8.6013   24.0346 H         1 0NQ601      0.0000 
     46 H         -20.5302  -10.0992   23.8604 H         1 0NQ601      0.0000 
     47 H         -20.7076  -10.1141   26.2371 H         1 0NQ601      0.0000 
     48 H         -21.9315   -9.7016   28.2804 H         1 0NQ601      0.0000 
     49 H         -23.7810   -8.9364   29.4569 H         1 0NQ601      0.0000 
     50 H         -23.6373   -9.6094   35.1439 H         1 0NQ601      0.0000 
     51 H         -23.8545  -10.9699   35.9734 H         1 0NQ601      0.0000 
     52 H         -23.8198  -11.0051   34.3660 H         1 0NQ601      0.0000 
     53 H         -26.1019  -12.1784   34.3155 H         1 0NQ601      0.0000 
     54 H         -26.1683  -12.1584   35.9221 H         1 0NQ601      0.0000 
     55 H         -27.3727  -11.5324   35.0597 H         1 0NQ601      0.0000 
     56 H         -25.9698   -9.9251   37.1962 H         1 0NQ601      0.0000 
     57 H         -25.7676   -8.5499   36.3874 H         1 0NQ601      0.0000 
     58 H         -27.1722   -9.3291   36.3099 H         1 0NQ601      0.0000 
     59 H         -25.4375   -4.7738   31.2745 H         1 0NQ601      0.0000 
     60 H         -26.6951   -4.7954   30.2724 H         1 0NQ601      0.0000 
     61 H         -26.5454   -3.6106   31.3495 H         1 0NQ601      0.0000 
     62 H         -25.8415   -5.2432   33.8374 H         1 0NQ601      0.0000 
     63 H         -26.9023   -4.0348   33.8077 H         1 0NQ601      0.0000 
     64 H         -27.3454   -5.4806   34.3552 H         1 0NQ601      0.0000 
     65 H         -28.7599   -3.9652   32.1944 H         1 0NQ601      0.0000 
     66 H         -29.0320   -5.1691   31.1634 H         1 0NQ601      0.0000 
     67 H         -29.2835   -5.3857   32.7370 H         1 0NQ601      0.0000 
     68 H         -23.1658   -4.4744   25.4151 H         1 0NQ601      0.0000 
     69 H         -23.2354   -6.0385   25.0476 H         1 0NQ601      0.0000 
     70 H         -23.9880   -4.9606   24.1214 H         1 0NQ601      0.0000 
     71 H         -20.9805   -7.2756   21.9268 H         1 0NQ601      0.0000 
     72 H         -22.1738   -7.5187   20.8766 H         1 0NQ601      0.0000 
     73 H         -22.5103   -7.1216   22.3982 H         1 0NQ601      0.0000 
@<TRIPOS>BOND
     1    2    1 2    
     2    3    2 am   
     3   17    2 1    
     4    4    3 1    
     5   10    3 1    
     6    5    4 1    
     7   37    4 1    
     8   38    4 1    
     9    6    5 1    
    10   39    5 1    
    11   40    5 1    
    12    7    6 1    
    13    8    6 1    
    14    9    6 1    
    15   50    7 1    
    16   51    7 1    
    17   52    7 1    
    18   53    8 1    
    19   54    8 1    
    20   55    8 1    
    21   56    9 1    
    22   57    9 1    
    23   58    9 1    
    24   11   10 1    
    25   15   10 1    
    26   41   10 1    
    27   12   11 1    
    28   13   11 1    
    29   14   11 1    
    30   59   12 1    
    31   60   12 1    
    32   61   12 1    
    33   62   13 1    
    34   63   13 1    
    35   64   13 1    
    36   65   14 1    
    37   66   14 1    
    38   67   14 1    
    39   16   15 1    
    40   17   15 2    
    41   18   17 1    
    42   19   18 2    
    43   36   18 1    
    44   20   19 1    
    45   42   19 1    
    46   21   20 2    
    47   22   20 1    
    48   25   20 1    
    49   23   22 1    
    50   24   23 1    
    51   43   23 1    
    52   44   23 1    
    53   68   24 1    
    54   69   24 1    
    55   70   24 1    
    56   26   25 ar   
    57   35   25 ar   
    58   27   26 ar   
    59   45   26 1    
    60   28   27 1    
    61   33   27 ar   
    62   29   28 1    
    63   46   28 1    
    64   30   29 1    
    65   31   29 2    
    66   32   29 2    
    67   71   30 1    
    68   72   30 1    
    69   73   30 1    
    70   34   33 ar   
    71   47   33 1    
    72   35   34 ar   
    73   48   34 1    
    74   36   35 1    
    75   49   36 1    
@<TRIPOS>SUBSTRUCTURE
     1 0NQ601      1 GROUP   
@<TRIPOS>SET

