#    Name: 1OO6_1_CAVITY_N1_6.mol2
#    Modification time : Mon Mar 10 22:52:03 2014

@<TRIPOS>MOLECULE
1OO6_1_CAVITY_N1_6.mol2
  131     0     6     0     0
SMALL
NO_CHARGES


@<TRIPOS>ATOM
      1 CA        -12.5725  -11.6816   56.7028 C.3       5 GLY6        0.0000 
      2 OD1       -12.8405  -11.7662   54.6001 O.3       3 ASP3        0.0000 
      3 CA        -13.3047  -12.5927   55.7627 C.3       5 GLY6        0.0000 
      4 N         -10.7872   -7.7187   46.6849 N.2       2 ALA2        0.0000 
      5 O         -11.2514   -8.5451   47.8474 O.2       2 ALA2        0.0000 
      6 N         -12.1799  -10.1980   50.1725 N.2       2 ALA2        0.0000 
      7 DU        -11.5194   -8.6298   45.7448 H         6 CUB7        0.0000 
      8 DU        -11.9836   -9.4562   46.9073 H         6 CUB7        0.0000 
      9 CA        -11.3484  -12.5400   56.5813 C.3       5 GLY6        0.0000 
     10 CA        -11.6164  -12.6247   54.4787 C.3       5 GLY6        0.0000 
     11 CZ        -12.0806  -13.4511   55.6412 C.ar      4 PHE5        0.0000 
     12 CZ        -12.5449  -14.2776   56.8038 C.ar      4 PHE5        0.0000 
     13 CZ        -13.0091  -15.1040   57.9663 C.ar      4 PHE5        0.0000 
     14 CZ         -9.0989   -7.7506   45.4009 C.ar      4 PHE5        0.0000 
     15 N          -9.5631   -8.5771   46.5635 N.2       2 ALA2        0.0000 
     16 N         -10.0274   -9.4035   47.7260 N.2       2 ALA2        0.0000 
     17 N         -10.4916  -10.2300   48.8885 N.2       2 ALA2        0.0000 
     18 N         -10.9559  -11.0564   50.0510 N.2       2 ALA2        0.0000 
     19 CA        -11.4201  -11.8829   51.2136 C.3       5 GLY6        0.0000 
     20 CA        -11.8843  -12.7093   52.3761 C.3       5 GLY6        0.0000 
     21 CZ        -12.3486  -13.5358   53.5386 C.ar      4 PHE5        0.0000 
     22 CZ        -12.8128  -14.3622   54.7011 C.ar      4 PHE5        0.0000 
     23 CZ        -13.2771  -15.1887   55.8637 C.ar      4 PHE5        0.0000 
     24 DU         -9.8311   -8.6617   44.4608 H         6 CUB7        0.0000 
     25 DU        -10.2953   -9.4882   45.6234 H         6 CUB7        0.0000 
     26 DU        -10.7596  -10.3146   46.7859 H         6 CUB7        0.0000 
     27 DU        -11.2238  -11.1411   47.9484 H         6 CUB7        0.0000 
     28 DU        -11.6880  -11.9675   49.1109 H         6 CUB7        0.0000 
     29 DU        -12.1523  -12.7940   50.2735 H         6 CUB7        0.0000 
     30 CZ        -12.6165  -13.6204   51.4360 C.ar      4 PHE5        0.0000 
     31 CZ        -13.0808  -14.4469   52.5985 C.ar      4 PHE5        0.0000 
     32 CZ        -13.3487  -14.5315   50.4959 C.ar      4 PHE5        0.0000 
     33 DU        -11.2955  -10.4839   42.5806 H         6 CUB7        0.0000 
     34 DU        -11.7597  -11.3104   43.7432 H         6 CUB7        0.0000 
     35 DU        -12.4919  -12.2215   42.8031 H         6 CUB7        0.0000 
     36 N          -8.5353  -10.1773   49.7072 N.2       2 ALA2        0.0000 
     37 CA         -8.9996  -11.0038   50.8697 C.3       5 GLY6        0.0000 
     38 N         -10.3923  -13.4831   54.3573 N.2       2 ALA2        0.0000 
     39 CZ         -7.8748   -8.6091   45.2795 C.ar      4 PHE5        0.0000 
     40 N          -8.8033  -10.2620   47.6045 N.2       2 ALA2        0.0000 
     41 N          -9.2675  -11.0884   48.7671 N.2       2 ALA2        0.0000 
     42 DU         -9.7318  -11.9149   49.9296 H         6 CUB7        0.0000 
     43 CA        -10.1960  -12.7413   51.0921 C.3       5 GLY6        0.0000 
     44 CA        -10.6603  -13.5677   52.2546 C.3       5 GLY6        0.0000 
     45 DU        -11.1245  -14.3942   53.4172 H         6 CUB7        0.0000 
     46 CZ        -11.5887  -15.2206   54.5797 C.ar      4 PHE5        0.0000 
     47 CZ        -12.0530  -16.0471   55.7422 C.ar      4 PHE5        0.0000 
     48 O          -8.6070   -9.5202   44.3394 O.2       2 ALA2        0.0000 
     49 N          -9.0712  -10.3466   45.5019 N.2       2 ALA2        0.0000 
     50 N          -9.5355  -11.1731   46.6644 N.2       2 ALA2        0.0000 
     51 DU         -9.9997  -11.9995   47.8270 H         6 CUB7        0.0000 
     52 DU        -10.9282  -13.6524   50.1520 H         6 CUB7        0.0000 
     53 CZ        -11.3925  -14.4788   51.3146 C.ar      4 PHE5        0.0000 
     54 CZ        -11.8567  -15.3053   52.4771 C.ar      4 PHE5        0.0000 
     55 CZ        -12.7852  -16.9582   54.8021 C.ar      4 PHE5        0.0000 
     56 O          -9.3392  -10.4313   43.3993 O.2       2 ALA2        0.0000 
     57 DU         -9.8034  -11.2577   44.5618 H         6 CUB7        0.0000 
     58 CA        -10.2677  -12.0842   45.7243 C.3       5 GLY6        0.0000 
     59 DU        -10.7319  -12.9106   46.8869 H         6 CUB7        0.0000 
     60 DU        -11.1962  -13.7370   48.0494 H         6 CUB7        0.0000 
     61 DU        -11.6604  -14.5635   49.2119 H         6 CUB7        0.0000 
     62 CZ        -12.1247  -15.3899   50.3745 C.ar      4 PHE5        0.0000 
     63 DU        -10.0714  -11.3424   42.4592 H         6 CUB7        0.0000 
     64 CA        -10.5356  -12.1688   43.6217 C.3       5 GLY6        0.0000 
     65 CA        -10.9999  -12.9953   44.7842 C.3       5 GLY6        0.0000 
     66 CA        -10.8036  -12.2535   41.5191 C.3       5 GLY6        0.0000 
     67 CA        -11.2678  -13.0799   42.6816 C.3       5 GLY6        0.0000 
     68 N          -7.3113  -11.0357   49.5857 N.2       2 ALA2        0.0000 
     69 CA         -7.7755  -11.8622   50.7483 C.3       5 GLY6        0.0000 
     70 CA         -8.2397  -12.6886   51.9108 C.3       5 GLY6        0.0000 
     71 N          -9.1682  -14.3415   54.2358 N.2       2 ALA2        0.0000 
     72 N          -6.6507   -9.4675   45.1581 N.2       2 ALA2        0.0000 
     73 N          -8.0435  -11.9468   48.6456 N.2       2 ALA2        0.0000 
     74 DU         -8.5077  -12.7733   49.8082 H         6 CUB7        0.0000 
     75 DU         -8.9719  -13.5997   50.9707 H         6 CUB7        0.0000 
     76 N          -9.4362  -14.4262   52.1332 N.2       2 ALA2        0.0000 
     77 CZ         -9.9004  -15.2526   53.2957 C.ar      4 PHE5        0.0000 
     78 CZ        -10.3647  -16.0791   54.4583 C.ar      4 PHE5        0.0000 
     79 O          -7.3829  -10.3786   44.2180 O.2       2 ALA2        0.0000 
     80 N          -7.8472  -11.2050   45.3805 N.2       2 ALA2        0.0000 
     81 N          -8.3114  -12.0315   46.5430 N.2       2 ALA2        0.0000 
     82 DU         -8.7757  -12.8579   47.7055 H         6 CUB7        0.0000 
     83 DU         -9.2399  -13.6844   48.8681 H         6 CUB7        0.0000 
     84 DU         -9.7041  -14.5108   50.0306 H         6 CUB7        0.0000 
     85 DU        -10.1684  -15.3373   51.1931 H         6 CUB7        0.0000 
     86 CZ        -10.6326  -16.1637   52.3556 C.ar      4 PHE5        0.0000 
     87 CZ        -11.0969  -16.9902   53.5182 C.ar      4 PHE5        0.0000 
     88 O          -8.1151  -11.2897   43.2779 O.2       2 ALA2        0.0000 
     89 CA         -8.5794  -12.1161   44.4404 C.3       5 GLY6        0.0000 
     90 CA         -9.0436  -12.9426   45.6029 C.3       5 GLY6        0.0000 
     91 OD1        -9.5078  -13.7690   46.7654 O.3       3 ASP3        0.0000 
     92 N          -9.9721  -14.5955   47.9280 N.2       2 ALA2        0.0000 
     93 N         -10.4363  -15.4219   49.0905 N.2       2 ALA2        0.0000 
     94 CZ        -10.9006  -16.2484   50.2530 C.ar      4 PHE5        0.0000 
     95 CA         -8.8473  -12.2008   42.3378 C.3       5 GLY6        0.0000 
     96 N         -10.7043  -15.5066   46.9879 N.2       2 ALA2        0.0000 
     97 N         -11.1685  -16.3330   48.1504 N.2       2 ALA2        0.0000 
     98 CA         -9.5795  -13.1119   41.3977 C.3       5 GLY6        0.0000 
     99 N          -6.0872  -11.8942   49.4643 N.2       2 ALA2        0.0000 
    100 CA         -6.5514  -12.7206   50.6268 C.3       5 GLY6        0.0000 
    101 CA         -7.0157  -13.5470   51.7894 C.3       5 GLY6        0.0000 
    102 N          -7.4799  -14.3735   52.9519 N.2       2 ALA2        0.0000 
    103 O          -5.4266  -10.3259   45.0366 O.2       2 ALA2        0.0000 
    104 N          -5.8909  -11.1524   46.1992 N.2       2 ALA2        0.0000 
    105 N          -6.3551  -11.9788   47.3617 N.2       2 ALA2        0.0000 
    106 N          -6.8194  -12.8053   48.5242 N.2       2 ALA2        0.0000 
    107 DU         -7.2836  -13.6317   49.6867 H         6 CUB7        0.0000 
    108 DU         -7.7479  -14.4581   50.8493 H         6 CUB7        0.0000 
    109 DU         -8.2121  -15.2846   52.0118 H         6 CUB7        0.0000 
    110 CZ         -8.6763  -16.1110   53.1743 C.ar      4 PHE5        0.0000 
    111 O          -6.6231  -12.0635   45.2591 O.2       2 ALA2        0.0000 
    112 OD1        -7.0873  -12.8899   46.4216 O.3       3 ASP3        0.0000 
    113 OD1        -7.5516  -13.7163   47.5841 O.3       3 ASP3        0.0000 
    114 N          -8.0158  -14.5428   48.7466 N.2       2 ALA2        0.0000 
    115 O          -8.4801  -15.3692   49.9092 O.2       2 ALA2        0.0000 
    116 O          -8.9443  -16.1957   51.0717 O.2       2 ALA2        0.0000 
    117 N          -9.4085  -17.0221   52.2342 N.2       2 ALA2        0.0000 
    118 CZ         -9.8728  -17.8486   53.3967 C.ar      4 PHE5        0.0000 
    119 CA         -7.3553  -12.9746   44.3190 C.3       5 GLY6        0.0000 
    120 N          -8.7480  -15.4539   47.8065 N.2       2 ALA2        0.0000 
    121 O          -9.2123  -16.2803   48.9691 O.2       2 ALA2        0.0000 
    122 OG         -5.1311  -12.8372   47.2402 O.2       1 SER1        0.0000 
    123 OG         -5.5953  -13.6637   48.4028 O.2       1 SER1        0.0000 
    124 CA         -6.0595  -14.4901   49.5653 C.3       5 GLY6        0.0000 
    125 CA         -6.5238  -15.3166   50.7278 C.3       5 GLY6        0.0000 
    126 CA         -6.9880  -16.1430   51.8903 C.3       5 GLY6        0.0000 
    127 OG         -5.3990  -12.9219   45.1376 O.2       1 SER1        0.0000 
    128 OG         -5.8633  -13.7483   46.3001 O.2       1 SER1        0.0000 
    129 OG         -6.7917  -15.4012   48.6252 O.2       1 SER1        0.0000 
    130 O          -7.2560  -16.2277   49.7877 O.2       2 ALA2        0.0000 
    131 N          -7.7202  -17.0541   50.9503 N.2       2 ALA2        0.0000 
@<TRIPOS>BOND
@<TRIPOS>SUBSTRUCTURE
     1 SER1      122 GROUP   
     2 ALA2        4 GROUP   
     3 ASP3        2 GROUP   
     4 PHE5       11 GROUP   
     5 GLY6        1 GROUP   
     6 CUB7        7 GROUP   
@<TRIPOS>SET

