#    Name: 1oo6_SN2_1_ligand
#    Modification time : Mon Mar 24 20:21:03 2014

@<TRIPOS>MOLECULE
1oo6_SN2_1_ligand
   35    35     1     0     0
SMALL
NO_CHARGES


@<TRIPOS>ATOM
      1 C1        -10.2220  -13.9070   49.7410 C.ar      1 SN2219      0.0000 
      2 C2         -9.8780  -14.2990   50.9790 C.ar      1 SN2219      0.0000 
      3 C3         -8.6650  -15.1280   51.2420 C.ar      1 SN2219      0.0000 
      4 C4         -7.8510  -15.4900   50.2080 C.ar      1 SN2219      0.0000 
      5 C5         -8.2690  -15.0820   48.8320 C.ar      1 SN2219      0.0000 
      6 C6         -9.3810  -14.3540   48.5910 C.ar      1 SN2219      0.0000 
      7 C7        -11.2120  -11.7370   49.9850 C.3       1 SN2219      0.0000 
      8 C8        -12.6040  -13.9210   49.7840 C.3       1 SN2219      0.0000 
      9 C9        -12.2370  -11.2900   51.0720 C.3       1 SN2219      0.0000 
     10 C10       -13.0150  -14.7430   48.5240 C.3       1 SN2219      0.0000 
     11 C13        -8.5890  -15.6350   52.6400 C.2       1 SN2219      0.0000 
     12 O1         -6.4820  -16.6070   51.1620 O.2       1 SN2219      0.0000 
     13 O2         -9.6040  -13.0580   47.1480 O.2       1 SN2219      0.0000 
     14 O3         -5.8570  -15.7600   49.5660 O.2       1 SN2219      0.0000 
     15 O4         -9.2420  -15.0210   53.4880 O.2       1 SN2219      0.0000 
     16 O5        -10.0140  -14.8810   46.6460 O.2       1 SN2219      0.0000 
     17 N1         -6.7570  -15.9720   50.3090 N.pl3     1 SN2219      0.0000 
     18 N2         -9.6890  -14.1050   47.4740 N.pl3     1 SN2219      0.0000 
     19 N3        -11.3360  -13.1630   49.5550 N.4       1 SN2219      0.0000 
     20 N4         -8.4840  -17.0000   52.7490 N.am      1 SN2219      0.0000 
     21 CL1       -11.9380  -16.1310   48.2600 Cl        1 SN2219      0.0000 
     22 CL2       -12.1650  -11.9540   52.7180 Cl        1 SN2219      0.0000 
     23 H         -10.4314  -14.0504   51.8199 H         1 SN2219      0.0000 
     24 H          -7.6384  -15.4008   48.0695 H         1 SN2219      0.0000 
     25 H         -10.1977  -11.5473   50.3848 H         1 SN2219      0.0000 
     26 H         -11.3350  -11.0653   49.1142 H         1 SN2219      0.0000 
     27 H         -12.4873  -14.6183   50.6165 H         1 SN2219      0.0000 
     28 H         -13.4215  -13.2360   50.0194 H         1 SN2219      0.0000 
     29 H         -13.2779  -11.5095   50.7582 H         1 SN2219      0.0000 
     30 H         -12.1924  -10.1948   51.2411 H         1 SN2219      0.0000 
     31 H         -12.9243  -14.1768   47.6242 H         1 SN2219      0.0000 
     32 H         -13.9798  -15.1866   48.6273 H         1 SN2219      0.0000 
     33 H         -11.3678  -13.0332   48.3277 H         1 SN2219      0.0000 
     34 H          -8.4801  -17.5110   51.8895 H         1 SN2219      0.0000 
     35 H          -8.4207  -17.3636   53.6784 H         1 SN2219      0.0000 
@<TRIPOS>BOND
     1    2    1 ar   
     2    6    1 ar   
     3   19    1 1    
     4    3    2 ar   
     5   23    2 1    
     6    4    3 ar   
     7   11    3 1    
     8    5    4 ar   
     9   17    4 1    
    10    6    5 ar   
    11   24    5 1    
    12   18    6 1    
    13    9    7 1    
    14   19    7 1    
    15   25    7 1    
    16   26    7 1    
    17   10    8 1    
    18   19    8 1    
    19   27    8 1    
    20   28    8 1    
    21   22    9 1    
    22   29    9 1    
    23   30    9 1    
    24   21   10 1    
    25   31   10 1    
    26   32   10 1    
    27   15   11 2    
    28   20   11 am   
    29   17   12 2    
    30   18   13 2    
    31   17   14 2    
    32   18   16 2    
    33   33   19 1    
    34   34   20 1    
    35   35   20 1    
@<TRIPOS>SUBSTRUCTURE
     1 SN2219      1 GROUP   
@<TRIPOS>SET

