#    Name: 4bcf_T6Q_1_INTS_M
#    Modification time : Tue Mar 25 07:31:11 2014

@<TRIPOS>MOLECULE
4bcf_T6Q_1_INTS_M
   68     0     9     0     0
SMALL
NO_CHARGES


@<TRIPOS>ATOM
      1 CA         49.2695  -21.0695  -11.6270 C.3       3 GLC5        0.0000 
      2 CA         49.0660  -19.3240  -10.4380 C.3       9 GLL5        0.0000 
      3 CA         49.4730  -22.8150  -12.8160 C.3       6 GLP5        0.0000 
      4 CA         48.2135  -18.4810   -9.5215 C.3       3 GLC5        0.0000 
      5 CA         47.3610  -17.6380   -8.6050 C.3       6 GLP5        0.0000 
      6 CA         52.2880  -14.3120  -15.1635 C.3       3 GLC5        0.0000 
      7 CA         50.7040  -15.3590  -14.1970 C.3       9 GLL5        0.0000 
      8 CA         53.8720  -13.2650  -16.1300 C.3       6 GLP5        0.0000 
      9 CA         49.3500  -15.6800  -15.8190 C.3       3 GLC5        0.0000 
     10 CA         47.9960  -16.0010  -17.4410 C.3       6 GLP5        0.0000 
     11 CA         50.0965  -13.5735  -14.7470 C.3       3 GLC5        0.0000 
     12 CA         49.4890  -11.7880  -15.2970 C.3       6 GLP5        0.0000 
     13 CA         56.5905  -13.4295  -11.0310 C.3       3 GLC5        0.0000 
     14 CA         55.8300  -14.9830  -12.2790 C.3       9 GLL5        0.0000 
     15 CA         57.3510  -11.8760   -9.7830 C.3       6 GLP5        0.0000 
     16 CA         55.0060  -14.4735  -10.7910 C.3       3 GLC5        0.0000 
     17 CA         54.1820  -13.9640   -9.3030 C.3       6 GLP5        0.0000 
     18 O          58.1480  -14.6470  -11.8050 O.2       1 ALC1        0.0000 
     19 O          57.1780  -15.5320  -12.2220 O.2       7 ALL1        0.0000 
     20 O          59.1180  -13.7620  -11.3880 O.2       4 ALP1        0.0000 
     21 CA         59.9945  -16.3990   -9.7725 C.3       3 GLC5        0.0000 
     22 CA         58.8440  -17.1350  -11.5460 C.3       9 GLL5        0.0000 
     23 CA         61.1450  -15.6630   -7.9990 C.3       6 GLP5        0.0000 
     24 CA         56.8680  -20.5760   -8.6425 C.3       3 GLC5        0.0000 
     25 CA         56.0040  -22.4210   -9.5580 C.3       9 GLL5        0.0000 
     26 CA         57.7320  -18.7310   -7.7270 C.3       6 GLP5        0.0000 
     27 CA         51.6145  -24.5620  -11.2370 C.3       3 GLC5        0.0000 
     28 CA         52.4940  -24.1030   -9.7940 C.3       9 GLL5        0.0000 
     29 CA         50.7350  -25.0210  -12.6800 C.3       6 GLP5        0.0000 
     30 CA         52.8285  -23.4225   -7.8075 C.3       3 GLC5        0.0000 
     31 CA         53.1630  -22.7420   -5.8210 C.3       6 GLP5        0.0000 
     32 CA         53.5000  -22.8665  -12.4340 C.3       3 GLC5        0.0000 
     33 CA         53.9960  -21.8580  -11.1380 C.3       9 GLL5        0.0000 
     34 CA         53.0040  -23.8750  -13.7300 C.3       6 GLP5        0.0000 
     35 CA         53.2445  -21.8430  -12.6160 C.3       3 GLC5        0.0000 
     36 CA         54.6240  -20.5910  -11.6860 C.3       9 GLL5        0.0000 
     37 CA         51.8650  -23.0950  -13.5460 C.3       6 GLP5        0.0000 
     38 N          56.7050  -12.4995  -12.2645 N.am      2 SEC2        0.0000 
     39 N          55.7070  -13.6290  -12.3370 N.am      8 SEL2        0.0000 
     40 N          57.7030  -11.3700  -12.1920 N.am      5 SEP2        0.0000 
     41 CA         55.7770  -11.6310  -13.3225 C.3       3 GLC5        0.0000 
     42 CA         54.4320  -13.0720  -12.3910 C.3       9 GLL5        0.0000 
     43 CA         57.1220  -10.1900  -14.2540 C.3       6 GLP5        0.0000 
     44 CA         55.8915  -12.4740  -11.0870 C.3       3 GLC5        0.0000 
     45 CA         52.9035  -13.2710  -14.2675 C.3       3 GLC5        0.0000 
     46 CA         51.9350  -13.2770  -12.4050 C.3       9 GLL5        0.0000 
     47 CA         50.9100  -12.0275  -13.4190 C.3       3 GLC5        0.0000 
     48 CA         49.8850  -10.7780  -14.4330 C.3       6 GLP5        0.0000 
     49 CA         52.1681  -16.8370  -14.7086 C.3       3 GLC5        0.0000 
     50 CA         51.1630  -16.3110  -13.0980 C.3       9 GLL5        0.0000 
     51 CA         52.6970  -17.6670  -16.4230 C.3       6 GLP5        0.0000 
     52 CA         53.5367  -14.8475  -10.8205 C.3       3 GLC5        0.0000 
     53 CA         52.3450  -16.1790  -12.3410 C.3       9 GLL5        0.0000 
     54 CA         56.8287  -17.4883  -13.9672 C.3       3 GLC5        0.0000 
     55 CA         57.4890  -16.9070  -11.8550 C.3       9 GLL5        0.0000 
     56 CA         56.6490  -17.5370  -16.0990 C.3       6 GLP5        0.0000 
     57 CA         56.1067  -16.6988  -10.0158 C.3       3 GLC5        0.0000 
     58 CA         56.5280  -17.9720  -11.8160 C.3       9 GLL5        0.0000 
     59 CA         55.2050  -15.9580   -8.1960 C.3       6 GLP5        0.0000 
     60 CA         58.3907  -18.2523   -9.5478 C.3       3 GLC5        0.0000 
     61 CA         57.4034  -18.6994   -9.6420 C.3       3 GLC5        0.0000 
     62 CA         58.2940  -19.4680  -11.1510 C.3       9 GLL5        0.0000 
     63 CA         53.8834  -13.5467  -14.2540 C.3       3 GLC5        0.0000 
     64 CA         53.4380  -15.2830  -12.3350 C.3       9 GLL5        0.0000 
     65 CA         52.0455  -12.0380  -11.2675 C.3       3 GLC5        0.0000 
     66 CA         53.2770  -13.8870  -12.3950 C.3       9 GLL5        0.0000 
     67 CA         51.4850  -10.4940  -10.1350 C.3       6 GLP5        0.0000 
     68 CA         53.5384  -13.6711  -10.8510 C.3       3 GLC5        0.0000 
@<TRIPOS>BOND
@<TRIPOS>SUBSTRUCTURE
     1 ALC1       18 GROUP        1 X    ALC  0     ROOT ALC X 1
     2 SEC2       38 GROUP        1 X    SEC  0     **** SEC X 2
     3 GLC5        1 GROUP        1 X    GLC  0     **** GLC X 6
     4 ALP1       20 GROUP        1 Y    ALP  0     ROOT ALP Y 8
     5 SEP2       40 GROUP        1 Y    SEP  0     **** SEP Y 9
     6 GLP5        3 GROUP        1 Y    GLP  0     **** GLP Y 13
     7 ALL1       19 GROUP        1 Z    ALL  0     ROOT ALL Z 15
     8 SEL2       39 GROUP        1 Z    SEL  0     **** SEL Z 16
     9 GLL5        2 GROUP        1 Z    GLL  0     **** GLL Z 20
@<TRIPOS>SET

