#    Name: 4bcf_T6Q_1_ligand
#    Modification time : Tue Mar 25 07:31:11 2014

@<TRIPOS>MOLECULE
4bcf_T6Q_1_ligand
   59    62     1     0     0
SMALL
NO_CHARGES


@<TRIPOS>ATOM
      1 C01        49.0660  -19.3240  -10.4380 C.3       1 T6Q1327     0.0000 
      2 N02        50.1740  -19.3740  -11.3640 N.pl3     1 T6Q1327     0.0000 
      3 C03        50.7870  -18.2040  -11.8460 C.2       1 T6Q1327     0.0000 
      4 N04        50.3660  -17.3680  -12.7950 N.2       1 T6Q1327     0.0000 
      5 C05        51.1630  -16.3110  -13.0980 C.2       1 T6Q1327     0.0000 
      6 C06        50.7040  -15.3590  -14.1970 C.3       1 T6Q1327     0.0000 
      7 C07        52.3450  -16.1790  -12.3410 C.2       1 T6Q1327     0.0000 
      8 C08        53.4380  -15.2830  -12.3350 C.ar      1 T6Q1327     0.0000 
      9 N09        54.7170  -15.8110  -12.2700 N.ar      1 T6Q1327     0.0000 
     10 C10        55.8300  -14.9830  -12.2790 C.ar      1 T6Q1327     0.0000 
     11 N11        57.1780  -15.5320  -12.2220 N.pl3     1 T6Q1327     0.0000 
     12 C12        57.4890  -16.9070  -11.8550 C.ar      1 T6Q1327     0.0000 
     13 C13        58.8440  -17.1350  -11.5460 C.ar      1 T6Q1327     0.0000 
     14 C14        59.2550  -18.4120  -11.1910 C.ar      1 T6Q1327     0.0000 
     15 C15        58.2940  -19.4680  -11.1510 C.ar      1 T6Q1327     0.0000 
     16 C16        56.9490  -19.2590  -11.4450 C.ar      1 T6Q1327     0.0000 
     17 N17        56.0180  -20.4020  -11.3660 N.3       1 T6Q1327     0.0000 
     18 C18        56.8300  -21.5310  -11.7140 C.3       1 T6Q1327     0.0000 
     19 C19        57.1170  -22.4160  -10.5550 C.3       1 T6Q1327     0.0000 
     20 C20        56.0040  -22.4210   -9.5580 C.3       1 T6Q1327     0.0000 
     21 N21        54.6740  -22.6090  -10.0820 N.am      1 T6Q1327     0.0000 
     22 C22        53.9190  -23.7130   -9.4310 C.2       1 T6Q1327     0.0000 
     23 C23        52.4940  -24.1030   -9.7940 C.3       1 T6Q1327     0.0000 
     24 O24        54.4420  -24.3750   -8.5320 O.2       1 T6Q1327     0.0000 
     25 C25        53.9960  -21.8580  -11.1380 C.3       1 T6Q1327     0.0000 
     26 C26        54.6240  -20.5910  -11.6860 C.3       1 T6Q1327     0.0000 
     27 C27        56.5280  -17.9720  -11.8160 C.ar      1 T6Q1327     0.0000 
     28 N28        55.7070  -13.6290  -12.3370 N.ar      1 T6Q1327     0.0000 
     29 C29        54.4320  -13.0720  -12.3910 C.ar      1 T6Q1327     0.0000 
     30 C30        53.2770  -13.8870  -12.3950 C.ar      1 T6Q1327     0.0000 
     31 C31        51.9350  -13.2770  -12.4050 C.1       1 T6Q1327     0.0000 
     32 N32        50.8740  -12.7960  -12.4410 N.1       1 T6Q1327     0.0000 
     33 S33        52.2960  -17.5530  -11.3700 S.3       1 T6Q1327     0.0000 
     34 H          50.5110  -20.2973  -11.6685 H         1 T6Q1327     0.0000 
     35 H          57.9686  -14.9024  -12.4583 H         1 T6Q1327     0.0000 
     36 H          59.5102  -16.3620  -11.5855 H         1 T6Q1327     0.0000 
     37 H          60.2248  -18.6125  -10.9588 H         1 T6Q1327     0.0000 
     38 H          58.6241  -20.4171  -10.8926 H         1 T6Q1327     0.0000 
     39 H          57.7975  -21.1972  -12.1510 H         1 T6Q1327     0.0000 
     40 H          56.3381  -22.1370  -12.5072 H         1 T6Q1327     0.0000 
     41 H          58.0464  -22.0869  -10.0604 H         1 T6Q1327     0.0000 
     42 H          57.2908  -23.4456  -10.9107 H         1 T6Q1327     0.0000 
     43 H          56.0559  -21.4586   -8.9748 H         1 T6Q1327     0.0000 
     44 H          56.2305  -23.2122   -8.7887 H         1 T6Q1327     0.0000 
     45 H          52.9438  -21.5929  -10.7960 H         1 T6Q1327     0.0000 
     46 H          53.7973  -22.5462  -12.0219 H         1 T6Q1327     0.0000 
     47 H          54.4728  -20.5907  -12.7955 H         1 T6Q1327     0.0000 
     48 H          54.0163  -19.7255  -11.3180 H         1 T6Q1327     0.0000 
     49 H          55.5625  -17.7835  -12.0553 H         1 T6Q1327     0.0000 
     50 H          54.3184  -12.0465  -12.4290 H         1 T6Q1327     0.0000 
     51 H          49.3154  -18.8658   -9.5849 H         1 T6Q1327     0.0000 
     52 H          48.2854  -18.8288  -10.8193 H         1 T6Q1327     0.0000 
     53 H          48.7429  -20.2388  -10.1958 H         1 T6Q1327     0.0000 
     54 H          51.3602  -14.6192  -14.3455 H         1 T6Q1327     0.0000 
     55 H          50.5897  -15.8294  -15.0720 H         1 T6Q1327     0.0000 
     56 H          49.8267  -14.9327  -13.9766 H         1 T6Q1327     0.0000 
     57 H          52.4162  -24.3745  -10.7533 H         1 T6Q1327     0.0000 
     58 H          52.1680  -24.8721   -9.2443 H         1 T6Q1327     0.0000 
     59 H          51.8542  -23.3480   -9.6503 H         1 T6Q1327     0.0000 
@<TRIPOS>BOND
     1    2    1 1    
     2   51    1 1    
     3   52    1 1    
     4   53    1 1    
     5    3    2 1    
     6   34    2 1    
     7    4    3 2    
     8   33    3 1    
     9    5    4 1    
    10    6    5 1    
    11    7    5 2    
    12   54    6 1    
    13   55    6 1    
    14   56    6 1    
    15    8    7 1    
    16   33    7 1    
    17    9    8 ar   
    18   30    8 ar   
    19   10    9 ar   
    20   11   10 1    
    21   28   10 ar   
    22   12   11 1    
    23   35   11 1    
    24   13   12 ar   
    25   27   12 ar   
    26   14   13 ar   
    27   36   13 1    
    28   15   14 ar   
    29   37   14 1    
    30   16   15 ar   
    31   38   15 1    
    32   17   16 1    
    33   27   16 ar   
    34   18   17 1    
    35   26   17 1    
    36   19   18 1    
    37   39   18 1    
    38   40   18 1    
    39   20   19 1    
    40   41   19 1    
    41   42   19 1    
    42   21   20 1    
    43   43   20 1    
    44   44   20 1    
    45   22   21 am   
    46   25   21 1    
    47   23   22 1    
    48   24   22 2    
    49   57   23 1    
    50   58   23 1    
    51   59   23 1    
    52   26   25 1    
    53   45   25 1    
    54   46   25 1    
    55   47   26 1    
    56   48   26 1    
    57   49   27 1    
    58   29   28 ar   
    59   30   29 ar   
    60   50   29 1    
    61   31   30 1    
    62   32   31 3    
@<TRIPOS>SUBSTRUCTURE
     1 T6Q1327     1 GROUP   
@<TRIPOS>SET

