#    Name: 1k3u_IAD_1_INTS_M
#    Modification time : Tue Mar 25 09:37:52 2014

@<TRIPOS>MOLECULE
1k3u_IAD_1_INTS_M
   66     0     9     0     0
SMALL
NO_CHARGES


@<TRIPOS>ATOM
      1 N          45.2960   26.9970    9.3775 N.am      2 SEC2        0.0000 
      2 N          45.2230   28.2880    9.3080 N.am      8 SEL2        0.0000 
      3 N          45.3690   25.7060    9.4470 N.am      5 SEP2        0.0000 
      4 N          44.6355   28.6645    8.1070 N.am      2 SEC2        0.0000 
      5 N          44.0480   29.0410    6.9060 N.am      5 SEP2        0.0000 
      6 N          46.0480   31.0690   10.9590 N.am      2 SEC2        0.0000 
      7 N          46.1510   30.3310    9.8700 N.am      8 SEL2        0.0000 
      8 N          45.9450   31.8070   12.0480 N.am      5 SEP2        0.0000 
      9 N          47.3560   31.3725   10.3165 N.am      2 SEC2        0.0000 
     10 N          48.5610   32.4140   10.7630 N.am      5 SEP2        0.0000 
     11 CA         44.8675   26.8160   11.2305 C.3       3 GLC5        0.0000 
     12 CA         46.2030   28.5530   11.5690 C.3       9 GLL5        0.0000 
     13 CA         43.5320   25.0790   10.8920 C.3       6 GLP5        0.0000 
     14 CA         46.3365   27.1375    9.9850 C.3       3 GLC5        0.0000 
     15 CA         46.4700   25.7220    8.4010 C.3       6 GLP5        0.0000 
     16 CA         45.0755   28.5670   13.2030 C.3       3 GLC5        0.0000 
     17 CA         43.9480   28.5810   14.8370 C.3       6 GLP5        0.0000 
     18 CA         44.8875   30.0465   11.6785 C.3       3 GLC5        0.0000 
     19 CA         43.5720   31.5400   11.7880 C.3       6 GLP5        0.0000 
     20 CA         46.6530   30.4485   12.1395 C.3       3 GLC5        0.0000 
     21 CA         47.1030   32.3440   12.7100 C.3       6 GLP5        0.0000 
     22 CA         49.6230   27.2410   11.6885 C.3       3 GLC5        0.0000 
     23 CA         47.6410   27.9310   11.5210 C.3       9 GLL5        0.0000 
     24 CA         51.6050   26.5510   11.8560 C.3       6 GLP5        0.0000 
     25 CA         47.9130   26.0795   10.9065 C.3       3 GLC5        0.0000 
     26 CA         48.1850   24.2280   10.2920 C.3       6 GLP5        0.0000 
     27 N          48.9010   31.0375   10.7595 N.am      2 SEC2        0.0000 
     28 N          49.2410   29.6610   10.7560 N.am      8 SEL2        0.0000 
     29 N          49.9890   30.4315   10.0690 N.am      2 SEC2        0.0000 
     30 N          50.7370   31.2020    9.3820 N.am      5 SEP2        0.0000 
     31 N          49.7730   28.1755    8.4370 N.am      2 SEC2        0.0000 
     32 N          48.5620   28.0390    9.2970 N.am      8 SEL2        0.0000 
     33 N          50.9840   28.3120    7.5770 N.am      5 SEP2        0.0000 
     34 N          47.4880   27.7560    8.0055 N.am      2 SEC2        0.0000 
     35 N          46.4140   27.4730    6.7140 N.am      5 SEP2        0.0000 
     36 CA         48.8100   29.3050   16.4400 C.3       3 GLC5        0.0000 
     37 CA         48.6350   28.0620   15.2670 C.3       9 GLL5        0.0000 
     38 CA         48.9850   30.5480   17.6130 C.3       6 GLP5        0.0000 
     39 O          53.8880   27.1575   15.0300 O.2       1 ALC1        0.0000 
     40 O          52.2180   27.0150   15.1780 O.2       7 ALL1        0.0000 
     41 O          55.5580   27.3000   14.8820 O.2       4 ALP1        0.0000 
     42 CA         51.4200   25.9715   16.8050 C.3       3 GLC5        0.0000 
     43 CA         51.5910   25.7880   15.0160 C.3       9 GLL5        0.0000 
     44 CA         51.2490   26.1550   18.5940 C.3       6 GLP5        0.0000 
     45 CA         48.6245   22.8825   16.4770 C.3       3 GLC5        0.0000 
     46 CA         49.8650   23.6370   14.8290 C.3       9 GLL5        0.0000 
     47 CA         47.3840   22.1280   18.1250 C.3       6 GLP5        0.0000 
     48 CA         51.2443   29.2203   14.0932 C.3       3 GLC5        0.0000 
     49 CA         50.0020   27.3790   15.1760 C.3       9 GLL5        0.0000 
     50 CA         51.8600   30.7440   12.9490 C.3       6 GLP5        0.0000 
     51 CA         50.9387   26.9258   16.9158 C.3       3 GLC5        0.0000 
     52 CA         51.2550   28.0140   15.2990 C.3       9 GLL5        0.0000 
     53 CA         51.1167   27.1238   13.5467 C.3       3 GLC5        0.0000 
     54 CA         50.6867   26.0003   13.4307 C.3       3 GLC5        0.0000 
     55 CA         50.2100   25.9880   15.0420 C.3       9 GLL5        0.0000 
     56 CA         53.4700   23.1750   14.0888 C.3       3 GLC5        0.0000 
     57 CA         52.1030   24.4930   14.8910 C.3       9 GLL5        0.0000 
     58 CA         55.2710   22.3930   13.3340 C.3       6 GLP5        0.0000 
     59 CA         52.7615   22.8825   16.1242 C.3       3 GLC5        0.0000 
     60 CA         53.8540   21.8080   17.4050 C.3       6 GLP5        0.0000 
     61 CA         49.9500   21.6855   14.8768 C.3       3 GLC5        0.0000 
     62 CA         51.2350   23.4210   14.7960 C.3       9 GLL5        0.0000 
     63 CA         49.3500   19.8420   14.9410 C.3       6 GLP5        0.0000 
     64 CA         51.5730   25.4159   13.3654 C.3       3 GLC5        0.0000 
     65 CA         50.7219   24.5316   16.6862 C.3       3 GLC5        0.0000 
     66 CA         50.7010   24.8130   18.4920 C.3       6 GLP5        0.0000 
@<TRIPOS>BOND
@<TRIPOS>SUBSTRUCTURE
     1 ALC1       39 GROUP        1 X    ALC  0     ROOT ALC X 1
     2 SEC2        1 GROUP        1 X    SEC  0     **** SEC X 2
     3 GLC5       11 GROUP        1 X    GLC  0     **** GLC X 6
     4 ALP1       41 GROUP        1 Y    ALP  0     ROOT ALP Y 8
     5 SEP2        3 GROUP        1 Y    SEP  0     **** SEP Y 9
     6 GLP5       13 GROUP        1 Y    GLP  0     **** GLP Y 13
     7 ALL1       40 GROUP        1 Z    ALL  0     ROOT ALL Z 15
     8 SEL2        2 GROUP        1 Z    SEL  0     **** SEL Z 16
     9 GLL5       12 GROUP        1 Z    GLL  0     **** GLL Z 20
@<TRIPOS>SET

