#    Name: 1k3u_IAD_1_ligand
#    Modification time : Tue Mar 25 09:37:52 2014

@<TRIPOS>MOLECULE
1k3u_IAD_1_ligand
   33    34     1     0     0
SMALL
NO_CHARGES


@<TRIPOS>ATOM
      1 OD2        45.2230   28.2880    9.3080 O.co2     1 IAD801      0.0000 
      2 CG         45.8570   29.0940   10.1670 C.2       1 IAD801      0.0000 
      3 OD1        46.1510   30.3310    9.8700 O.co2     1 IAD801      0.0000 
      4 CB         46.2030   28.5530   11.5690 C.3       1 IAD801      0.0000 
      5 CA         47.6410   27.9310   11.5210 C.3       1 IAD801      0.0000 
      6 C          48.5050   28.5790   10.4430 C.2       1 IAD801      0.0000 
      7 O          49.2410   29.6610   10.7560 O.co2     1 IAD801      0.0000 
      8 O1         48.5620   28.0390    9.2970 O.co2     1 IAD801      0.0000 
      9 N          48.3210   28.1780   12.7980 N.am      1 IAD801      0.0000 
     10 C11        47.8190   27.7160   14.0250 C.2       1 IAD801      0.0000 
     11 O11        46.8190   27.0240   14.0880 O.2       1 IAD801      0.0000 
     12 C10        48.6350   28.0620   15.2670 C.3       1 IAD801      0.0000 
     13 C3         50.0020   27.3790   15.1760 C.2       1 IAD801      0.0000 
     14 C2         51.2550   28.0140   15.2990 C.2       1 IAD801      0.0000 
     15 N1         52.2180   27.0150   15.1780 N.pl3     1 IAD801      0.0000 
     16 C9         50.2100   25.9880   15.0420 C.ar      1 IAD801      0.0000 
     17 C4         49.3270   24.9110   14.9690 C.ar      1 IAD801      0.0000 
     18 C8         51.5910   25.7880   15.0160 C.ar      1 IAD801      0.0000 
     19 C7         52.1030   24.4930   14.8910 C.ar      1 IAD801      0.0000 
     20 C6         51.2350   23.4210   14.7960 C.ar      1 IAD801      0.0000 
     21 C5         49.8650   23.6370   14.8290 C.ar      1 IAD801      0.0000 
     22 H          45.5048   27.7860   11.8443 H         1 IAD801      0.0000 
     23 H          46.1990   29.3573   12.2793 H         1 IAD801      0.0000 
     24 H          47.5615   26.8894   11.3336 H         1 IAD801      0.0000 
     25 H          49.2022   28.7157   12.7647 H         1 IAD801      0.0000 
     26 H          48.1173   27.7102   16.1491 H         1 IAD801      0.0000 
     27 H          48.7733   29.1333   15.3217 H         1 IAD801      0.0000 
     28 H          51.3998   28.9254   15.4347 H         1 IAD801      0.0000 
     29 H          53.1634   27.1560   15.2031 H         1 IAD801      0.0000 
     30 H          48.3253   25.0549   15.0167 H         1 IAD801      0.0000 
     31 H          53.1180   24.3463   14.8706 H         1 IAD801      0.0000 
     32 H          51.6022   22.4644   14.7010 H         1 IAD801      0.0000 
     33 H          49.2207   22.8226   14.7467 H         1 IAD801      0.0000 
@<TRIPOS>BOND
     1    2    1 ar   
     2    3    2 ar   
     3    4    2 1    
     4    5    4 1    
     5   22    4 1    
     6   23    4 1    
     7    6    5 1    
     8    9    5 1    
     9   24    5 1    
    10    7    6 ar   
    11    8    6 ar   
    12   10    9 am   
    13   25    9 1    
    14   11   10 2    
    15   12   10 1    
    16   13   12 1    
    17   26   12 1    
    18   27   12 1    
    19   14   13 2    
    20   16   13 1    
    21   15   14 1    
    22   28   14 1    
    23   18   15 1    
    24   29   15 1    
    25   17   16 ar   
    26   18   16 ar   
    27   21   17 ar   
    28   30   17 1    
    29   19   18 ar   
    30   20   19 ar   
    31   31   19 1    
    32   21   20 ar   
    33   32   20 1    
    34   33   21 1    
@<TRIPOS>SUBSTRUCTURE
     1 IAD801      1 GROUP   
@<TRIPOS>SET

