#    Name: 1f8g_NAD_1_INTS_M
#    Modification time : Tue Mar 25 00:57:43 2014

@<TRIPOS>MOLECULE
1f8g_NAD_1_INTS_M
   66     0     9     0     0
SMALL
NO_CHARGES


@<TRIPOS>ATOM
      1 CA          6.4790   -9.5365    8.2460 C.3       3 GLC5        0.0000 
      2 CA          5.0210   -8.4130    9.0340 C.3       9 GLL5        0.0000 
      3 CA          7.9370  -10.6600    7.4580 C.3       6 GLP5        0.0000 
      4 N           4.2280   -9.7015   12.6645 N.am      2 SEC2        0.0000 
      5 N           4.3610   -9.6920   11.0410 N.am      8 SEL2        0.0000 
      6 N           4.0950   -9.7110   14.2880 N.am      5 SEP2        0.0000 
      7 N           3.6970  -10.4125   11.9410 N.am      2 SEC2        0.0000 
      8 N           3.0330  -11.1330   12.8410 N.am      5 SEP2        0.0000 
      9 O           5.5760  -10.4310   10.9725 O.2       1 ALC1        0.0000 
     10 O           4.3610   -9.6920   11.0410 O.2       7 ALL1        0.0000 
     11 O           6.7910  -11.1700   10.9040 O.2       4 ALP1        0.0000 
     12 N           5.0660   -9.0100   13.4010 N.am      2 SEC2        0.0000 
     13 N           6.0370   -8.3090   12.5140 N.am      8 SEL2        0.0000 
     14 O           6.4140   -9.7395   11.7090 O.2       1 ALC1        0.0000 
     15 O           6.0370   -8.3090   12.5140 O.2       7 ALL1        0.0000 
     16 O           6.9345   -9.3450   12.5760 O.2       1 ALC1        0.0000 
     17 O           7.8320  -10.3810   12.6380 O.2       4 ALP1        0.0000 
     18 CA          7.4155   -9.2890    8.8655 C.3       3 GLC5        0.0000 
     19 CA          6.8940   -7.9180   10.2730 C.3       9 GLL5        0.0000 
     20 CA          7.9285   -7.0975    8.6630 C.3       3 GLC5        0.0000 
     21 CA          8.9630   -6.2770    7.0530 C.3       6 GLP5        0.0000 
     22 CA         12.8140   -6.3890    9.0580 C.3       3 GLC5        0.0000 
     23 CA         11.5310   -6.5040   10.4660 C.3       9 GLL5        0.0000 
     24 CA         14.0970   -6.2740    7.6500 C.3       6 GLP5        0.0000 
     25 N          13.3215   -8.3870   10.4675 N.am      2 SEC2        0.0000 
     26 N          12.0100   -7.7140   10.1160 N.am      8 SEL2        0.0000 
     27 N          14.6330   -9.0600   10.8190 N.am      5 SEP2        0.0000 
     28 CA          9.5210   -9.6900    8.6630 C.3       3 GLC5        0.0000 
     29 CA         11.1050   -8.7200    9.8680 C.3       9 GLL5        0.0000 
     30 CA         10.6195  -10.3710   10.6620 C.3       3 GLC5        0.0000 
     31 CA         10.1340  -12.0220   11.4560 C.3       6 GLP5        0.0000 
     32 CA         11.5125   -8.2840   11.7290 C.3       3 GLC5        0.0000 
     33 CA         11.9200   -7.8480   13.5900 C.3       6 GLP5        0.0000 
     34 CA         10.0340   -7.4985    8.4605 C.3       3 GLC5        0.0000 
     35 CA         11.7030   -7.9705    8.0605 C.3       3 GLC5        0.0000 
     36 CA         12.3010   -7.2210    6.2530 C.3       6 GLP5        0.0000 
     37 CA          9.4615   -7.5650   12.3305 C.3       3 GLC5        0.0000 
     38 CA          9.3610   -7.4600   10.2950 C.3       9 GLL5        0.0000 
     39 CA          9.5620   -7.6700   14.3660 C.3       6 GLP5        0.0000 
     40 N          -0.0095   -9.8890    7.8050 N.am      2 SEC2        0.0000 
     41 N          -0.1380   -8.5050    8.0760 N.am      8 SEL2        0.0000 
     42 N           0.1190  -11.2730    7.5340 N.am      5 SEP2        0.0000 
     43 CA         -0.4270   -8.4725   14.9120 C.3       3 GLC5        0.0000 
     44 CA         -0.3600   -9.3930   12.8640 C.3       9 GLL5        0.0000 
     45 CA         -0.4940   -7.5520   16.9600 C.3       6 GLP5        0.0000 
     46 CA         -2.4065  -10.6495    9.8635 C.3       3 GLC5        0.0000 
     47 CA         -2.1170  -10.4980   11.7310 C.3       9 GLL5        0.0000 
     48 CA         -2.6960  -10.8010    7.9960 C.3       6 GLP5        0.0000 
     49 CA          6.1007   -7.0627    7.4473 C.3       3 GLC5        0.0000 
     50 CA          7.6130   -6.1070    6.3510 C.3       6 GLP5        0.0000 
     51 CA          3.4129   -9.6876    9.1396 C.3       3 GLC5        0.0000 
     52 CA          4.1560   -7.6240    8.0530 C.3       9 GLL5        0.0000 
     53 CA          2.2410  -11.1710    8.7560 C.3       6 GLP5        0.0000 
     54 CA          6.4298   -6.9388   12.4620 C.3       3 GLC5        0.0000 
     55 CA          5.7430   -7.7350   11.2470 C.3       9 GLL5        0.0000 
     56 CA          6.5410   -6.0510   14.1640 C.3       6 GLP5        0.0000 
     57 CA         11.3760   -7.1390   12.0537 C.3       3 GLC5        0.0000 
     58 CA         10.1330   -6.3560   10.5690 C.3       9 GLL5        0.0000 
     59 CA         10.8710   -4.8090    9.2977 C.3       3 GLC5        0.0000 
     60 CA         10.9100   -3.1880    8.0780 C.3       6 GLP5        0.0000 
     61 CA          9.5297   -6.6110    8.7296 C.3       3 GLC5        0.0000 
     62 CA         -5.4127   -5.8985   12.5697 C.3       3 GLC5        0.0000 
     63 CA         -4.6310   -7.1770   10.9680 C.3       9 GLL5        0.0000 
     64 CA         -5.5490   -4.6070   13.8840 C.3       6 GLP5        0.0000 
     65 CA         -5.5488   -6.5660   13.3665 C.3       3 GLC5        0.0000 
     66 CA         -6.0320   -8.1140   12.5960 C.3       9 GLL5        0.0000 
@<TRIPOS>BOND
@<TRIPOS>SUBSTRUCTURE
     1 ALC1        9 GROUP        1 X    ALC  0     ROOT ALC X 1
     2 SEC2        4 GROUP        1 X    SEC  0     **** SEC X 2
     3 GLC5        1 GROUP        1 X    GLC  0     **** GLC X 6
     4 ALP1       11 GROUP        1 Y    ALP  0     ROOT ALP Y 8
     5 SEP2        6 GROUP        1 Y    SEP  0     **** SEP Y 9
     6 GLP5        3 GROUP        1 Y    GLP  0     **** GLP Y 13
     7 ALL1       10 GROUP        1 Z    ALL  0     ROOT ALL Z 15
     8 SEL2        5 GROUP        1 Z    SEL  0     **** SEL Z 16
     9 GLL5        2 GROUP        1 Z    GLL  0     **** GLL Z 20
@<TRIPOS>SET

