#    Name: 1f8g_NAD_1_ligand
#    Modification time : Tue Mar 25 00:57:43 2014

@<TRIPOS>MOLECULE
1f8g_NAD_1_ligand
   70    74     1     0     0
SMALL
NO_CHARGES


@<TRIPOS>ATOM
      1 PA          2.2090   -5.9350    8.7300 P.3       1 NAD2500     0.0000 
      2 O1A         1.6850   -5.7770    7.3500 O.co2     1 NAD2500     0.0000 
      3 O2A         2.1380   -4.6340    9.4090 O.co2     1 NAD2500     0.0000 
      4 O5B         3.7410   -6.4020    8.7530 O.3       1 NAD2500     0.0000 
      5 C5B         4.1560   -7.6240    8.0530 C.3       1 NAD2500     0.0000 
      6 C4B         5.0210   -8.4130    9.0340 C.3       1 NAD2500     0.0000 
      7 O4B         6.3230   -7.7100    9.0000 O.3       1 NAD2500     0.0000 
      8 C3B         4.5810   -8.3900   10.5030 C.3       1 NAD2500     0.0000 
      9 O3B         4.3610   -9.6920   11.0410 O.3       1 NAD2500     0.0000 
     10 C2B         5.7430   -7.7350   11.2470 C.3       1 NAD2500     0.0000 
     11 O2B         6.0370   -8.3090   12.5140 O.3       1 NAD2500     0.0000 
     12 C1B         6.8940   -7.9180   10.2730 C.3       1 NAD2500     0.0000 
     13 N9A         8.0510   -7.0450   10.4620 N.pl3     1 NAD2500     0.0000 
     14 C8A         8.1090   -5.7370   10.8260 C.2       1 NAD2500     0.0000 
     15 N7A         9.3560   -5.2760   10.8980 N.2       1 NAD2500     0.0000 
     16 C5A        10.1330   -6.3560   10.5690 C.ar      1 NAD2500     0.0000 
     17 C6A        11.5310   -6.5040   10.4660 C.ar      1 NAD2500     0.0000 
     18 N6A        12.3520   -5.4900   10.7170 N.pl3     1 NAD2500     0.0000 
     19 N1A        12.0100   -7.7140   10.1160 N.ar      1 NAD2500     0.0000 
     20 C2A        11.1050   -8.7200    9.8680 C.ar      1 NAD2500     0.0000 
     21 N3A         9.8030   -8.6910    9.9300 N.ar      1 NAD2500     0.0000 
     22 C4A         9.3610   -7.4600   10.2950 C.ar      1 NAD2500     0.0000 
     23 O3          1.5120   -7.1670    9.4720 O.3       1 NAD2500     0.0000 
     24 PN          0.0720   -7.8390    9.3710 P.3       1 NAD2500     0.0000 
     25 O1N        -0.1380   -8.5050    8.0760 O.co2     1 NAD2500     0.0000 
     26 O2N        -0.9350   -6.7560    9.4990 O.co2     1 NAD2500     0.0000 
     27 O5D         0.1220   -8.8850   10.5650 O.3       1 NAD2500     0.0000 
     28 C5D         0.4300   -8.5100   11.9150 C.3       1 NAD2500     0.0000 
     29 C4D        -0.3600   -9.3930   12.8640 C.3       1 NAD2500     0.0000 
     30 O4D        -1.6230   -8.7260   13.1380 O.3       1 NAD2500     0.0000 
     31 C3D        -0.7310  -10.7880   12.3420 C.3       1 NAD2500     0.0000 
     32 O3D        -0.9030  -11.6510   13.4740 O.3       1 NAD2500     0.0000 
     33 C2D        -2.1170  -10.4980   11.7310 C.3       1 NAD2500     0.0000 
     34 O2D        -2.8510  -11.7170   11.6130 O.3       1 NAD2500     0.0000 
     35 C1D        -2.6830   -9.6370   12.8800 C.3       1 NAD2500     0.0000 
     36 N1N        -3.8160   -8.8140   12.4460 N.pl3     1 NAD2500     0.0000 
     37 C2N        -3.5980   -7.9610   11.4110 C.ar      1 NAD2500     0.0000 
     38 C3N        -4.6310   -7.1770   10.9680 C.ar      1 NAD2500     0.0000 
     39 C7N        -4.5460   -6.1450    9.8020 C.2       1 NAD2500     0.0000 
     40 O7N        -5.1170   -5.0530    9.9150 O.2       1 NAD2500     0.0000 
     41 N7N        -3.8290   -6.5210    8.7420 N.am      1 NAD2500     0.0000 
     42 C4N        -5.9220   -7.2030   11.5430 C.ar      1 NAD2500     0.0000 
     43 C5N        -6.0320   -8.1140   12.5960 C.ar      1 NAD2500     0.0000 
     44 C6N        -5.0650   -8.9360   13.1020 C.ar      1 NAD2500     0.0000 
     45 H           4.7463   -7.3910    7.1817 H         1 NAD2500     0.0000 
     46 H           3.3033   -8.2255    7.7829 H         1 NAD2500     0.0000 
     47 H           5.1553   -9.4021    8.6973 H         1 NAD2500     0.0000 
     48 H           3.7367   -7.7465   10.5927 H         1 NAD2500     0.0000 
     49 H           5.5391   -6.6767   11.2914 H         1 NAD2500     0.0000 
     50 H           7.2040   -8.9725   10.3459 H         1 NAD2500     0.0000 
     51 H           7.2965   -5.1935   11.0156 H         1 NAD2500     0.0000 
     52 H          11.9184   -4.6240   10.9661 H         1 NAD2500     0.0000 
     53 H          13.3294   -5.6843   10.6341 H         1 NAD2500     0.0000 
     54 H          11.5748   -9.6814    9.5759 H         1 NAD2500     0.0000 
     55 H           0.1613   -7.4695   12.1140 H         1 NAD2500     0.0000 
     56 H           1.4929   -8.6384   12.1349 H         1 NAD2500     0.0000 
     57 H           0.1813   -9.5054   13.7908 H         1 NAD2500     0.0000 
     58 H          -0.0837  -11.0856   11.6292 H         1 NAD2500     0.0000 
     59 H          -2.0073   -9.9274   10.8975 H         1 NAD2500     0.0000 
     60 H          -2.8946  -10.2341   13.6955 H         1 NAD2500     0.0000 
     61 H          -2.6727   -7.9006   10.9628 H         1 NAD2500     0.0000 
     62 H          -3.8040   -5.8775    7.9769 H         1 NAD2500     0.0000 
     63 H          -3.3809   -7.4126    8.8077 H         1 NAD2500     0.0000 
     64 H          -6.6539   -6.6400   11.2307 H         1 NAD2500     0.0000 
     65 H          -7.0131   -8.1674   13.0637 H         1 NAD2500     0.0000 
     66 H          -5.1981   -9.5620   13.8500 H         1 NAD2500     0.0000 
     67 H           5.2452   -9.9693   11.4170 H         1 NAD2500     0.0000 
     68 H           6.6993   -9.0333   12.3224 H         1 NAD2500     0.0000 
     69 H          -1.7940  -12.0836   13.3364 H         1 NAD2500     0.0000 
     70 H          -3.7823  -11.4865   11.8949 H         1 NAD2500     0.0000 
@<TRIPOS>BOND
     1    2    1 ar   
     2    3    1 ar   
     3    4    1 1    
     4   23    1 1    
     5    5    4 1    
     6    6    5 1    
     7   45    5 1    
     8   46    5 1    
     9    7    6 1    
    10    8    6 1    
    11   47    6 1    
    12   12    7 1    
    13    9    8 1    
    14   10    8 1    
    15   48    8 1    
    16   67    9 1    
    17   11   10 1    
    18   12   10 1    
    19   49   10 1    
    20   68   11 1    
    21   13   12 1    
    22   50   12 1    
    23   14   13 1    
    24   22   13 1    
    25   15   14 2    
    26   51   14 1    
    27   16   15 1    
    28   17   16 ar   
    29   22   16 ar   
    30   18   17 1    
    31   19   17 ar   
    32   52   18 1    
    33   53   18 1    
    34   20   19 ar   
    35   21   20 ar   
    36   54   20 1    
    37   22   21 ar   
    38   24   23 1    
    39   25   24 ar   
    40   26   24 ar   
    41   27   24 1    
    42   28   27 1    
    43   29   28 1    
    44   55   28 1    
    45   56   28 1    
    46   30   29 1    
    47   31   29 1    
    48   57   29 1    
    49   35   30 1    
    50   32   31 1    
    51   33   31 1    
    52   58   31 1    
    53   69   32 1    
    54   34   33 1    
    55   35   33 1    
    56   59   33 1    
    57   70   34 1    
    58   36   35 1    
    59   60   35 1    
    60   37   36 ar   
    61   44   36 ar   
    62   38   37 ar   
    63   61   37 1    
    64   39   38 1    
    65   42   38 ar   
    66   40   39 2    
    67   41   39 am   
    68   62   41 1    
    69   63   41 1    
    70   43   42 ar   
    71   64   42 1    
    72   44   43 ar   
    73   65   43 1    
    74   66   44 1    
@<TRIPOS>SUBSTRUCTURE
     1 NAD2500     1 GROUP   
@<TRIPOS>SET

