#    Name: 1a5s_FIP_1_INTS_M
#    Modification time : Mon Mar 24 17:53:56 2014

@<TRIPOS>MOLECULE
1a5s_FIP_1_INTS_M
   60     0     9     0     0
SMALL
NO_CHARGES


@<TRIPOS>ATOM
      1 CA         51.5685   27.6195   13.5750 C.3       3 GLC5        0.0000 
      2 CA         50.9230   28.3090   15.2160 C.3       9 GLL5        0.0000 
      3 CA         52.2140   26.9300   11.9340 C.3       6 GLP5        0.0000 
      4 O          53.2335   27.7930   14.6390 O.2       1 ALC1        0.0000 
      5 O          52.0990   27.6040   15.3150 O.2       7 ALL1        0.0000 
      6 O          54.3680   27.9820   13.9630 O.2       4 ALP1        0.0000 
      7 CA         52.6695   25.5750   16.9970 C.3       3 GLC5        0.0000 
      8 CA         52.6870   25.1710   15.2000 C.3       9 GLL5        0.0000 
      9 CA         52.6520   25.9790   18.7940 C.3       6 GLP5        0.0000 
     10 CA         49.0580   22.5260   16.5770 C.3       3 GLC5        0.0000 
     11 CA         50.2530   22.5380   14.7450 C.3       9 GLL5        0.0000 
     12 CA         47.8630   22.5140   18.4090 C.3       6 GLP5        0.0000 
     13 CA         48.3280   22.5170   14.0500 C.3       3 GLC5        0.0000 
     14 CA         46.4030   22.4960   13.3550 C.3       6 GLP5        0.0000 
     15 CA         50.2680   23.7015   12.9360 C.3       3 GLC5        0.0000 
     16 CA         50.2830   24.8650   11.1270 C.3       6 GLP5        0.0000 
     17 CA         48.8045   29.0710   16.3525 C.3       3 GLC5        0.0000 
     18 CA         48.4370   27.8190   14.8880 C.3       9 GLL5        0.0000 
     19 CA         49.1720   30.3230   17.8170 C.3       6 GLP5        0.0000 
     20 CA         47.1650   25.7520   13.5905 C.3       3 GLC5        0.0000 
     21 CA         47.9950   27.6850   13.4480 C.3       9 GLL5        0.0000 
     22 CA         46.3350   23.8190   13.7330 C.3       6 GLP5        0.0000 
     23 CA         50.4455   27.8285   12.2540 C.3       3 GLC5        0.0000 
     24 CA         48.6770   28.7270   12.5740 C.3       9 GLL5        0.0000 
     25 CA         48.2290   30.7205   12.7170 C.3       3 GLC5        0.0000 
     26 CA         47.7810   32.7140   12.8600 C.3       6 GLP5        0.0000 
     27 N          49.5865   31.6590   10.7340 N.am      2 SEC2        0.0000 
     28 N          49.9050   30.2960   10.5020 N.am      8 SEL2        0.0000 
     29 N          49.2680   33.0220   10.9660 N.am      5 SEP2        0.0000 
     30 N          50.7260   31.1175    9.9510 N.am      2 SEC2        0.0000 
     31 N          51.5470   31.9390    9.4000 N.am      5 SEP2        0.0000 
     32 N          47.0700   31.2900   11.0690 N.am      2 SEC2        0.0000 
     33 N          47.5070   30.4810    9.9230 N.am      8 SEL2        0.0000 
     34 N          46.6330   32.0990   12.2150 N.am      5 SEP2        0.0000 
     35 N          48.3875   31.7515   10.4445 N.am      2 SEC2        0.0000 
     36 N          50.3240   28.6540    8.2735 N.am      2 SEC2        0.0000 
     37 N          48.8400   28.5610    8.9530 N.am      8 SEL2        0.0000 
     38 N          51.8080   28.7470    7.5940 N.am      5 SEP2        0.0000 
     39 N          47.9120   28.2740    7.9855 N.am      2 SEC2        0.0000 
     40 N          46.9840   27.9870    7.0180 N.am      5 SEP2        0.0000 
     41 CA         51.1206   26.3762   13.4315 C.3       3 GLC5        0.0000 
     42 CA         49.8970   24.8510   14.8390 C.3       9 GLL5        0.0000 
     43 CA         51.0624   26.8645   16.9776 C.3       3 GLC5        0.0000 
     44 CA         51.8280   26.2680   15.1820 C.3       9 GLL5        0.0000 
     45 CA         51.1670   26.3090   18.7970 C.3       6 GLP5        0.0000 
     46 CA         53.9732   23.6833   14.4907 C.3       3 GLC5        0.0000 
     47 CA         55.5370   22.8150   13.8560 C.3       6 GLP5        0.0000 
     48 CA         53.3157   23.2837   16.4513 C.3       3 GLC5        0.0000 
     49 CA         52.1320   23.9320   15.0510 C.3       9 GLL5        0.0000 
     50 CA         54.2220   22.0160   17.7770 C.3       6 GLP5        0.0000 
     51 CA         49.8805   21.5122   15.1070 C.3       3 GLC5        0.0000 
     52 CA         50.7530   23.7610   14.8730 C.3       9 GLL5        0.0000 
     53 CA         49.2580   19.8750   15.4050 C.3       6 GLP5        0.0000 
     54 CA         50.7908   24.5750   16.8417 C.3       3 GLC5        0.0000 
     55 CA         50.3530   25.0310   18.7300 C.3       6 GLP5        0.0000 
     56 CA         52.2044   25.8779   13.5275 C.3       3 GLC5        0.0000 
     57 CA         46.3685   28.2330   14.5275 C.3       3 GLC5        0.0000 
     58 CA         44.5210   28.7140   14.8870 C.3       6 GLP5        0.0000 
     59 CA         48.7310   26.6825   11.7050 C.3       3 GLC5        0.0000 
     60 CA         49.1260   25.1590   10.3990 C.3       6 GLP5        0.0000 
@<TRIPOS>BOND
@<TRIPOS>SUBSTRUCTURE
     1 ALC1        4 GROUP        1 X    ALC  0     ROOT ALC X 1
     2 SEC2       27 GROUP        1 X    SEC  0     **** SEC X 2
     3 GLC5        1 GROUP        1 X    GLC  0     **** GLC X 6
     4 ALP1        6 GROUP        1 Y    ALP  0     ROOT ALP Y 8
     5 SEP2       29 GROUP        1 Y    SEP  0     **** SEP Y 9
     6 GLP5        3 GROUP        1 Y    GLP  0     **** GLP Y 13
     7 ALL1        5 GROUP        1 Z    ALL  0     ROOT ALL Z 15
     8 SEL2       28 GROUP        1 Z    SEL  0     **** SEL Z 16
     9 GLL5        2 GROUP        1 Z    GLL  0     **** GLL Z 20
@<TRIPOS>SET

