#    Name: 1a5s_FIP_1_ligand
#    Modification time : Mon Mar 24 17:53:56 2014

@<TRIPOS>MOLECULE
1a5s_FIP_1_ligand
   29    30     1     0     0
SMALL
NO_CHARGES


@<TRIPOS>ATOM
      1 C3         49.8770   27.4540   15.0370 C.2       1 FIP270      0.0000 
      2 C9         50.4380   26.1340   15.0010 C.ar      1 FIP270      0.0000 
      3 C8         51.8280   26.2680   15.1820 C.ar      1 FIP270      0.0000 
      4 C4         49.8970   24.8510   14.8390 C.ar      1 FIP270      0.0000 
      5 C2         50.9230   28.3090   15.2160 C.2       1 FIP270      0.0000 
      6 N1         52.0990   27.6040   15.3150 N.pl3     1 FIP270      0.0000 
      7 C7         52.6870   25.1710   15.2000 C.ar      1 FIP270      0.0000 
      8 C5         50.7530   23.7610   14.8730 C.ar      1 FIP270      0.0000 
      9 C6         52.1320   23.9320   15.0510 C.ar      1 FIP270      0.0000 
     10 F          50.2530   22.5380   14.7450 F         1 FIP270      0.0000 
     11 C3P        48.4370   27.8190   14.8880 C.3       1 FIP270      0.0000 
     12 C2P        47.9950   27.6850   13.4480 C.3       1 FIP270      0.0000 
     13 C1P        48.6770   28.7270   12.5740 C.3       1 FIP270      0.0000 
     14 P          48.6890   29.5790   10.0410 P.3       1 FIP270      0.0000 
     15 OP1        49.9050   30.2960   10.5020 O.co2     1 FIP270      0.0000 
     16 OP2        47.5070   30.4810    9.9230 O.co2     1 FIP270      0.0000 
     17 OP3        48.8400   28.5610    8.9530 O.co2     1 FIP270      0.0000 
     18 OP4        48.2780   28.5360   11.2340 O.3       1 FIP270      0.0000 
     19 H          48.8966   24.7298   14.6999 H         1 FIP270      0.0000 
     20 H          50.8547   29.2746   15.2670 H         1 FIP270      0.0000 
     21 H          52.9675   27.9883   15.4546 H         1 FIP270      0.0000 
     22 H          53.6863   25.3016   15.3202 H         1 FIP270      0.0000 
     23 H          52.7366   23.0832   15.0680 H         1 FIP270      0.0000 
     24 H          48.2794   28.8510   15.2159 H         1 FIP270      0.0000 
     25 H          47.8214   27.1653   15.5134 H         1 FIP270      0.0000 
     26 H          46.9137   27.8164   13.3845 H         1 FIP270      0.0000 
     27 H          48.2465   26.6890   13.0803 H         1 FIP270      0.0000 
     28 H          49.7595   28.6137   12.7033 H         1 FIP270      0.0000 
     29 H          48.3947   29.7160   12.9526 H         1 FIP270      0.0000 
@<TRIPOS>BOND
     1    2    1 1    
     2    5    1 2    
     3   11    1 1    
     4    3    2 ar   
     5    4    2 ar   
     6    6    3 1    
     7    7    3 ar   
     8    8    4 ar   
     9   19    4 1    
    10    6    5 1    
    11   20    5 1    
    12   21    6 1    
    13    9    7 ar   
    14   22    7 1    
    15    9    8 ar   
    16   10    8 1    
    17   23    9 1    
    18   12   11 1    
    19   24   11 1    
    20   25   11 1    
    21   13   12 1    
    22   26   12 1    
    23   27   12 1    
    24   18   13 1    
    25   28   13 1    
    26   29   13 1    
    27   15   14 ar   
    28   16   14 ar   
    29   17   14 ar   
    30   18   14 1    
@<TRIPOS>SUBSTRUCTURE
     1 FIP270      1 GROUP   
@<TRIPOS>SET

