#    Name: 2zb2_A46_2_INTS_M
#    Modification time : Tue Mar 25 10:29:30 2014

@<TRIPOS>MOLECULE
2zb2_A46_2_INTS_M
   66     0     9     0     0
SMALL
NO_CHARGES


@<TRIPOS>ATOM
      1 CA         -1.5670   30.7950   -6.8940 C.3       3 GLC5        0.0000 
      2 CA         -2.3270   31.3850   -5.1590 C.3       9 GLL5        0.0000 
      3 CA         -0.8070   30.2050   -8.6290 C.3       6 GLP5        0.0000 
      4 O          -3.6575   30.8300   -6.7480 O.2       1 ALC1        0.0000 
      5 O          -2.6850   31.7880   -6.3800 O.2       7 ALL1        0.0000 
      6 O          -4.6300   29.8720   -7.1160 O.2       4 ALP1        0.0000 
      7 O          -0.5100   34.3095   -9.1210 O.2       1 ALC1        0.0000 
      8 O          -1.8620   33.9650   -9.2710 O.2       7 ALL1        0.0000 
      9 O           0.8420   34.6540   -8.9710 O.2       4 ALP1        0.0000 
     10 CA         -1.3670   36.7785  -11.5160 C.3       3 GLC5        0.0000 
     11 CA         -2.2530   34.8720  -11.6090 C.3       9 GLL5        0.0000 
     12 CA         -0.4810   38.6850  -11.4230 C.3       6 GLP5        0.0000 
     13 CA         -0.1970   35.3095  -11.2305 C.3       3 GLC5        0.0000 
     14 CA          1.8590   35.7470  -10.8520 C.3       6 GLP5        0.0000 
     15 CA         -6.2790   34.9200  -15.1790 C.3       3 GLC5        0.0000 
     16 CA         -5.3910   34.0920  -13.7900 C.3       9 GLL5        0.0000 
     17 CA         -7.1670   35.7480  -16.5680 C.3       6 GLP5        0.0000 
     18 CA         -6.7380   33.0275  -13.3765 C.3       3 GLC5        0.0000 
     19 CA         -8.0850   31.9630  -12.9630 C.3       6 GLP5        0.0000 
     20 CA         -4.3420   32.9880  -14.8070 C.3       3 GLC5        0.0000 
     21 CA         -3.2930   31.8840  -15.8240 C.3       6 GLP5        0.0000 
     22 CA         -3.8370   35.0585  -15.0190 C.3       3 GLC5        0.0000 
     23 CA         -2.2830   36.0250  -16.2480 C.3       6 GLP5        0.0000 
     24 CA         -1.6040   29.4540   -6.3785 C.3       3 GLC5        0.0000 
     25 CA         -2.3500   30.0410   -4.8490 C.3       9 GLL5        0.0000 
     26 CA         -0.8580   28.8670   -7.9080 C.3       6 GLP5        0.0000 
     27 CA         -1.3760   27.9245   -0.8615 C.3       3 GLC5        0.0000 
     28 CA         -1.3060   30.0550   -1.2400 C.3       9 GLL5        0.0000 
     29 CA         -1.4460   25.7940   -0.4830 C.3       6 GLP5        0.0000 
     30 CA         -2.0665   29.5440    0.7270 C.3       3 GLC5        0.0000 
     31 CA         -2.8270   29.0330    2.6940 C.3       6 GLP5        0.0000 
     32 CA          0.0435   27.8875   -0.6150 C.3       3 GLC5        0.0000 
     33 CA          0.1920   29.7540   -1.0870 C.3       9 GLL5        0.0000 
     34 CA         -0.1050   26.0210   -0.1430 C.3       6 GLP5        0.0000 
     35 CA          2.0145   29.7390   -0.2770 C.3       3 GLC5        0.0000 
     36 CA          3.8370   29.7240    0.5330 C.3       6 GLP5        0.0000 
     37 N          -3.4840   29.3365   -0.8075 N.am      2 SEC2        0.0000 
     38 N          -2.1690   28.9070   -0.9750 N.am      8 SEL2        0.0000 
     39 N          -4.7990   29.7660   -0.6400 N.am      5 SEP2        0.0000 
     40 O           1.9455   28.3630   -1.7740 O.2       1 ALC1        0.0000 
     41 O           0.6130   28.8370   -2.1120 O.2       7 ALL1        0.0000 
     42 O           3.2780   27.8890   -1.4360 O.2       4 ALP1        0.0000 
     43 CA         -2.0008   31.5682   -8.6967 C.3       3 GLC5        0.0000 
     44 CA         -2.5750   33.1480   -8.4560 C.3       9 GLL5        0.0000 
     45 CA         -4.1502   31.4953  -10.6792 C.3       3 GLC5        0.0000 
     46 CA         -3.8140   32.7150   -9.0730 C.3       9 GLL5        0.0000 
     47 CA         -4.5240   29.9490  -11.6590 C.3       6 GLP5        0.0000 
     48 CA         -1.2843   32.8695  -10.8089 C.3       3 GLC5        0.0000 
     49 CA         -2.5170   34.1440  -10.4390 C.3       9 GLL5        0.0000 
     50 CA          0.1220   31.4250  -10.6220 C.3       6 GLP5        0.0000 
     51 CA         -1.8108   35.2540  -13.9037 C.3       3 GLC5        0.0000 
     52 CA         -0.9280   35.6260  -15.6480 C.3       6 GLP5        0.0000 
     53 CA         -4.4913   31.8550  -11.8285 C.3       3 GLC5        0.0000 
     54 CA         -4.3120   34.1320  -12.5790 C.3       9 GLL5        0.0000 
     55 CA         -4.5464   35.0034  -10.5116 C.3       3 GLC5        0.0000 
     56 CA         -4.6050   33.3900  -11.4170 C.3       9 GLL5        0.0000 
     57 CA         -4.9020   36.7910  -10.4650 C.3       6 GLP5        0.0000 
     58 CA         -6.2718   32.8620  -12.4805 C.3       3 GLC5        0.0000 
     59 CA         -3.8308   35.7455  -11.1660 C.3       3 GLC5        0.0000 
     60 CA         -3.1340   34.8920  -12.7100 C.3       9 GLL5        0.0000 
     61 CA         -5.3078   35.5715  -12.4473 C.3       3 GLC5        0.0000 
     62 CA         -5.7640   37.0310  -11.7100 C.3       6 GLP5        0.0000 
     63 CA         -2.5960   28.1500   -5.0538 C.3       3 GLC5        0.0000 
     64 CA         -3.0210   26.4800   -5.8970 C.3       6 GLP5        0.0000 
     65 CA         -4.1696   30.2615   -4.3765 C.3       3 GLC5        0.0000 
     66 CA         -6.1740   30.3670   -4.4650 C.3       6 GLP5        0.0000 
@<TRIPOS>BOND
@<TRIPOS>SUBSTRUCTURE
     1 ALC1        4 GROUP        1 X    ALC  0     ROOT ALC X 1
     2 SEC2       37 GROUP        1 X    SEC  0     **** SEC X 2
     3 GLC5        1 GROUP        1 X    GLC  0     **** GLC X 6
     4 ALP1        6 GROUP        1 Y    ALP  0     ROOT ALP Y 8
     5 SEP2       39 GROUP        1 Y    SEP  0     **** SEP Y 9
     6 GLP5        3 GROUP        1 Y    GLP  0     **** GLP Y 13
     7 ALL1        5 GROUP        1 Z    ALL  0     ROOT ALL Z 15
     8 SEL2       38 GROUP        1 Z    SEL  0     **** SEL Z 16
     9 GLL5        2 GROUP        1 Z    GLL  0     **** GLL Z 20
@<TRIPOS>SET

