#    Name: 2zb2_A46_2_ligand
#    Modification time : Tue Mar 25 10:29:31 2014

@<TRIPOS>MOLECULE
2zb2_A46_2_ligand
   38    40     1     0     0
SMALL
NO_CHARGES


@<TRIPOS>ATOM
      1 C4         -2.3270   31.3850   -5.1590 C.ar      1 A46850      0.0000 
      2 N1         -2.6850   31.7880   -6.3800 N.am      1 A46850      0.0000 
      3 C6         -2.0760   32.7940   -7.1000 C.2       1 A46850      0.0000 
      4 C7         -2.5750   33.1480   -8.4560 C.2       1 A46850      0.0000 
      5 O1         -1.1190   33.4060   -6.6320 O.2       1 A46850      0.0000 
      6 N2         -1.8620   33.9650   -9.2710 N.pl3     1 A46850      0.0000 
      7 C8         -3.8140   32.7150   -9.0730 C.2       1 A46850      0.0000 
      8 C11        -2.5170   34.1440  -10.4390 C.ar      1 A46850      0.0000 
      9 C12        -3.7390   33.3680  -10.3260 C.ar      1 A46850      0.0000 
     10 C13        -2.2530   34.8720  -11.6090 C.ar      1 A46850      0.0000 
     11 C14        -4.6050   33.3900  -11.4170 C.ar      1 A46850      0.0000 
     12 C15        -3.1340   34.8920  -12.7100 C.ar      1 A46850      0.0000 
     13 C16        -4.3120   34.1320  -12.5790 C.ar      1 A46850      0.0000 
     14 CL1        -5.3910   34.0920  -13.7900 Cl        1 A46850      0.0000 
     15 C2         -2.3500   30.0410   -4.8490 C.ar      1 A46850      0.0000 
     16 C1         -1.9920   29.5990   -3.5720 C.ar      1 A46850      0.0000 
     17 C5         -1.6000   30.5240   -2.5960 C.ar      1 A46850      0.0000 
     18 C9         -1.5570   31.8910   -2.8660 C.ar      1 A46850      0.0000 
     19 C10        -1.9220   32.3170   -4.1580 C.ar      1 A46850      0.0000 
     20 C3         -1.3060   30.0550   -1.2400 C.3       1 A46850      0.0000 
     21 C17         0.1920   29.7540   -1.0870 C.3       1 A46850      0.0000 
     22 O2         -2.1690   28.9070   -0.9750 O.3       1 A46850      0.0000 
     23 O3          0.6130   28.8370   -2.1120 O.3       1 A46850      0.0000 
     24 H          -3.5167   31.2975   -6.8575 H         1 A46850      0.0000 
     25 H          -1.0017   34.3638   -9.0439 H         1 A46850      0.0000 
     26 H          -4.4367   32.1831   -8.7360 H         1 A46850      0.0000 
     27 H          -1.3695   35.4220  -11.6699 H         1 A46850      0.0000 
     28 H          -5.4886   32.8496  -11.3802 H         1 A46850      0.0000 
     29 H          -2.9332   35.4147  -13.5335 H         1 A46850      0.0000 
     30 H          -2.6332   29.3484   -5.5614 H         1 A46850      0.0000 
     31 H          -2.0160   28.5988   -3.3488 H         1 A46850      0.0000 
     32 H          -1.2747   32.5586   -2.1638 H         1 A46850      0.0000 
     33 H          -1.8986   33.3185   -4.3919 H         1 A46850      0.0000 
     34 H          -1.5552   30.8612   -0.5390 H         1 A46850      0.0000 
     35 H           0.3482   29.3399   -0.0860 H         1 A46850      0.0000 
     36 H           0.7310   30.7045   -1.1496 H         1 A46850      0.0000 
     37 H          -1.5674   28.2195   -0.5683 H         1 A46850      0.0000 
     38 H           1.5286   28.5439   -1.8367 H         1 A46850      0.0000 
@<TRIPOS>BOND
     1    2    1 1    
     2   15    1 ar   
     3   19    1 ar   
     4    3    2 am   
     5   24    2 1    
     6    4    3 1    
     7    5    3 2    
     8    6    4 1    
     9    7    4 2    
    10    8    6 1    
    11   25    6 1    
    12    9    7 1    
    13   26    7 1    
    14    9    8 ar   
    15   10    8 ar   
    16   11    9 ar   
    17   12   10 ar   
    18   27   10 1    
    19   13   11 ar   
    20   28   11 1    
    21   13   12 ar   
    22   29   12 1    
    23   14   13 1    
    24   16   15 ar   
    25   30   15 1    
    26   17   16 ar   
    27   31   16 1    
    28   18   17 ar   
    29   20   17 1    
    30   19   18 ar   
    31   32   18 1    
    32   33   19 1    
    33   21   20 1    
    34   22   20 1    
    35   34   20 1    
    36   23   21 1    
    37   35   21 1    
    38   36   21 1    
    39   37   22 1    
    40   38   23 1    
@<TRIPOS>SUBSTRUCTURE
     1 A46850      1 GROUP   
@<TRIPOS>SET

