#    Name: 3jy0_LYG_1_INTS_M
#    Modification time : Tue Mar 25 18:02:00 2014

@<TRIPOS>MOLECULE
3jy0_LYG_1_INTS_M
   56     0    12     0     0
SMALL
NO_CHARGES


@<TRIPOS>ATOM
      1 CA        -38.2300   -7.1380    5.3395 C.3       4 GLC5        0.0000 
      2 CA        -37.6130   -5.4470    4.2080 C.3      12 GLL5        0.0000 
      3 CA        -38.8470   -8.8290    6.4710 C.3       8 GLP5        0.0000 
      4 OD1       -36.5170   -4.4120    1.7885 O.co2     3 ASC3        0.0000 
      5 OD1       -37.6470   -3.5830    2.9950 O.co2    11 ASL3        0.0000 
      6 OD1       -35.3870   -5.2410    0.5820 O.co2     7 ASP3        0.0000 
      7 O         -37.0550   -7.2650    2.9225 O.2       1 ALC1        0.0000 
      8 O         -36.5630   -6.2880    3.7830 O.2       9 ALL1        0.0000 
      9 O         -37.5470   -8.2420    2.0620 O.2       5 ALP1        0.0000 
     10 CA        -42.4950   -3.6800   -4.2885 C.3       4 GLC5        0.0000 
     11 CA        -41.3380   -2.9260   -2.6070 C.3      12 GLL5        0.0000 
     12 CA        -43.6520   -4.4340   -5.9700 C.3       8 GLP5        0.0000 
     13 CA        -40.7090   -1.7690   -4.0440 C.3       4 GLC5        0.0000 
     14 CA        -40.0800   -0.6120   -5.4810 C.3       8 GLP5        0.0000 
     15 CA        -46.8070    0.3495    0.2810 C.3       4 GLC5        0.0000 
     16 CA        -45.6760   -1.0860    1.0960 C.3      12 GLL5        0.0000 
     17 CA        -47.9380    1.7850   -0.5340 C.3       8 GLP5        0.0000 
     18 CA        -47.5390   -1.6610    1.9915 C.3       4 GLC5        0.0000 
     19 CA        -49.4020   -2.2360    2.8870 C.3       8 GLP5        0.0000 
     20 N         -36.9745   -3.2310   -2.2810 N.am      2 SEC2        0.0000 
     21 N         -38.2560   -3.6080   -2.3870 N.am     10 SEL2        0.0000 
     22 N         -35.6930   -2.8540   -2.1750 N.am      6 SEP2        0.0000 
     23 CA        -38.1865   -0.7245    1.5590 C.3       4 GLC5        0.0000 
     24 CA        -38.0070   -2.5050    2.0840 C.3      12 GLL5        0.0000 
     25 CA        -38.3660    1.0560    1.0340 C.3       8 GLP5        0.0000 
     26 CA        -46.5340   -1.3045   -2.3725 C.3       4 GLC5        0.0000 
     27 CA        -44.8330   -1.8330   -1.2860 C.3      12 GLL5        0.0000 
     28 CA        -48.2350   -0.7760   -3.4590 C.3       8 GLP5        0.0000 
     29 CA        -46.8815   -2.6065   -1.8025 C.3       4 GLC5        0.0000 
     30 CA        -48.9300   -3.3800   -2.3190 C.3       8 GLP5        0.0000 
     31 CA        -38.4095   -1.7595   -1.9285 C.3       4 GLC5        0.0000 
     32 CA        -40.2130   -2.8950   -1.3070 C.3      12 GLL5        0.0000 
     33 CA        -36.6060   -0.6240   -2.5500 C.3       8 GLP5        0.0000 
     34 CA        -39.5990   -5.5090    1.8430 C.3       4 GLC5        0.0000 
     35 CA        -38.1900   -4.9650    2.8720 C.3      12 GLL5        0.0000 
     36 CA        -41.0080   -6.0530    0.8140 C.3       8 GLP5        0.0000 
     37 CA        -37.4710   -5.7690    1.0130 C.3       4 GLC5        0.0000 
     38 CA        -36.7520   -6.5730   -0.8460 C.3       8 GLP5        0.0000 
     39 CA        -45.2003   -3.2338    0.1815 C.3       4 GLC5        0.0000 
     40 CA        -45.3430   -5.1280   -0.1870 C.3       8 GLP5        0.0000 
     41 CA        -44.2549    0.3654    1.2748 C.3       4 GLC5        0.0000 
     42 CA        -44.4390   -1.5930    0.0040 C.3      12 GLL5        0.0000 
     43 CA        -44.3970    2.2740    2.0110 C.3       8 GLP5        0.0000 
     44 CA        -41.5267   -0.1430    0.1811 C.3       4 GLC5        0.0000 
     45 CA        -43.1680   -1.7470    0.5270 C.3      12 GLL5        0.0000 
     46 CA        -40.6950    1.7560    0.2360 C.3       8 GLP5        0.0000 
     47 CA        -45.0222   -3.4627   -3.0132 C.3       4 GLC5        0.0000 
     48 CA        -45.6740   -4.8830   -4.2790 C.3       8 GLP5        0.0000 
     49 CA        -42.7145   -4.4447   -2.0975 C.3       4 GLC5        0.0000 
     50 CA        -43.9080   -2.2520   -2.2090 C.3      12 GLL5        0.0000 
     51 CA        -42.4740   -6.4280   -2.0190 C.3       8 GLP5        0.0000 
     52 CA        -40.9445   -4.3345    0.0116 C.3       4 GLC5        0.0000 
     53 CA        -40.8560   -2.4830   -0.1790 C.3      12 GLL5        0.0000 
     54 CA        -43.4256   -0.4151   -1.5655 C.3       4 GLC5        0.0000 
     55 CA        -43.5180    1.1660   -2.5240 C.3       8 GLP5        0.0000 
     56 CA        -44.4355   -3.6227   -0.7304 C.3       4 GLC5        0.0000 
@<TRIPOS>BOND
@<TRIPOS>SUBSTRUCTURE
     1 ALC1        7 GROUP        1 X    ALC  0     ROOT ALC X 1
     2 SEC2       20 GROUP        1 X    SEC  0     **** SEC X 2
     3 ASC3        4 GROUP        1 X    ASC  0     **** ASC X 3
     4 GLC5        1 GROUP        1 X    GLC  0     **** GLC X 6
     5 ALP1        9 GROUP        1 Y    ALP  0     ROOT ALP Y 8
     6 SEP2       22 GROUP        1 Y    SEP  0     **** SEP Y 9
     7 ASP3        6 GROUP        1 Y    ASP  0     **** ASP Y 10
     8 GLP5        3 GROUP        1 Y    GLP  0     **** GLP Y 13
     9 ALL1        8 GROUP        1 Z    ALL  0     ROOT ALL Z 15
    10 SEL2       21 GROUP        1 Z    SEL  0     **** SEL Z 16
    11 ASL3        5 GROUP        1 Z    ASL  0     **** ASL Z 17
    12 GLL5        2 GROUP        1 Z    GLL  0     **** GLL Z 20
@<TRIPOS>SET

