#    Name: 3jy0_LYG_1_ligand
#    Modification time : Tue Mar 25 18:02:00 2014

@<TRIPOS>MOLECULE
3jy0_LYG_1_ligand
   37    40     1     0     0
SMALL
NO_CHARGES


@<TRIPOS>ATOM
      1 C1        -37.6130   -5.4470    4.2080 C.3       1 LYG1000     0.0000 
      2 N1        -37.6470   -3.5830    2.9950 N.4       1 LYG1000     0.0000 
      3 O1        -36.5630   -6.2880    3.7830 O.3       1 LYG1000     0.0000 
      4 S1        -41.3380   -2.9260   -2.6070 S.3       1 LYG1000     0.0000 
      5 CL1       -45.6760   -1.0860    1.0960 Cl        1 LYG1000     0.0000 
      6 C2        -36.8330   -4.2930    4.8730 C.3       1 LYG1000     0.0000 
      7 N2        -40.1570   -2.3540    1.0210 N.2       1 LYG1000     0.0000 
      8 O2        -38.2560   -3.6080   -2.3870 O.2       1 LYG1000     0.0000 
      9 C3        -36.2680   -3.5870    3.6200 C.3       1 LYG1000     0.0000 
     10 N3        -38.2250   -3.1170   -0.1740 N.am      1 LYG1000     0.0000 
     11 C4        -38.0070   -2.5050    2.0840 C.3       1 LYG1000     0.0000 
     12 C5        -38.9010   -2.6680    0.9240 C.2       1 LYG1000     0.0000 
     13 C6        -40.8560   -2.4830   -0.1790 C.2       1 LYG1000     0.0000 
     14 C7        -42.2420   -2.1910   -0.3700 C.ar      1 LYG1000     0.0000 
     15 C8        -43.1680   -1.7470    0.5270 C.ar      1 LYG1000     0.0000 
     16 C9        -44.4390   -1.5930    0.0040 C.ar      1 LYG1000     0.0000 
     17 C10       -44.8330   -1.8330   -1.2860 C.ar      1 LYG1000     0.0000 
     18 C11       -43.9080   -2.2520   -2.2090 C.ar      1 LYG1000     0.0000 
     19 C12       -42.6660   -2.4160   -1.6790 C.ar      1 LYG1000     0.0000 
     20 C13       -40.2130   -2.8950   -1.3070 C.2       1 LYG1000     0.0000 
     21 C14       -38.8430   -3.2530   -1.3820 C.2       1 LYG1000     0.0000 
     22 C15       -38.1900   -4.9650    2.8720 C.3       1 LYG1000     0.0000 
     23 H         -38.2818   -5.8577    4.8036 H         1 LYG1000     0.0000 
     24 H         -38.2907   -3.2278    4.0432 H         1 LYG1000     0.0000 
     25 H         -36.0496   -4.6783    5.4438 H         1 LYG1000     0.0000 
     26 H         -37.4956   -3.6569    5.3673 H         1 LYG1000     0.0000 
     27 H         -35.9836   -2.6459    3.8643 H         1 LYG1000     0.0000 
     28 H         -35.6532   -4.2222    3.1252 H         1 LYG1000     0.0000 
     29 H         -37.2113   -3.3617   -0.0860 H         1 LYG1000     0.0000 
     30 H         -37.0243   -2.0171    1.6988 H         1 LYG1000     0.0000 
     31 H         -38.4189   -1.6215    2.7179 H         1 LYG1000     0.0000 
     32 H         -42.9572   -1.5479    1.4791 H         1 LYG1000     0.0000 
     33 H         -45.8178   -1.7000   -1.5626 H         1 LYG1000     0.0000 
     34 H         -44.1277   -2.4159   -3.1591 H         1 LYG1000     0.0000 
     35 H         -39.2205   -4.9668    2.9231 H         1 LYG1000     0.0000 
     36 H         -37.7371   -5.4763    2.0987 H         1 LYG1000     0.0000 
     37 H         -36.9891   -6.9339    3.1496 H         1 LYG1000     0.0000 
@<TRIPOS>BOND
     1    3    1 1    
     2    6    1 1    
     3   22    1 1    
     4   23    1 1    
     5    9    2 1    
     6   11    2 1    
     7   22    2 1    
     8   24    2 1    
     9   37    3 1    
    10   19    4 1    
    11   20    4 1    
    12   16    5 1    
    13    9    6 1    
    14   25    6 1    
    15   26    6 1    
    16   12    7 2    
    17   13    7 1    
    18   21    8 2    
    19   27    9 1    
    20   28    9 1    
    21   12   10 1    
    22   21   10 am   
    23   29   10 1    
    24   12   11 1    
    25   30   11 1    
    26   31   11 1    
    27   14   13 1    
    28   20   13 2    
    29   15   14 ar   
    30   19   14 ar   
    31   16   15 ar   
    32   32   15 1    
    33   17   16 ar   
    34   18   17 ar   
    35   33   17 1    
    36   19   18 ar   
    37   34   18 1    
    38   21   20 1    
    39   35   22 1    
    40   36   22 1    
@<TRIPOS>SUBSTRUCTURE
     1 LYG1000     1 GROUP   
@<TRIPOS>SET

