#    Name: 3u4w_08L_1_INTS_M
#    Modification time : Mon Mar 24 21:39:08 2014

@<TRIPOS>MOLECULE
3u4w_08L_1_INTS_M
   97     0     6     0     0
SMALL
NO_CHARGES


@<TRIPOS>ATOM
      1 N         -58.8100   42.7665    7.2345 N.am      1 SEC2        0.0000 
      2 N         -58.5720   43.8530    8.3360 N.am      5 SEL2        0.0000 
      3 N         -59.0480   41.6800    6.1330 N.am      3 SEP2        0.0000 
      4 CA        -56.8010   46.7810   10.1880 C.3       2 GLC5        0.0000 
      5 CA        -57.4250   45.9140    8.6240 C.3       6 GLL5        0.0000 
      6 CA        -56.1770   47.6480   11.7520 C.3       4 GLP5        0.0000 
      7 CA        -58.2810   45.1805    6.1970 C.3       2 GLC5        0.0000 
      8 CA        -56.6100   45.8370    7.5070 C.3       6 GLL5        0.0000 
      9 CA        -59.9520   44.5240    4.8870 C.3       4 GLP5        0.0000 
     10 CA        -55.1170   42.4750    4.9525 C.3       2 GLC5        0.0000 
     11 CA        -54.7630   42.3580    7.0620 C.3       6 GLL5        0.0000 
     12 CA        -55.4710   42.5920    2.8430 C.3       4 GLP5        0.0000 
     13 N         -56.7205   40.4370    5.7540 N.am      1 SEC2        0.0000 
     14 N         -56.0710   40.5840    7.1120 N.am      5 SEL2        0.0000 
     15 N         -57.3700   40.2900    4.3960 N.am      3 SEP2        0.0000 
     16 CA        -49.6000   42.1105    6.7325 C.3       2 GLC5        0.0000 
     17 CA        -51.1310   43.7360    6.9830 C.3       6 GLL5        0.0000 
     18 CA        -48.0690   40.4850    6.4820 C.3       4 GLP5        0.0000 
     19 CA        -49.3725   45.3130    3.4405 C.3       2 GLC5        0.0000 
     20 CA        -50.6140   44.8070    4.7080 C.3       6 GLL5        0.0000 
     21 CA        -48.1310   45.8190    2.1730 C.3       4 GLP5        0.0000 
     22 CA        -57.3540   39.9670    9.0280 C.3       2 GLC5        0.0000 
     23 CA        -55.5180   39.2930    9.7600 C.3       6 GLL5        0.0000 
     24 CA        -59.1900   40.6410    8.2960 C.3       4 GLP5        0.0000 
     25 CA        -54.2365   37.1765   11.5690 C.3       2 GLC5        0.0000 
     26 CA        -54.2900   38.5530   10.2150 C.3       6 GLL5        0.0000 
     27 CA        -54.1830   35.8000   12.9230 C.3       4 GLP5        0.0000 
     28 CA        -52.5195   38.6670   11.2380 C.3       2 GLC5        0.0000 
     29 CA        -50.7490   38.7810   12.2610 C.3       4 GLP5        0.0000 
     30 CA        -52.1185   37.4640   10.1205 C.3       2 GLC5        0.0000 
     31 CA        -53.3650   38.4140    9.0180 C.3       6 GLL5        0.0000 
     32 CA        -50.8720   36.5140   11.2230 C.3       4 GLP5        0.0000 
     33 CA        -55.2975   36.1930    8.6920 C.3       2 GLC5        0.0000 
     34 CA        -53.5790   37.4010    8.0440 C.3       6 GLL5        0.0000 
     35 CA        -57.0160   34.9850    9.3400 C.3       4 GLP5        0.0000 
     36 CA        -49.5215   37.3765    6.7615 C.3       2 GLC5        0.0000 
     37 CA        -51.5270   38.0080    6.9130 C.3       6 GLL5        0.0000 
     38 CA        -47.5160   36.7450    6.6100 C.3       4 GLP5        0.0000 
     39 CA        -56.3400   42.9865   15.0400 C.3       2 GLC5        0.0000 
     40 CA        -56.6340   41.5480   13.6730 C.3       6 GLL5        0.0000 
     41 CA        -56.0460   44.4250   16.4070 C.3       4 GLP5        0.0000 
     42 CA        -55.7370   42.3890   15.9190 C.3       2 GLC5        0.0000 
     43 CA        -55.4280   40.3530   15.4310 C.3       6 GLL5        0.0000 
     44 CA        -53.8040   41.1060   16.3130 C.3       2 GLC5        0.0000 
     45 CA        -52.1800   41.8590   17.1950 C.3       4 GLP5        0.0000 
     46 CA        -52.7570   36.8780   15.3680 C.3       2 GLC5        0.0000 
     47 CA        -52.4420   38.2930   16.8290 C.3       6 GLL5        0.0000 
     48 CA        -53.0720   35.4630   13.9070 C.3       4 GLP5        0.0000 
     49 CA        -52.3110   40.0760   17.0120 C.3       2 GLC5        0.0000 
     50 CA        -51.7795   36.6035   14.8490 C.3       2 GLC5        0.0000 
     51 CA        -50.4870   37.7440   15.7910 C.3       6 GLL5        0.0000 
     52 CA        -50.6180   38.2625   14.0260 C.3       2 GLC5        0.0000 
     53 CA        -48.9750   36.5040   18.4920 C.3       2 GLC5        0.0000 
     54 CA        -49.9130   37.5000   17.0270 C.3       6 GLL5        0.0000 
     55 CA        -48.0370   35.5080   19.9570 C.3       4 GLP5        0.0000 
     56 CA        -49.1545   38.8600   18.5895 C.3       2 GLC5        0.0000 
     57 CA        -48.3960   40.2200   20.1520 C.3       4 GLP5        0.0000 
     58 N         -49.9875   37.4520   19.4005 N.am      1 SEC2        0.0000 
     59 N         -50.6820   37.4240   18.1040 N.am      5 SEL2        0.0000 
     60 N         -49.2930   37.4800   20.6970 N.am      3 SEP2        0.0000 
     61 CA        -50.8200   38.9015   19.4770 C.3       2 GLC5        0.0000 
     62 CA        -51.9560   37.8970   18.0580 C.3       6 GLL5        0.0000 
     63 CA        -49.6840   39.9060   20.8960 C.3       4 GLP5        0.0000 
     64 CA        -50.9055   39.4335   17.4570 C.3       2 GLC5        0.0000 
     65 CA        -49.8550   40.9700   16.8560 C.3       4 GLP5        0.0000 
     66 CA        -59.8905   42.3035    9.0895 C.3       2 GLC5        0.0000 
     67 CA        -60.5910   43.9660    9.8830 C.3       6 GLL5        0.0000 
     68 CA        -49.6540   43.8033    7.9825 C.3       2 GLC5        0.0000 
     69 CA        -48.5690   43.3310    9.3890 C.3       4 GLP5        0.0000 
     70 CA        -50.2362   46.8755    5.8133 C.3       2 GLC5        0.0000 
     71 CA        -50.3470   44.8150    6.1690 C.3       6 GLL5        0.0000 
     72 CA        -49.9920   48.9400    6.1880 C.3       4 GLP5        0.0000 
     73 CA        -48.9993   43.4875    5.0567 C.3       2 GLC5        0.0000 
     74 CA        -47.5180   42.1640    4.6750 C.3       4 GLP5        0.0000 
     75 CA        -53.9528   43.4703    3.8030 C.3       2 GLC5        0.0000 
     76 CA        -52.0840   44.9470    4.4560 C.3       6 GLL5        0.0000 
     77 CA        -51.9500   44.0032    3.0715 C.3       2 GLC5        0.0000 
     78 CA        -52.7850   43.7500    5.0700 C.3       6 GLL5        0.0000 
     79 CA        -51.8330   43.6930    1.3170 C.3       4 GLP5        0.0000 
     80 CA        -50.9320   38.4820    9.8133 C.3       2 GLC5        0.0000 
     81 CA        -51.2580   38.9870    7.9030 C.3       6 GLL5        0.0000 
     82 CA        -50.1050   37.8370   11.2370 C.3       4 GLP5        0.0000 
     83 CA        -54.8387   36.8545    6.7155 C.3       2 GLC5        0.0000 
     84 CA        -56.5740   36.4180    5.8800 C.3       4 GLP5        0.0000 
     85 CA        -49.7308   39.4913    6.9450 C.3       2 GLC5        0.0000 
     86 CA        -52.0288   37.5042    5.2123 C.3       2 GLC5        0.0000 
     87 CA        -51.9800   37.4140    3.4390 C.3       4 GLP5        0.0000 
     88 CA        -51.4936   36.6543    8.5945 C.3       2 GLC5        0.0000 
     89 CA        -50.6720   35.6590    9.9570 C.3       4 GLP5        0.0000 
     90 CA        -55.4457   38.4995   14.1393 C.3       2 GLC5        0.0000 
     91 CA        -55.8830   40.2590   14.0000 C.3       6 GLL5        0.0000 
     92 CA        -55.2360   36.6930   13.5630 C.3       4 GLP5        0.0000 
     93 CA        -53.0615   36.3540   17.7443 C.3       2 GLC5        0.0000 
     94 CA        -53.9240   34.6130   18.0450 C.3       4 GLP5        0.0000 
     95 CA        -49.9760   35.9660   16.3750 C.3       2 GLC5        0.0000 
     96 CA        -49.7520   34.3100   16.3410 C.3       4 GLP5        0.0000 
     97 CA        -50.0275   39.2960   16.6325 C.3       2 GLC5        0.0000 
@<TRIPOS>BOND
@<TRIPOS>SUBSTRUCTURE
     1 SEC2        1 GROUP        1 X    SEC  0     ROOT SEC X 2
     2 GLC5        4 GROUP        1 X    GLC  0     **** GLC X 6
     3 SEP2        3 GROUP        1 Y    SEP  0     ROOT SEP Y 9
     4 GLP5        6 GROUP        1 Y    GLP  0     **** GLP Y 13
     5 SEL2        2 GROUP        1 Z    SEL  0     ROOT SEL Z 16
     6 GLL5        5 GROUP        1 Z    GLL  0     **** GLL Z 20
@<TRIPOS>SET

