#    Name: 3u4w_08L_1_ligand
#    Modification time : Mon Mar 24 21:39:08 2014

@<TRIPOS>MOLECULE
3u4w_08L_1_ligand
   97   100     1     0     0
SMALL
NO_CHARGES


@<TRIPOS>ATOM
      1 C6        -58.5920   44.9850    8.8470 C.2       1 08L8        0.0000 
      2 O7        -58.5720   43.8530    8.3360 O.2       1 08L8        0.0000 
      3 C8        -57.4250   45.9140    8.6240 C.2       1 08L8        0.0000 
      4 C9        -56.6100   45.8370    7.5070 C.2       1 08L8        0.0000 
      5 C10       -55.9520   44.5250    7.2040 C.2       1 08L8        0.0000 
      6 O11       -56.2840   44.2840    6.0300 O.2       1 08L8        0.0000 
      7 N12       -55.3860   43.4540    7.7390 N.am      1 08L8        0.0000 
      8 C13       -54.7630   42.3580    7.0620 C.3       1 08L8        0.0000 
      9 C14       -55.2070   41.1440    7.7990 C.2       1 08L8        0.0000 
     10 O15       -56.0710   40.5840    7.1120 O.2       1 08L8        0.0000 
     11 C16       -53.2250   42.3770    7.2060 C.3       1 08L8        0.0000 
     12 C17       -52.5850   43.6760    6.6010 C.3       1 08L8        0.0000 
     13 C52       -51.1310   43.7360    6.9830 C.3       1 08L8        0.0000 
     14 C51       -50.3470   44.8150    6.1690 C.3       1 08L8        0.0000 
     15 C50       -50.6140   44.8070    4.7080 C.3       1 08L8        0.0000 
     16 C49       -52.0840   44.9470    4.4560 C.3       1 08L8        0.0000 
     17 C48       -52.7850   43.7500    5.0700 C.3       1 08L8        0.0000 
     18 N28       -55.1990   40.4690    8.9230 N.am      1 08L8        0.0000 
     19 C27       -55.5180   39.2930    9.7600 C.3       1 08L8        0.0000 
     20 C25       -56.2830   39.8960   10.8690 C.2       1 08L8        0.0000 
     21 O26       -56.9890   38.9610   11.2940 O.2       1 08L8        0.0000 
     22 C29       -54.2900   38.5530   10.2150 C.3       1 08L8        0.0000 
     23 C30       -53.3650   38.4140    9.0180 C.ar      1 08L8        0.0000 
     24 C47       -52.2600   39.2670    8.8760 C.ar      1 08L8        0.0000 
     25 C43       -53.5790   37.4010    8.0440 C.ar      1 08L8        0.0000 
     26 C46       -51.2580   38.9870    7.9030 C.ar      1 08L8        0.0000 
     27 C44       -52.6280   37.1810    7.0580 C.ar      1 08L8        0.0000 
     28 C45       -51.5270   38.0080    6.9130 C.ar      1 08L8        0.0000 
     29 C21       -58.3660   42.6040   12.2330 C.2       1 08L8        0.0000 
     30 O22       -57.5820   43.4510   11.7540 O.2       1 08L8        0.0000 
     31 C23       -57.5360   41.3500   12.5040 C.3       1 08L8        0.0000 
     32 N24       -56.7380   41.0740   11.2930 N.am      1 08L8        0.0000 
     33 C31       -56.6340   41.5480   13.6730 C.3       1 08L8        0.0000 
     34 C32       -55.8830   40.2590   14.0000 C.3       1 08L8        0.0000 
     35 C33       -55.4280   40.3530   15.4310 C.3       1 08L8        0.0000 
     36 N34       -54.1440   39.6880   15.5690 N.am      1 08L8        0.0000 
     37 C35       -53.8390   38.8630   16.7370 C.2       1 08L8        0.0000 
     38 O36       -54.5430   38.8890   17.7070 O.2       1 08L8        0.0000 
     39 C37       -52.4420   38.2930   16.8290 C.ar      1 08L8        0.0000 
     40 N38       -51.6570   38.3590   15.7280 N.ar      1 08L8        0.0000 
     41 C39       -50.4870   37.7440   15.7910 C.ar      1 08L8        0.0000 
     42 C40       -49.9130   37.5000   17.0270 C.ar      1 08L8        0.0000 
     43 N41       -50.6820   37.4240   18.1040 N.ar      1 08L8        0.0000 
     44 C42       -51.9560   37.8970   18.0580 C.ar      1 08L8        0.0000 
     45 N5        -59.6300   45.0310    9.6650 N.am      1 08L8        0.0000 
     46 C3        -60.5910   43.9660    9.8830 C.3       1 08L8        0.0000 
     47 C2        -61.6290   43.9530    8.8120 C.2       1 08L8        0.0000 
     48 O4        -62.4650   43.0190    8.8550 O.co2     1 08L8        0.0000 
     49 C18       -61.3280   44.1450   11.2180 C.3       1 08L8        0.0000 
     50 C19       -60.4050   44.3860   12.3890 C.3       1 08L8        0.0000 
     51 N20       -59.4720   43.2770   12.4550 N.am      1 08L8        0.0000 
     52 O1        -61.9720   45.0580    8.3000 O.co2     1 08L8        0.0000 
     53 H         -57.2699   46.6170    9.3619 H         1 08L8        0.0000 
     54 H         -56.4329   46.6015    6.8899 H         1 08L8        0.0000 
     55 H         -55.3730   43.3591    8.8243 H         1 08L8        0.0000 
     56 H         -55.0243   42.2771    6.0568 H         1 08L8        0.0000 
     57 H         -52.8034   41.5146    6.6918 H         1 08L8        0.0000 
     58 H         -52.9603   42.3228    8.2609 H         1 08L8        0.0000 
     59 H         -53.1029   44.5224    7.0541 H         1 08L8        0.0000 
     60 H         -50.6532   42.7677    6.8055 H         1 08L8        0.0000 
     61 H         -51.0289   43.9763    8.0457 H         1 08L8        0.0000 
     62 H         -49.2688   44.6566    6.3645 H         1 08L8        0.0000 
     63 H         -50.5997   45.8024    6.6014 H         1 08L8        0.0000 
     64 H         -50.2584   43.8707    4.2699 H         1 08L8        0.0000 
     65 H         -50.0833   45.6336    4.2283 H         1 08L8        0.0000 
     66 H         -52.2780   44.9679    3.3916 H         1 08L8        0.0000 
     67 H         -52.4550   45.8535    4.9161 H         1 08L8        0.0000 
     68 H         -53.8578   43.8051    4.8620 H         1 08L8        0.0000 
     69 H         -52.3985   42.8285    4.6242 H         1 08L8        0.0000 
     70 H         -54.5908   41.2073    9.7715 H         1 08L8        0.0000 
     71 H         -56.1702   38.6433    9.2026 H         1 08L8        0.0000 
     72 H         -54.5620   37.5720   10.5734 H         1 08L8        0.0000 
     73 H         -53.7895   39.1109   10.9916 H         1 08L8        0.0000 
     74 H         -52.1651   40.0947    9.4684 H         1 08L8        0.0000 
     75 H         -54.4357   36.8446    8.0829 H         1 08L8        0.0000 
     76 H         -50.3766   39.4764    7.9203 H         1 08L8        0.0000 
     77 H         -52.7463   36.3733    6.4114 H         1 08L8        0.0000 
     78 H         -50.9064   37.9258    6.1075 H         1 08L8        0.0000 
     79 H         -58.2078   40.5338   12.6878 H         1 08L8        0.0000 
     80 H         -56.5261   41.9652   10.7196 H         1 08L8        0.0000 
     81 H         -57.2134   41.8474   14.5496 H         1 08L8        0.0000 
     82 H         -55.9049   42.3327   13.4578 H         1 08L8        0.0000 
     83 H         -55.0320   40.1687   13.3455 H         1 08L8        0.0000 
     84 H         -56.5478   39.4203   13.8766 H         1 08L8        0.0000 
     85 H         -56.1802   39.8842   16.0709 H         1 08L8        0.0000 
     86 H         -55.3520   41.4079   15.7074 H         1 08L8        0.0000 
     87 H         -53.4425   39.7955   14.8431 H         1 08L8        0.0000 
     88 H         -49.9825   37.4367   14.9389 H         1 08L8        0.0000 
     89 H         -48.8831   37.3810   17.0820 H         1 08L8        0.0000 
     90 H         -52.5357   37.9601   18.8917 H         1 08L8        0.0000 
     91 H         -59.8219   45.9151   10.2426 H         1 08L8        0.0000 
     92 H         -60.1073   43.0011    9.9080 H         1 08L8        0.0000 
     93 H         -61.9337   43.2444   11.4066 H         1 08L8        0.0000 
     94 H         -62.0272   44.9907   11.1208 H         1 08L8        0.0000 
     95 H         -61.0012   44.4517   13.2958 H         1 08L8        0.0000 
     96 H         -59.8845   45.3280   12.2352 H         1 08L8        0.0000 
     97 H         -60.1829   42.4487   13.1877 H         1 08L8        0.0000 
@<TRIPOS>BOND
     1    2    1 2    
     2    3    1 1    
     3   45    1 am   
     4    4    3 2    
     5   53    3 1    
     6    5    4 1    
     7   54    4 1    
     8    6    5 2    
     9    7    5 am   
    10    8    7 1    
    11   55    7 1    
    12    9    8 1    
    13   11    8 1    
    14   56    8 1    
    15   10    9 2    
    16   18    9 am   
    17   12   11 1    
    18   57   11 1    
    19   58   11 1    
    20   13   12 1    
    21   17   12 1    
    22   59   12 1    
    23   14   13 1    
    24   60   13 1    
    25   61   13 1    
    26   15   14 1    
    27   62   14 1    
    28   63   14 1    
    29   16   15 1    
    30   64   15 1    
    31   65   15 1    
    32   17   16 1    
    33   66   16 1    
    34   67   16 1    
    35   68   17 1    
    36   69   17 1    
    37   19   18 1    
    38   70   18 1    
    39   20   19 1    
    40   22   19 1    
    41   71   19 1    
    42   21   20 2    
    43   32   20 am   
    44   23   22 1    
    45   72   22 1    
    46   73   22 1    
    47   24   23 ar   
    48   25   23 ar   
    49   26   24 ar   
    50   74   24 1    
    51   27   25 ar   
    52   75   25 1    
    53   28   26 ar   
    54   76   26 1    
    55   28   27 ar   
    56   77   27 1    
    57   78   28 1    
    58   30   29 2    
    59   31   29 1    
    60   51   29 am   
    61   32   31 1    
    62   33   31 1    
    63   79   31 1    
    64   80   32 1    
    65   34   33 1    
    66   81   33 1    
    67   82   33 1    
    68   35   34 1    
    69   83   34 1    
    70   84   34 1    
    71   36   35 1    
    72   85   35 1    
    73   86   35 1    
    74   37   36 am   
    75   87   36 1    
    76   38   37 2    
    77   39   37 1    
    78   40   39 ar   
    79   44   39 ar   
    80   41   40 ar   
    81   42   41 ar   
    82   88   41 1    
    83   43   42 ar   
    84   89   42 1    
    85   44   43 ar   
    86   90   44 1    
    87   46   45 1    
    88   91   45 1    
    89   47   46 1    
    90   49   46 1    
    91   92   46 1    
    92   48   47 ar   
    93   52   47 ar   
    94   50   49 1    
    95   93   49 1    
    96   94   49 1    
    97   51   50 1    
    98   95   50 1    
    99   96   50 1    
   100   97   51 1    
@<TRIPOS>SUBSTRUCTURE
     1 08L8        1 GROUP   
@<TRIPOS>SET

