#    Name: 2amt_1AA_1_INTS_M
#    Modification time : Mon Mar 24 19:24:50 2014

@<TRIPOS>MOLECULE
2amt_1AA_1_INTS_M
   65     0    12     0     0
SMALL
NO_CHARGES


@<TRIPOS>ATOM
      1 N           5.1440    5.4025   16.7515 N.am      2 SEC2        0.0000 
      2 N           4.7270    4.8630   15.1430 N.am     10 SEL2        0.0000 
      3 N           5.5610    5.9420   18.3600 N.am      6 SEP2        0.0000 
      4 N           5.5285    4.1945   16.2590 N.am      2 SEC2        0.0000 
      5 N           6.3300    3.5260   17.3750 N.am      6 SEP2        0.0000 
      6 N           4.5040    6.1810   17.2710 N.am      2 SEC2        0.0000 
      7 N           3.4470    6.4200   16.1820 N.am     10 SEL2        0.0000 
      8 O           1.0080    8.8845   17.2150 O.2       1 ALC1        0.0000 
      9 O           2.0660    8.0440   17.1960 O.2       9 ALL1        0.0000 
     10 O          -0.0500    9.7250   17.2340 O.2       5 ALP1        0.0000 
     11 O           3.2040    8.5245   18.2470 O.2       1 ALC1        0.0000 
     12 O           4.3420    9.0050   19.2980 O.2       5 ALP1        0.0000 
     13 CA          4.9065    5.9015   12.9860 C.3       4 GLC5        0.0000 
     14 CA          3.3060    4.8530   12.7090 C.3      12 GLL5        0.0000 
     15 CA          6.5070    6.9500   13.2630 C.3       8 GLP5        0.0000 
     16 O           2.3525    1.2435   11.5650 O.2       1 ALC1        0.0000 
     17 O           3.0800    2.5090   12.1220 O.2       9 ALL1        0.0000 
     18 O           1.6250   -0.0220   11.0080 O.2       5 ALP1        0.0000 
     19 N          -0.7065    9.8065   10.8570 N.am      2 SEC2        0.0000 
     20 N           0.1250    9.0480    9.6290 N.am     10 SEL2        0.0000 
     21 N          -1.5380   10.5650   12.0850 N.am      6 SEP2        0.0000 
     22 N          -2.4130    7.0405   12.0110 N.am      2 SEC2        0.0000 
     23 N          -1.3440    7.9170   11.3880 N.am     10 SEL2        0.0000 
     24 N          -3.4820    6.1640   12.6340 N.am      6 SEP2        0.0000 
     25 N          -1.6930    8.1250   12.6820 N.am      2 SEC2        0.0000 
     26 N          -2.0420    8.3330   13.9760 N.am      6 SEP2        0.0000 
     27 N          -1.4410    9.2410   11.7365 N.am      2 SEC2        0.0000 
     28 Zn         -4.0450    6.5470    6.9510 Zn        3 ZIC7        0.0000 
     29 Zn         -3.1520    7.1150    7.7900 Zn       11 ZIL7        0.0000 
     30 Zn         -4.9380    5.9790    6.1120 Zn        7 ZIP7        0.0000 
     31 N          -2.7390    7.3645    6.2090 N.am      2 SEC2        0.0000 
     32 N          -3.1520    7.1150    7.7900 N.am     10 SEL2        0.0000 
     33 N          -2.3260    7.6140    4.6280 N.am      6 SEP2        0.0000 
     34 CA          1.2325    2.7870    7.4010 C.3       4 GLC5        0.0000 
     35 CA          0.0910    4.1500    6.7590 C.3      12 GLL5        0.0000 
     36 CA          2.3740    1.4240    8.0430 C.3       8 GLP5        0.0000 
     37 CA         -0.3880    5.7770    2.7035 C.3       4 GLC5        0.0000 
     38 CA          0.2290    3.7710    2.5230 C.3      12 GLL5        0.0000 
     39 CA         -1.0050    7.7830    2.8840 C.3       8 GLP5        0.0000 
     40 CA         -1.2675    4.4930    0.3050 C.3       4 GLC5        0.0000 
     41 CA          0.2650    3.6530    1.1330 C.3      12 GLL5        0.0000 
     42 CA         -2.8000    5.3330   -0.5230 C.3       8 GLP5        0.0000 
     43 CA          0.5355    1.6920    0.2925 C.3       4 GLC5        0.0000 
     44 CA          1.4790    3.7210    0.4510 C.3      12 GLL5        0.0000 
     45 CA         -0.4080   -0.3370    0.1340 C.3       8 GLP5        0.0000 
     46 CA          2.8050    1.8460    2.6750 C.3       4 GLC5        0.0000 
     47 CA          2.6310    4.0320    2.5520 C.3      12 GLL5        0.0000 
     48 CA          2.9790   -0.3400    2.7980 C.3       8 GLP5        0.0000 
     49 O           3.8305    2.9800    3.7915 O.2       1 ALC1        0.0000 
     50 O           3.7750    4.2140    3.2060 O.2       9 ALL1        0.0000 
     51 O           3.8860    1.7460    4.3770 O.2       5 ALP1        0.0000 
     52 CA          1.4577    5.4430   15.6982 C.3       4 GLC5        0.0000 
     53 CA          1.8800    6.5880   13.8780 C.3      12 GLL5        0.0000 
     54 CA          1.1880    3.9050   16.9640 C.3       8 GLP5        0.0000 
     55 CA         -0.0742    6.4745   14.4492 C.3       4 GLC5        0.0000 
     56 CA          1.5750    7.3740   14.9870 C.3      12 GLL5        0.0000 
     57 CA         -1.8760    5.9680   14.4660 C.3       8 GLP5        0.0000 
     58 CA          0.9078    8.6870   14.1448 C.3       4 GLC5        0.0000 
     59 CA          0.0880   10.3930   13.8570 C.3       8 GLP5        0.0000 
     60 CA          2.1353    2.9947    9.5055 C.3       4 GLC5        0.0000 
     61 CA          1.4280    4.1350   11.3910 C.3      12 GLL5        0.0000 
     62 CA         -1.2762    2.8462    7.1278 C.3       4 GLC5        0.0000 
     63 CA         -1.9760    1.1700    7.4690 C.3       8 GLP5        0.0000 
     64 CA         -1.0290    2.4745    1.2190 C.3       4 GLC5        0.0000 
     65 CA         -2.3050    1.2370    0.6100 C.3       8 GLP5        0.0000 
@<TRIPOS>BOND
@<TRIPOS>SUBSTRUCTURE
     1 ALC1        8 GROUP        1 X    ALC  0     ROOT ALC X 1
     2 SEC2        1 GROUP        1 X    SEC  0     **** SEC X 2
     3 ZIC7       28 GROUP        1 X    ZIC  0     **** ZIC X 5
     4 GLC5       13 GROUP        1 X    GLC  0     **** GLC X 6
     5 ALP1       10 GROUP        1 Y    ALP  0     ROOT ALP Y 8
     6 SEP2        3 GROUP        1 Y    SEP  0     **** SEP Y 9
     7 ZIP7       30 GROUP        1 Y    ZIP  0     **** ZIP Y 12
     8 GLP5       15 GROUP        1 Y    GLP  0     **** GLP Y 13
     9 ALL1        9 GROUP        1 Z    ALL  0     ROOT ALL Z 15
    10 SEL2        2 GROUP        1 Z    SEL  0     **** SEL Z 16
    11 ZIL7       29 GROUP        1 Z    ZIL  0     **** ZIL Z 19
    12 GLL5       14 GROUP        1 Z    GLL  0     **** GLL Z 20
@<TRIPOS>SET

