#    Name: 2amt_1AA_1_ligand
#    Modification time : Mon Mar 24 19:24:50 2014

@<TRIPOS>MOLECULE
2amt_1AA_1_ligand
   59    61     1     0     0
SMALL
NO_CHARGES


@<TRIPOS>ATOM
      1 O1          4.7270    4.8630   15.1430 O.2       1 1AA1901     0.0000 
      2 C1          3.7620    5.6210   15.0730 C.2       1 1AA1901     0.0000 
      3 N4          3.4470    6.4200   16.1820 N.2       1 1AA1901     0.0000 
      4 C9'         2.3540    7.2940   16.1370 C.2       1 1AA1901     0.0000 
      5 N3          2.0660    8.0440   17.1960 N.pl3     1 1AA1901     0.0000 
      6 C8'         1.5750    7.3740   14.9870 C.2       1 1AA1901     0.0000 
      7 C7'         1.8800    6.5880   13.8780 C.2       1 1AA1901     0.0000 
      8 N2          2.9760    5.6970   13.9030 N.am      1 1AA1901     0.0000 
      9 C2          3.3060    4.8530   12.7090 C.3       1 1AA1901     0.0000 
     10 O2'         3.2360    5.6570   11.4910 O.3       1 1AA1901     0.0000 
     11 C3          2.3420    3.6720   12.5190 C.3       1 1AA1901     0.0000 
     12 O4'         3.0800    2.5090   12.1220 O.3       1 1AA1901     0.0000 
     13 C4          1.4280    4.1350   11.3910 C.3       1 1AA1901     0.0000 
     14 O3'         0.9520    3.0170   10.6330 O.3       1 1AA1901     0.0000 
     15 C5          2.3650    4.9960   10.5450 C.3       1 1AA1901     0.0000 
     16 C6          1.5780    6.0850    9.8130 C.3       1 1AA1901     0.0000 
     17 O2          0.8740    6.9350   10.7380 O.3       1 1AA1901     0.0000 
     18 P1         -0.3880    7.8150   10.2670 P.3       1 1AA1901     0.0000 
     19 O1'         0.1250    9.0480    9.6290 O.co2     1 1AA1901     0.0000 
     20 O9         -1.3440    7.9170   11.3880 O.co2     1 1AA1901     0.0000 
     21 O3         -1.0550    6.8460    9.1530 O.3       1 1AA1901     0.0000 
     22 P2         -1.6890    7.3550    7.7500 P.3       1 1AA1901     0.0000 
     23 O8         -1.1870    8.7030    7.3930 O.co2     1 1AA1901     0.0000 
     24 O7         -3.1520    7.1150    7.7900 O.co2     1 1AA1901     0.0000 
     25 O4         -1.0370    6.3120    6.6970 O.3       1 1AA1901     0.0000 
     26 C7         -1.2440    4.8950    6.8140 C.3       1 1AA1901     0.0000 
     27 C8          0.0910    4.1500    6.7590 C.3       1 1AA1901     0.0000 
     28 O5          0.2910    3.5620    5.4520 O.3       1 1AA1901     0.0000 
     29 C9          1.3570    4.0900    4.7730 C.2       1 1AA1901     0.0000 
     30 O6          2.2660    4.6590    5.3820 O.2       1 1AA1901     0.0000 
     31 C1'         1.4120    3.9610    3.2400 C.ar      1 1AA1901     0.0000 
     32 C2'         0.2290    3.7710    2.5230 C.ar      1 1AA1901     0.0000 
     33 C3'         0.2650    3.6530    1.1330 C.ar      1 1AA1901     0.0000 
     34 C4'         1.4790    3.7210    0.4510 C.ar      1 1AA1901     0.0000 
     35 C5'         2.6630    3.9110    1.1620 C.ar      1 1AA1901     0.0000 
     36 C6'         2.6310    4.0320    2.5520 C.ar      1 1AA1901     0.0000 
     37 N1          3.7750    4.2140    3.2060 N.pl3     1 1AA1901     0.0000 
     38 H           1.1096    8.3194   17.2932 H         1 1AA1901     0.0000 
     39 H           2.8317    8.2652   17.8000 H         1 1AA1901     0.0000 
     40 H           0.7709    8.0155   14.9547 H         1 1AA1901     0.0000 
     41 H           1.3051    6.6509   13.0261 H         1 1AA1901     0.0000 
     42 H           4.3052    4.4487   12.8116 H         1 1AA1901     0.0000 
     43 H           1.7813    3.5513   13.3935 H         1 1AA1901     0.0000 
     44 H           0.6768    4.7455   11.7899 H         1 1AA1901     0.0000 
     45 H           2.8918    4.4036    9.8715 H         1 1AA1901     0.0000 
     46 H           0.8836    5.5874    9.1182 H         1 1AA1901     0.0000 
     47 H           2.2908    6.6610    9.2026 H         1 1AA1901     0.0000 
     48 H          -1.8753    4.5119    6.0010 H         1 1AA1901     0.0000 
     49 H          -1.7331    4.6366    7.7628 H         1 1AA1901     0.0000 
     50 H           0.0824    3.3830    7.5430 H         1 1AA1901     0.0000 
     51 H           0.8871    4.8652    6.9994 H         1 1AA1901     0.0000 
     52 H          -0.6685    3.7181    3.0195 H         1 1AA1901     0.0000 
     53 H          -0.6102    3.5150    0.6087 H         1 1AA1901     0.0000 
     54 H           1.5010    3.6315   -0.5704 H         1 1AA1901     0.0000 
     55 H           3.5594    3.9620    0.6634 H         1 1AA1901     0.0000 
     56 H           4.3081    5.0186    2.9445 H         1 1AA1901     0.0000 
     57 H           3.9987    3.5298    3.9001 H         1 1AA1901     0.0000 
     58 H           2.4126    1.9239   11.6615 H         1 1AA1901     0.0000 
     59 H           0.1361    2.7035   11.1190 H         1 1AA1901     0.0000 
@<TRIPOS>BOND
     1    2    1 2    
     2    3    2 1    
     3    8    2 am   
     4    4    3 2    
     5    5    4 1    
     6    6    4 1    
     7   38    5 1    
     8   39    5 1    
     9    7    6 2    
    10   40    6 1    
    11    8    7 1    
    12   41    7 1    
    13    9    8 1    
    14   10    9 1    
    15   11    9 1    
    16   42    9 1    
    17   15   10 1    
    18   12   11 1    
    19   13   11 1    
    20   43   11 1    
    21   58   12 1    
    22   14   13 1    
    23   15   13 1    
    24   44   13 1    
    25   59   14 1    
    26   16   15 1    
    27   45   15 1    
    28   17   16 1    
    29   46   16 1    
    30   47   16 1    
    31   18   17 1    
    32   19   18 ar   
    33   20   18 ar   
    34   21   18 1    
    35   22   21 1    
    36   23   22 ar   
    37   24   22 ar   
    38   25   22 1    
    39   26   25 1    
    40   27   26 1    
    41   48   26 1    
    42   49   26 1    
    43   28   27 1    
    44   50   27 1    
    45   51   27 1    
    46   29   28 1    
    47   30   29 2    
    48   31   29 1    
    49   32   31 ar   
    50   36   31 ar   
    51   33   32 ar   
    52   52   32 1    
    53   34   33 ar   
    54   53   33 1    
    55   35   34 ar   
    56   54   34 1    
    57   36   35 ar   
    58   55   35 1    
    59   37   36 1    
    60   56   37 1    
    61   57   37 1    
@<TRIPOS>SUBSTRUCTURE
     1 1AA1901     1 GROUP   
@<TRIPOS>SET

