#    Name: 2q9f_C3S_1_INTS_M
#    Modification time : Mon Mar 24 21:38:40 2014

@<TRIPOS>MOLECULE
2q9f_C3S_1_INTS_M
   80     0     9     0     0
SMALL
NO_CHARGES


@<TRIPOS>ATOM
      1 CA         34.7905    2.9040   14.2905 C.3       3 GLC5        0.0000 
      2 CA         33.2570    1.6620   13.2250 C.3       9 GLL5        0.0000 
      3 CA         36.3240    4.1460   15.3560 C.3       6 GLP5        0.0000 
      4 CA         34.5645    2.5525   12.0755 C.3       3 GLC5        0.0000 
      5 CA         35.8720    3.4430   10.9260 C.3       6 GLP5        0.0000 
      6 CA         34.1175   -0.0845   12.7275 C.3       3 GLC5        0.0000 
      7 CA         34.9780   -1.8310   12.2300 C.3       6 GLP5        0.0000 
      8 CA         33.4725   -0.2540   14.2760 C.3       3 GLC5        0.0000 
      9 CA         33.6880   -2.1700   15.3270 C.3       6 GLP5        0.0000 
     10 CA         29.6895    3.8765   14.0510 C.3       3 GLC5        0.0000 
     11 CA         31.4650    3.3820   12.8380 C.3       9 GLL5        0.0000 
     12 CA         27.9140    4.3710   15.2640 C.3       6 GLP5        0.0000 
     13 CA         32.0935    5.0445   13.5330 C.3       3 GLC5        0.0000 
     14 CA         32.7220    6.7070   14.2280 C.3       6 GLP5        0.0000 
     15 CA         30.0280    4.1550   11.9640 C.3       3 GLC5        0.0000 
     16 CA         28.5910    4.9280   11.0900 C.3       6 GLP5        0.0000 
     17 CA         30.2170   -3.1280   13.9910 C.3       3 GLC5        0.0000 
     18 CA         29.8720   -1.5670   15.3990 C.3       9 GLL5        0.0000 
     19 CA         30.5620   -4.6890   12.5830 C.3       6 GLP5        0.0000 
     20 CA         29.4585   -3.6395   16.1140 C.3       3 GLC5        0.0000 
     21 CA         29.0450   -5.7120   16.8290 C.3       6 GLP5        0.0000 
     22 CA         31.7800   -1.8685   15.3630 C.3       3 GLC5        0.0000 
     23 CA         26.4565   -3.1665   17.5675 C.3       3 GLC5        0.0000 
     24 CA         26.6080   -1.8370   16.2730 C.3       9 GLL5        0.0000 
     25 CA         26.3050   -4.4960   18.8620 C.3       6 GLP5        0.0000 
     26 CA         27.0505    2.5355   15.9000 C.3       3 GLC5        0.0000 
     27 CA         26.1870    0.7000   16.5360 C.3       9 GLL5        0.0000 
     28 CA         28.2250    0.8170   20.1335 C.3       3 GLC5        0.0000 
     29 CA         27.2160   -0.5960   18.9960 C.3       9 GLL5        0.0000 
     30 CA         29.2340    2.2300   21.2710 C.3       6 GLP5        0.0000 
     31 CA         26.7605   -2.5460   18.9290 C.3       3 GLC5        0.0000 
     32 CA         23.1420   -2.3360   21.0225 C.3       3 GLC5        0.0000 
     33 CA         24.5070   -1.4980   20.1230 C.3       9 GLL5        0.0000 
     34 CA         21.7770   -3.1740   21.9220 C.3       6 GLP5        0.0000 
     35 CA         25.4060   -2.9970   19.4925 C.3       3 GLC5        0.0000 
     36 CA         27.4700    1.2440   21.3835 C.3       3 GLC5        0.0000 
     37 CA         25.7060    0.2580   21.4960 C.3       9 GLL5        0.0000 
     38 CA         24.5605   -0.4315   24.7120 C.3       3 GLC5        0.0000 
     39 CA         24.7860    0.1770   22.7200 C.3       9 GLL5        0.0000 
     40 CA         24.3350   -1.0400   26.7040 C.3       6 GLP5        0.0000 
     41 CA         24.1320    2.9780   21.8695 C.3       3 GLC5        0.0000 
     42 CA         23.6130    1.1630   22.6900 C.3       9 GLL5        0.0000 
     43 CA         24.6510    4.7930   21.0490 C.3       6 GLP5        0.0000 
     44 N          21.8415    1.2665   27.2150 N.am      1 SEC2        0.0000 
     45 N          21.4470    1.6690   25.6540 N.am      7 SEL2        0.0000 
     46 N          22.2360    0.8640   28.7760 N.am      4 SEP2        0.0000 
     47 N          21.1650    2.3260   26.7285 N.am      1 SEC2        0.0000 
     48 N          20.8830    2.9830   27.8030 N.am      4 SEP2        0.0000 
     49 N          19.2485    1.3505   24.1810 N.am      1 SEC2        0.0000 
     50 N          20.5660    1.6910   23.3990 N.am      7 SEL2        0.0000 
     51 N          17.9310    1.0100   24.9630 N.am      4 SEP2        0.0000 
     52 N          19.5255    2.7385   23.2925 N.am      1 SEC2        0.0000 
     53 N          18.4850    3.7860   23.1860 N.am      4 SEP2        0.0000 
     54 NZ         22.0120    4.9435   23.8990 N.4       2 LYC4        0.0000 
     55 NZ         22.2950    3.2940   23.9910 N.4       8 LYL4        0.0000 
     56 NZ         21.7290    6.5930   23.8070 N.4       5 LYP4        0.0000 
     57 CA         33.2477    3.3897   11.3513 C.3       3 GLC5        0.0000 
     58 CA         34.7040    4.0360   10.1310 C.3       6 GLP5        0.0000 
     59 CA         29.7937   -2.2735   12.5988 C.3       3 GLC5        0.0000 
     60 CA         29.3800   -0.5290   13.1740 C.3       9 GLL5        0.0000 
     61 CA         30.5150   -3.7530   11.3740 C.3       6 GLP5        0.0000 
     62 CA         27.5935    2.2793   14.9850 C.3       3 GLC5        0.0000 
     63 CA         27.8700   -0.0100   15.1490 C.3       9 GLL5        0.0000 
     64 CA         25.2482    1.8760   13.8605 C.3       3 GLC5        0.0000 
     65 CA         26.6760    0.3850   14.2630 C.3       9 GLL5        0.0000 
     66 CA         24.4260    3.2850   12.9910 C.3       6 GLP5        0.0000 
     67 CA         29.5143   -0.8382   19.1285 C.3       3 GLC5        0.0000 
     68 CA         28.0650   -0.3930   17.7300 C.3       9 GLL5        0.0000 
     69 CA         31.3880   -1.1820   19.8940 C.3       6 GLP5        0.0000 
     70 CA         23.0682    0.1440   17.3533 C.3       3 GLC5        0.0000 
     71 CA         25.3450    0.7330   17.8200 C.3       9 GLL5        0.0000 
     72 CA         21.3650   -0.8380   16.8560 C.3       6 GLP5        0.0000 
     73 CA         22.4627    0.1975   18.2250 C.3       3 GLC5        0.0000 
     74 CA         23.7190    0.8700   20.1650 C.3       9 GLL5        0.0000 
     75 CA         22.0895   -0.5917   22.3105 C.3       3 GLC5        0.0000 
     76 CA         22.8150    0.9560   21.4000 C.3       9 GLL5        0.0000 
     77 CA         20.9650   -2.2430   22.5760 C.3       6 GLP5        0.0000 
     78 CA         21.3148    1.1553   19.8244 C.3       3 GLC5        0.0000 
     79 CA         19.2950    1.0560   19.7460 C.3       6 GLP5        0.0000 
     80 CA         23.9928    3.0238   20.4759 C.3       3 GLC5        0.0000 
@<TRIPOS>BOND
@<TRIPOS>SUBSTRUCTURE
     1 SEC2       44 GROUP        1 X    SEC  0     ROOT SEC X 2
     2 LYC4       54 GROUP        1 X    LYC  0     **** LYC X 4
     3 GLC5        1 GROUP        1 X    GLC  0     **** GLC X 6
     4 SEP2       46 GROUP        1 Y    SEP  0     ROOT SEP Y 9
     5 LYP4       56 GROUP        1 Y    LYP  0     **** LYP Y 11
     6 GLP5        3 GROUP        1 Y    GLP  0     **** GLP Y 13
     7 SEL2       45 GROUP        1 Z    SEL  0     ROOT SEL Z 16
     8 LYL4       55 GROUP        1 Z    LYL  0     **** LYL Z 18
     9 GLL5        2 GROUP        1 Z    GLL  0     **** GLL Z 20
@<TRIPOS>SET

