#    Name: 2q9f_C3S_1_ligand
#    Modification time : Mon Mar 24 21:38:40 2014

@<TRIPOS>MOLECULE
2q9f_C3S_1_ligand
   77    80     1     0     0
SMALL
NO_CHARGES


@<TRIPOS>ATOM
      1 C65        33.2570    1.6620   13.2250 C.3       1 C3S600      0.0000 
      2 C63        32.1180    2.1050   12.3050 C.3       1 C3S600      0.0000 
      3 C69        31.4650    3.3820   12.8380 C.3       1 C3S600      0.0000 
      4 C60        31.0830    0.9940   12.1130 C.3       1 C3S600      0.0000 
      5 C57        30.3180    0.6590   13.3980 C.3       1 C3S600      0.0000 
      6 C54        29.3800   -0.5290   13.1740 C.3       1 C3S600      0.0000 
      7 C48        28.7650   -1.0590   14.4730 C.3       1 C3S600      0.0000 
      8 C50        29.8720   -1.5670   15.3990 C.3       1 C3S600      0.0000 
      9 C38        27.8700   -0.0100   15.1490 C.3       1 C3S600      0.0000 
     10 C35        26.6760    0.3850   14.2630 C.3       1 C3S600      0.0000 
     11 C29        27.2060   -0.4380   16.4630 C.3       1 C3S600      0.0000 
     12 C26        28.0650   -0.3930   17.7300 C.3       1 C3S600      0.0000 
     13 C40        26.6080   -1.8370   16.2730 C.3       1 C3S600      0.0000 
     14 C30        26.1870    0.7000   16.5360 C.3       1 C3S600      0.0000 
     15 C32        25.4650    0.5490   15.1970 C.3       1 C3S600      0.0000 
     16 C18        25.3450    0.7330   17.8200 C.3       1 C3S600      0.0000 
     17 C15        24.1980    1.5190   17.8810 C.3       1 C3S600      0.0000 
     18 C20        25.8640    0.1300   18.9660 C.3       1 C3S600      0.0000 
     19 C23        27.2160   -0.5960   18.9960 C.3       1 C3S600      0.0000 
     20 C22        24.9550   -0.0350   20.1930 C.3       1 C3S600      0.0000 
     21 C44        24.5070   -1.4980   20.1230 C.3       1 C3S600      0.0000 
     22 C12        23.7190    0.8700   20.1650 C.2       1 C3S600      0.0000 
     23 C9         22.8150    0.9560   21.4000 C.3       1 C3S600      0.0000 
     24 C13        23.4020    1.5960   19.0230 C.2       1 C3S600      0.0000 
     25 C1         25.7060    0.2580   21.4960 C.3       1 C3S600      0.0000 
     26 C4         24.7860    0.1770   22.7200 C.3       1 C3S600      0.0000 
     27 C7         23.6130    1.1630   22.6900 C.3       1 C3S600      0.0000 
     28 O6         22.8030    0.9260   23.8520 O.3       1 C3S600      0.0000 
     29 S1         21.8070    1.8960   24.2170 S.o2      1 C3S600      0.0000 
     30 O3         21.4470    1.6690   25.6540 O.co2     1 C3S600      0.0000 
     31 O2         20.5660    1.6910   23.3990 O.co2     1 C3S600      0.0000 
     32 O4         22.2950    3.2940   23.9910 O.co2     1 C3S600      0.0000 
     33 H          32.5501    2.3370   11.3252 H         1 C3S600      0.0000 
     34 H          31.5908    0.0897   11.7543 H         1 C3S600      0.0000 
     35 H          30.3661    1.3020   11.3413 H         1 C3S600      0.0000 
     36 H          29.7350    1.5246   13.7031 H         1 C3S600      0.0000 
     37 H          31.0285    0.4127   14.1833 H         1 C3S600      0.0000 
     38 H          29.9379   -1.3388   12.6870 H         1 C3S600      0.0000 
     39 H          28.5731   -0.2251   12.4952 H         1 C3S600      0.0000 
     40 H          28.1346   -1.9204   14.2078 H         1 C3S600      0.0000 
     41 H          28.4300    0.8974   15.3388 H         1 C3S600      0.0000 
     42 H          26.4806   -0.3953   13.5579 H         1 C3S600      0.0000 
     43 H          26.8828    1.3162   13.7789 H         1 C3S600      0.0000 
     44 H          28.5669    0.5731   17.7902 H         1 C3S600      0.0000 
     45 H          28.8211   -1.1771   17.6800 H         1 C3S600      0.0000 
     46 H          26.7852    1.6312   16.4591 H         1 C3S600      0.0000 
     47 H          24.8954   -0.3262   15.1928 H         1 C3S600      0.0000 
     48 H          24.9555    1.4298   14.9624 H         1 C3S600      0.0000 
     49 H          24.6514   -0.4117   17.4313 H         1 C3S600      0.0000 
     50 H          23.5124    1.2413   16.9743 H         1 C3S600      0.0000 
     51 H          24.4795    2.6074   17.5562 H         1 C3S600      0.0000 
     52 H          26.4117    1.2979   19.4769 H         1 C3S600      0.0000 
     53 H          27.7898   -0.2454   19.8678 H         1 C3S600      0.0000 
     54 H          27.0391   -1.6737   19.1353 H         1 C3S600      0.0000 
     55 H          22.2342    0.0325   21.4822 H         1 C3S600      0.0000 
     56 H          22.1161    1.7882   21.2735 H         1 C3S600      0.0000 
     57 H          22.5641    2.2025   19.0185 H         1 C3S600      0.0000 
     58 H          26.1406    1.2591   21.4414 H         1 C3S600      0.0000 
     59 H          26.5182   -0.4639   21.6112 H         1 C3S600      0.0000 
     60 H          25.3837    0.3616   23.6275 H         1 C3S600      0.0000 
     61 H          24.3882   -0.8479   22.7992 H         1 C3S600      0.0000 
     62 H          24.0195    2.1568   22.6887 H         1 C3S600      0.0000 
     63 H          33.6988    0.8282   12.8940 H         1 C3S600      0.0000 
     64 H          33.9682    2.3611   13.2987 H         1 C3S600      0.0000 
     65 H          32.9336    1.4740   14.1524 H         1 C3S600      0.0000 
     66 H          32.1181    4.1371   12.8953 H         1 C3S600      0.0000 
     67 H          30.7143    3.6876   12.2523 H         1 C3S600      0.0000 
     68 H          31.0871    3.2512   13.7545 H         1 C3S600      0.0000 
     69 H          30.3962   -2.3081   14.9794 H         1 C3S600      0.0000 
     70 H          30.5220   -0.8438   15.6323 H         1 C3S600      0.0000 
     71 H          29.5039   -1.9191   16.2596 H         1 C3S600      0.0000 
     72 H          27.3071   -2.5101   16.0316 H         1 C3S600      0.0000 
     73 H          26.1597   -2.1653   17.1044 H         1 C3S600      0.0000 
     74 H          25.9226   -1.8522   15.5449 H         1 C3S600      0.0000 
     75 H          25.2841   -2.1264   20.1572 H         1 C3S600      0.0000 
     76 H          23.9023   -1.7380   20.8825 H         1 C3S600      0.0000 
     77 H          24.0087   -1.6938   19.2784 H         1 C3S600      0.0000 
@<TRIPOS>BOND
     1    2    1 1    
     2   63    1 1    
     3   64    1 1    
     4   65    1 1    
     5    3    2 1    
     6    4    2 1    
     7   33    2 1    
     8   66    3 1    
     9   67    3 1    
    10   68    3 1    
    11    5    4 1    
    12   34    4 1    
    13   35    4 1    
    14    6    5 1    
    15   36    5 1    
    16   37    5 1    
    17    7    6 1    
    18   38    6 1    
    19   39    6 1    
    20    8    7 1    
    21    9    7 1    
    22   40    7 1    
    23   69    8 1    
    24   70    8 1    
    25   71    8 1    
    26   10    9 1    
    27   11    9 1    
    28   41    9 1    
    29   15   10 1    
    30   42   10 1    
    31   43   10 1    
    32   12   11 1    
    33   13   11 1    
    34   14   11 1    
    35   19   12 1    
    36   44   12 1    
    37   45   12 1    
    38   72   13 1    
    39   73   13 1    
    40   74   13 1    
    41   15   14 1    
    42   16   14 1    
    43   46   14 1    
    44   47   15 1    
    45   48   15 1    
    46   17   16 1    
    47   18   16 1    
    48   49   16 1    
    49   24   17 1    
    50   50   17 1    
    51   51   17 1    
    52   19   18 1    
    53   20   18 1    
    54   52   18 1    
    55   53   19 1    
    56   54   19 1    
    57   21   20 1    
    58   22   20 1    
    59   25   20 1    
    60   75   21 1    
    61   76   21 1    
    62   77   21 1    
    63   23   22 1    
    64   24   22 2    
    65   27   23 1    
    66   55   23 1    
    67   56   23 1    
    68   57   24 1    
    69   26   25 1    
    70   58   25 1    
    71   59   25 1    
    72   27   26 1    
    73   60   26 1    
    74   61   26 1    
    75   28   27 1    
    76   62   27 1    
    77   29   28 1    
    78   30   29 ar   
    79   31   29 ar   
    80   32   29 ar   
@<TRIPOS>SUBSTRUCTURE
     1 C3S600      1 GROUP   
@<TRIPOS>SET

