#    Name: 4gfm_0X2_1_INTS_M
#    Modification time : Mon Mar 24 22:10:03 2014

@<TRIPOS>MOLECULE
4gfm_0X2_1_INTS_M
   48     0     9     0     0
SMALL
NO_CHARGES


@<TRIPOS>ATOM
      1 CA         29.5645  -17.0300    1.3215 C.3       3 GLC5        0.0000 
      2 CA         30.5150  -16.7030    3.1850 C.3       9 GLL5        0.0000 
      3 CA         28.6140  -17.3570   -0.5420 C.3       6 GLP5        0.0000 
      4 CA         36.2435  -10.8000    2.6190 C.3       3 GLC5        0.0000 
      5 CA         35.0350  -12.3520    1.6830 C.3       9 GLL5        0.0000 
      6 CA         37.4520   -9.2480    3.5550 C.3       6 GLP5        0.0000 
      7 CA         36.6925  -13.0940    2.0035 C.3       3 GLC5        0.0000 
      8 CA         38.3500  -13.8360    2.3240 C.3       6 GLP5        0.0000 
      9 CA         33.6925   -9.7155    4.2810 C.3       3 GLC5        0.0000 
     10 CA         33.4840  -10.7420    2.5540 C.3       9 GLL5        0.0000 
     11 CA         33.9010   -8.6890    6.0080 C.3       6 GLP5        0.0000 
     12 CA         35.4680   -9.9950    3.0545 C.3       3 GLC5        0.0000 
     13 O          33.8375  -14.4485    2.6285 O.2       1 ALC1        0.0000 
     14 O          33.1430  -13.1710    2.9280 O.2       7 ALL1        0.0000 
     15 O          34.5320  -15.7260    2.3290 O.2       4 ALP1        0.0000 
     16 N          34.0335   -7.3375    1.1845 N.am      2 SEC2        0.0000 
     17 N          33.9320   -8.5490    2.0900 N.am      8 SEL2        0.0000 
     18 N          34.1350   -6.1260    0.2790 N.am      5 SEP2        0.0000 
     19 CA         32.0610  -11.8760    7.0830 C.3       3 GLC5        0.0000 
     20 CA         31.6120  -13.8310    6.4550 C.3       9 GLL5        0.0000 
     21 CA         32.5100   -9.9210    7.7110 C.3       6 GLP5        0.0000 
     22 CA         31.0630  -13.6945    8.0925 C.3       3 GLC5        0.0000 
     23 CA         30.5140  -13.5580    9.7300 C.3       6 GLP5        0.0000 
     24 CA         33.3895  -13.5975    6.6490 C.3       3 GLC5        0.0000 
     25 CA         35.1670  -13.3640    6.8430 C.3       6 GLP5        0.0000 
     26 CA         30.9970  -16.7465    7.6635 C.3       3 GLC5        0.0000 
     27 CA         30.6790  -16.2070    5.5280 C.3       9 GLL5        0.0000 
     28 CA         31.3150  -17.2860    9.7990 C.3       6 GLP5        0.0000 
     29 CA         29.9225  -16.1580    0.3170 C.3       3 GLC5        0.0000 
     30 CA         31.2310  -14.9590    1.1760 C.3       9 GLL5        0.0000 
     31 CA         30.8045  -13.1270    0.8265 C.3       3 GLC5        0.0000 
     32 CA         30.3780  -11.2950    0.4770 C.3       6 GLP5        0.0000 
     33 CA         32.1180  -14.9055   -0.6000 C.3       3 GLC5        0.0000 
     34 CA         33.0050  -14.8520   -2.3760 C.3       6 GLP5        0.0000 
     35 CA         32.1260  -16.6185    0.9380 C.3       3 GLC5        0.0000 
     36 CA         33.0210  -18.2780    0.7000 C.3       6 GLP5        0.0000 
     37 CA         33.2512  -14.7408    5.3543 C.3       3 GLC5        0.0000 
     38 CA         31.1910  -14.9590    5.1820 C.3       9 GLL5        0.0000 
     39 CA         35.2210  -14.7330    6.1780 C.3       6 GLP5        0.0000 
     40 CA         31.8960  -17.1740    1.8667 C.3       3 GLC5        0.0000 
     41 CA         31.0270  -15.4370    2.8820 C.3       9 GLL5        0.0000 
     42 CA         34.9030  -11.9023    4.1242 C.3       3 GLC5        0.0000 
     43 CA         33.8770  -12.0740    2.4230 C.3       9 GLL5        0.0000 
     44 CA         35.8360  -12.3270    5.9450 C.3       6 GLP5        0.0000 
     45 CA         33.2440  -11.4753    0.7358 C.3       3 GLC5        0.0000 
     46 CA         32.5180  -11.4730   -0.8320 C.3       6 GLP5        0.0000 
     47 CA         31.0800  -18.2488    6.0185 C.3       3 GLC5        0.0000 
     48 CA         31.6510  -19.8460    7.0180 C.3       6 GLP5        0.0000 
@<TRIPOS>BOND
@<TRIPOS>SUBSTRUCTURE
     1 ALC1       13 GROUP        1 X    ALC  0     ROOT ALC X 1
     2 SEC2       16 GROUP        1 X    SEC  0     **** SEC X 2
     3 GLC5        1 GROUP        1 X    GLC  0     **** GLC X 6
     4 ALP1       15 GROUP        1 Y    ALP  0     ROOT ALP Y 8
     5 SEP2       18 GROUP        1 Y    SEP  0     **** SEP Y 9
     6 GLP5        3 GROUP        1 Y    GLP  0     **** GLP Y 13
     7 ALL1       14 GROUP        1 Z    ALL  0     ROOT ALL Z 15
     8 SEL2       17 GROUP        1 Z    SEL  0     **** SEL Z 16
     9 GLL5        2 GROUP        1 Z    GLL  0     **** GLL Z 20
@<TRIPOS>SET

