#    Name: 4gfm_0X2_1_ligand
#    Modification time : Mon Mar 24 22:10:03 2014

@<TRIPOS>MOLECULE
4gfm_0X2_1_ligand
   26    27     1     0     0
SMALL
NO_CHARGES


@<TRIPOS>ATOM
      1 C4         31.3720  -14.5380    3.8790 C.ar      1 0X21201     0.0000 
      2 C5         31.0270  -15.4370    2.8820 C.ar      1 0X21201     0.0000 
      3 C6         30.5150  -16.7030    3.1850 C.ar      1 0X21201     0.0000 
      4 C11        34.2660   -9.7440    1.9680 C.2       1 0X21201     0.0000 
      5 C7         31.9350  -13.1700    3.5130 C.2       1 0X21201     0.0000 
      6 C8         33.8770  -12.0740    2.4230 C.2       1 0X21201     0.0000 
      7 C9         35.0350  -12.3520    1.6830 C.3       1 0X21201     0.0000 
      8 C10        35.7870  -11.3140    1.1180 C.2       1 0X21201     0.0000 
      9 C12        33.4840  -10.7420    2.5540 C.2       1 0X21201     0.0000 
     10 N1         33.1430  -13.1710    2.9280 N.am      1 0X21201     0.0000 
     11 N2         35.3840  -10.0480    1.2590 N.2       1 0X21201     0.0000 
     12 C3         31.1910  -14.9590    5.1820 C.ar      1 0X21201     0.0000 
     13 O2         33.9320   -8.5490    2.0900 O.2       1 0X21201     0.0000 
     14 O1         31.3230  -12.1280    3.7490 O.2       1 0X21201     0.0000 
     15 CL2        31.6120  -13.8310    6.4550 Cl        1 0X21201     0.0000 
     16 C2         30.6790  -16.2070    5.5280 C.ar      1 0X21201     0.0000 
     17 CL1        31.2310  -14.9590    1.1760 Cl        1 0X21201     0.0000 
     18 C1         30.3390  -17.0960    4.5100 C.ar      1 0X21201     0.0000 
     19 H          30.2670  -17.3477    2.4210 H         1 0X21201     0.0000 
     20 H          34.7679  -13.1128    0.8496 H         1 0X21201     0.0000 
     21 H          35.7379  -13.0103    2.3290 H         1 0X21201     0.0000 
     22 H          36.6482  -11.5574    0.5981 H         1 0X21201     0.0000 
     23 H          32.6385  -10.4996    3.0698 H         1 0X21201     0.0000 
     24 H          33.6466  -14.1348    2.8154 H         1 0X21201     0.0000 
     25 H          30.5553  -16.4653    6.5051 H         1 0X21201     0.0000 
     26 H          29.9673  -18.0195    4.7317 H         1 0X21201     0.0000 
@<TRIPOS>BOND
     1    2    1 ar   
     2    5    1 1    
     3   12    1 ar   
     4    3    2 ar   
     5   17    2 1    
     6   18    3 ar   
     7   19    3 1    
     8    9    4 1    
     9   11    4 1    
    10   13    4 2    
    11   10    5 am   
    12   14    5 2    
    13    7    6 1    
    14    9    6 2    
    15   10    6 1    
    16    8    7 1    
    17   20    7 1    
    18   21    7 1    
    19   11    8 2    
    20   22    8 1    
    21   23    9 1    
    22   24   10 1    
    23   15   12 1    
    24   16   12 ar   
    25   18   16 ar   
    26   25   16 1    
    27   26   18 1    
@<TRIPOS>SUBSTRUCTURE
     1 0X21201     1 GROUP   
@<TRIPOS>SET

