#    Name: 3QKT_1_CAVITY_N1_ALL.mol2
#    Modification time : Mon Mar 10 18:05:43 2014

@<TRIPOS>MOLECULE
3QKT_1_CAVITY_N1_ALL.mol2
   63     0     5     0     0
SMALL
NO_CHARGES


@<TRIPOS>ATOM
      1 CA         21.5413   15.7546   -0.6516 C.3       4 GLY6        0.0000 
      2 O          19.7455   15.9315    0.4636 O.2       1 ALA2        0.0000 
      3 CA         20.1288   16.1456   -0.9707 C.3       4 GLY6        0.0000 
      4 NZ         20.5121   16.3598   -2.4050 N.2       3 LYS4        0.0000 
      5 CA         18.3329   16.3225    0.1444 C.3       4 GLY6        0.0000 
      6 N          18.7163   16.5367   -1.2899 N.2       1 ALA2        0.0000 
      7 NZ         19.0996   16.7508   -2.7242 N.2       3 LYS4        0.0000 
      8 N          17.3037   16.9277   -1.6090 N.2       1 ALA2        0.0000 
      9 NZ         17.6871   17.1418   -3.0433 N.2       3 LYS4        0.0000 
     10 NZ         18.0704   17.3560   -4.4776 N.2       3 LYS4        0.0000 
     11 O          15.8912   17.3187   -1.9282 O.2       1 ALA2        0.0000 
     12 O          16.2745   17.5328   -3.3625 O.2       1 ALA2        0.0000 
     13 DU         16.6579   17.7470   -4.7968 H         5 CUB7        0.0000 
     14 NZ         17.0412   17.9611   -6.2310 N.2       3 LYS4        0.0000 
     15 N          14.8620   17.9238   -3.6816 N.2       1 ALA2        0.0000 
     16 N          15.2453   18.1380   -5.1159 N.2       1 ALA2        0.0000 
     17 CA         15.6287   18.3521   -6.5502 C.3       4 GLY6        0.0000 
     18 O          18.8263   14.1005   -4.7616 O.2       1 ALA2        0.0000 
     19 NZ         19.2096   14.3147   -6.1959 N.2       3 LYS4        0.0000 
     20 O          17.0304   14.2774   -3.6465 O.2       1 ALA2        0.0000 
     21 OD1        17.4138   14.4915   -5.0808 O.3       2 ASP3        0.0000 
     22 NZ         17.7971   14.7057   -6.5151 N.2       3 LYS4        0.0000 
     23 O          15.6179   14.6684   -3.9656 O.2       1 ALA2        0.0000 
     24 O          16.0012   14.8825   -5.3999 O.2       1 ALA2        0.0000 
     25 CA         19.8005   14.7134   -1.2723 C.3       4 GLY6        0.0000 
     26 N          20.1838   14.9276   -2.7066 N.2       1 ALA2        0.0000 
     27 N          18.3879   15.1044   -1.5915 N.2       1 ALA2        0.0000 
     28 N          18.7713   15.3186   -3.0258 N.2       1 ALA2        0.0000 
     29 NZ         19.1546   15.5327   -4.4601 N.2       3 LYS4        0.0000 
     30 N          17.3587   15.7096   -3.3449 N.2       1 ALA2        0.0000 
     31 NZ         17.7421   15.9237   -4.7792 N.2       3 LYS4        0.0000 
     32 N          15.5629   15.8865   -2.2298 N.2       1 ALA2        0.0000 
     33 N          15.9462   16.1006   -3.6640 N.2       1 ALA2        0.0000 
     34 CA         16.3295   16.3148   -5.0983 C.3       4 GLY6        0.0000 
     35 NZ         16.7129   16.5289   -6.5326 N.2       3 LYS4        0.0000 
     36 O          14.5337   16.4916   -3.9832 O.2       1 ALA2        0.0000 
     37 O          21.8697   17.1868   -0.3500 O.2       1 ALA2        0.0000 
     38 O          20.4571   17.5779   -0.6692 O.2       1 ALA2        0.0000 
     39 NZ         20.8405   17.7920   -2.1035 N.2       3 LYS4        0.0000 
     40 CA         19.0446   17.9689   -0.9883 C.3       4 GLY6        0.0000 
     41 NZ         19.4279   18.1830   -2.4226 N.2       3 LYS4        0.0000 
     42 CA         17.2487   18.1458    0.1268 C.3       4 GLY6        0.0000 
     43 CA         17.6321   18.3599   -1.3074 C.3       4 GLY6        0.0000 
     44 NZ         18.0154   18.5740   -2.7417 N.2       3 LYS4        0.0000 
     45 NZ         18.3987   18.7882   -4.1760 N.2       3 LYS4        0.0000 
     46 O          18.7821   19.0023   -5.6103 O.2       1 ALA2        0.0000 
     47 CA         15.8362   18.5368   -0.1923 C.3       4 GLY6        0.0000 
     48 CA         16.2195   18.7509   -1.6266 C.3       4 GLY6        0.0000 
     49 DU         16.6029   18.9651   -3.0609 H         5 CUB7        0.0000 
     50 CA         16.9862   19.1792   -4.4952 C.3       4 GLY6        0.0000 
     51 O          17.3695   19.3933   -5.9295 O.2       1 ALA2        0.0000 
     52 N          15.1903   19.3561   -3.3800 N.2       1 ALA2        0.0000 
     53 CA         19.3729   19.4011   -0.6867 C.3       4 GLY6        0.0000 
     54 NZ         19.7563   19.6152   -2.1210 N.2       3 LYS4        0.0000 
     55 NZ         20.1396   19.8294   -3.5553 N.2       3 LYS4        0.0000 
     56 CA         17.9604   19.7921   -1.0059 C.3       4 GLY6        0.0000 
     57 DU         18.3437   20.0063   -2.4402 H         5 CUB7        0.0000 
     58 N          18.7271   20.2204   -3.8744 N.2       1 ALA2        0.0000 
     59 CA         16.5478   20.1831   -1.3250 C.3       4 GLY6        0.0000 
     60 N          16.9312   20.3973   -2.7593 N.2       1 ALA2        0.0000 
     61 N          17.3145   20.6114   -4.1936 N.2       1 ALA2        0.0000 
     62 CA         18.8813   12.8824   -6.4975 C.3       4 GLY6        0.0000 
     63 O          17.4688   13.2734   -6.8167 O.2       1 ALA2        0.0000 
@<TRIPOS>BOND
@<TRIPOS>SUBSTRUCTURE
     1 ALA2        2 GROUP   
     2 ASP3       21 GROUP   
     3 LYS4        4 GROUP   
     4 GLY6        1 GROUP   
     5 CUB7       13 GROUP   
@<TRIPOS>SET

