#    Name: 3QKT_1_CAVITY_N1_6.mol2
#    Modification time : Mon Mar 10 18:05:43 2014

@<TRIPOS>MOLECULE
3QKT_1_CAVITY_N1_6.mol2
   29     0     5     0     0
SMALL
NO_CHARGES


@<TRIPOS>ATOM
      1 N          17.3037   16.9277   -1.6090 N.2       1 ALA2        0.0000 
      2 NZ         17.6871   17.1418   -3.0433 N.2       3 LYS4        0.0000 
      3 NZ         18.0704   17.3560   -4.4776 N.2       3 LYS4        0.0000 
      4 O          15.8912   17.3187   -1.9282 O.2       1 ALA2        0.0000 
      5 O          16.2745   17.5328   -3.3625 O.2       1 ALA2        0.0000 
      6 DU         16.6579   17.7470   -4.7968 H         5 CUB7        0.0000 
      7 NZ         17.0412   17.9611   -6.2310 N.2       3 LYS4        0.0000 
      8 N          14.8620   17.9238   -3.6816 N.2       1 ALA2        0.0000 
      9 N          15.2453   18.1380   -5.1159 N.2       1 ALA2        0.0000 
     10 CA         15.6287   18.3521   -6.5502 C.3       4 GLY6        0.0000 
     11 O          18.8263   14.1005   -4.7616 O.2       1 ALA2        0.0000 
     12 O          17.0304   14.2774   -3.6465 O.2       1 ALA2        0.0000 
     13 OD1        17.4138   14.4915   -5.0808 O.3       2 ASP3        0.0000 
     14 NZ         17.7971   14.7057   -6.5151 N.2       3 LYS4        0.0000 
     15 O          15.6179   14.6684   -3.9656 O.2       1 ALA2        0.0000 
     16 O          16.0012   14.8825   -5.3999 O.2       1 ALA2        0.0000 
     17 N          18.7713   15.3186   -3.0258 N.2       1 ALA2        0.0000 
     18 NZ         19.1546   15.5327   -4.4601 N.2       3 LYS4        0.0000 
     19 N          17.3587   15.7096   -3.3449 N.2       1 ALA2        0.0000 
     20 NZ         17.7421   15.9237   -4.7792 N.2       3 LYS4        0.0000 
     21 N          15.5629   15.8865   -2.2298 N.2       1 ALA2        0.0000 
     22 N          15.9462   16.1006   -3.6640 N.2       1 ALA2        0.0000 
     23 CA         16.3295   16.3148   -5.0983 C.3       4 GLY6        0.0000 
     24 NZ         16.7129   16.5289   -6.5326 N.2       3 LYS4        0.0000 
     25 O          14.5337   16.4916   -3.9832 O.2       1 ALA2        0.0000 
     26 CA         16.2195   18.7509   -1.6266 C.3       4 GLY6        0.0000 
     27 N          15.1903   19.3561   -3.3800 N.2       1 ALA2        0.0000 
     28 CA         18.8813   12.8824   -6.4975 C.3       4 GLY6        0.0000 
     29 O          17.4688   13.2734   -6.8167 O.2       1 ALA2        0.0000 
@<TRIPOS>BOND
@<TRIPOS>SUBSTRUCTURE
     1 ALA2        1 GROUP   
     2 ASP3       13 GROUP   
     3 LYS4        2 GROUP   
     4 GLY6       10 GROUP   
     5 CUB7        6 GROUP   
@<TRIPOS>SET

