#    Name: 3qkt_ANP_1_INTS_M
#    Modification time : Mon Apr  7 19:38:21 2014

@<TRIPOS>MOLECULE
3qkt_ANP_1_INTS_M
   94     0    15     0     0
SMALL
NO_CHARGES


@<TRIPOS>ATOM
      1 Zn         11.0820   17.6840   -4.1800 Zn        4 ZIC7        0.0000 
      2 Zn         10.6250   17.7240   -3.2740 Zn       14 ZIL7        0.0000 
      3 Zn         11.5390   17.6440   -5.0860 Zn        9 ZIP7        0.0000 
      4 N          11.2195   19.0635   -3.0950 N.am      2 SEC2        0.0000 
      5 N          10.6250   17.7240   -3.2740 N.am     12 SEL2        0.0000 
      6 N          11.8140   20.4030   -2.9160 N.am      7 SEP2        0.0000 
      7 N          11.9560   17.2930   -2.2610 N.am      2 SEC2        0.0000 
      8 N          13.2870   16.8620   -1.2480 N.am      7 SEP2        0.0000 
      9 N          10.4315   15.5820   -0.8770 N.am      2 SEC2        0.0000 
     10 N           9.7250   16.5850   -1.2970 N.am     12 SEL2        0.0000 
     11 N          11.1380   14.5790   -0.4570 N.am      7 SEP2        0.0000 
     12 N          10.5090   17.3260   -0.4395 N.am      2 SEC2        0.0000 
     13 N          11.2930   18.0670    0.4180 N.am      7 SEP2        0.0000 
     14 NZ          7.4320   17.6695   -3.9465 N.4       3 LYC4        0.0000 
     15 NZ          8.1890   17.6370   -2.7950 N.4      13 LYL4        0.0000 
     16 NZ          6.6750   17.7020   -5.0980 N.4       8 LYP4        0.0000 
     17 N           7.5570   17.6995   -1.5185 N.am      2 SEC2        0.0000 
     18 N           8.1890   17.6370   -2.7950 N.am     12 SEL2        0.0000 
     19 N           6.9250   17.7620   -0.2420 N.am      7 SEP2        0.0000 
     20 N           7.4320   17.6695   -3.9465 N.am      2 SEC2        0.0000 
     21 N           6.6750   17.7020   -5.0980 N.am      7 SEP2        0.0000 
     22 Zn         11.1180   16.6875   -5.3790 Zn        4 ZIC7        0.0000 
     23 Zn         10.6970   15.7310   -5.6720 Zn       14 ZIL7        0.0000 
     24 N          11.0975   15.6805   -7.0805 N.am      2 SEC2        0.0000 
     25 N          10.6970   15.7310   -5.6720 N.am     12 SEL2        0.0000 
     26 N          11.4980   15.6300   -8.4890 N.am      7 SEP2        0.0000 
     27 N           8.2295   12.9700   -4.8095 N.am      2 SEC2        0.0000 
     28 N           8.8730   14.1590   -5.6780 N.am     12 SEL2        0.0000 
     29 N           7.5860   11.7810   -3.9410 N.am      7 SEP2        0.0000 
     30 N           8.8080   12.8525   -6.1080 N.am      2 SEC2        0.0000 
     31 N           8.7430   11.5460   -6.5380 N.am      7 SEP2        0.0000 
     32 N           9.0525   13.9070   -7.0100 N.am      2 SEC2        0.0000 
     33 N           9.2320   13.6550   -8.3420 N.am      7 SEP2        0.0000 
     34 N          12.7440   13.2795   -7.7040 N.am      2 SEC2        0.0000 
     35 N          12.0710   12.8680   -6.4950 N.am     12 SEL2        0.0000 
     36 N          13.4170   13.6910   -8.9130 N.am      7 SEP2        0.0000 
     37 N          12.9690   12.0295   -6.9705 N.am      2 SEC2        0.0000 
     38 N          13.8670   11.1910   -7.4460 N.am      7 SEP2        0.0000 
     39 N          14.6080   12.8765   -4.3095 N.am      2 SEC2        0.0000 
     40 N          13.3710   14.0030   -4.7860 N.am     12 SEL2        0.0000 
     41 N          15.8450   11.7500   -3.8330 N.am      7 SEP2        0.0000 
     42 N          14.2120   11.7525   -4.0565 N.am      2 SEC2        0.0000 
     43 N          12.5790   11.7550   -4.2800 N.am     12 SEL2        0.0000 
     44 CA         10.6140   11.0260   -5.9835 C.3       5 GLC5        0.0000 
     45 CA         11.6290   10.7250   -4.2660 C.3      15 GLL5        0.0000 
     46 CA          9.5990   11.3270   -7.7010 C.3      10 GLP5        0.0000 
     47 CA         11.8045   12.4475   -2.8930 C.3       5 GLC5        0.0000 
     48 CA         11.9800   14.1700   -1.5200 C.3      10 GLP5        0.0000 
     49 CA         12.2535   12.0270   -1.8355 C.3       5 GLC5        0.0000 
     50 CA         12.5270    9.8840   -2.1510 C.3      15 GLL5        0.0000 
     51 N          10.3705    9.4130   -0.6635 N.am      2 SEC2        0.0000 
     52 N          11.5040   10.0800   -1.2100 N.am     12 SEL2        0.0000 
     53 N           9.2370    8.7460   -0.1170 N.am      7 SEP2        0.0000 
     54 O          11.8205   10.8230    0.0110 O.2       1 ALC1        0.0000 
     55 O          11.5040   10.0800   -1.2100 O.2      11 ALL1        0.0000 
     56 O          12.1370   11.5660    1.2320 O.2       6 ALP1        0.0000 
     57 O          12.8205    8.4930    0.4855 O.2       1 ALC1        0.0000 
     58 O          12.6520    7.9400   -0.8000 O.2      11 ALL1        0.0000 
     59 O          12.9890    9.0460    1.7710 O.2       6 ALP1        0.0000 
     60 CA         12.3815    7.5530   -4.7285 C.3       5 GLC5        0.0000 
     61 CA         13.4430    7.9290   -2.9990 C.3      15 GLL5        0.0000 
     62 CA         11.3200    7.1770   -6.4580 C.3      10 GLP5        0.0000 
     63 CA         17.1505    3.7845   -6.0685 C.3       5 GLC5        0.0000 
     64 CA         17.0060    5.0860   -4.5510 C.3      15 GLL5        0.0000 
     65 CA         17.2950    2.4830   -7.5860 C.3      10 GLP5        0.0000 
     66 CA         17.3860    3.4065   -3.4435 C.3       5 GLC5        0.0000 
     67 CA         17.7660    1.7270   -2.3360 C.3      10 GLP5        0.0000 
     68 O          19.8495    5.6240   -5.0805 O.2       1 ALC1        0.0000 
     69 O          18.4380    5.0420   -4.9190 O.2      11 ALL1        0.0000 
     70 O          21.2610    6.2060   -5.2420 O.2       6 ALP1        0.0000 
     71 O          19.1365    4.0595   -5.8295 O.2       1 ALC1        0.0000 
     72 O          19.8350    3.0770   -6.7400 O.2       6 ALP1        0.0000 
     73 N          16.7745    2.7105   -5.0335 N.am      2 SEC2        0.0000 
     74 N          16.2220    3.9980   -4.6810 N.am     12 SEL2        0.0000 
     75 N          17.3270    1.4230   -5.3860 N.am      7 SEP2        0.0000 
     76 CA         15.4920    5.4555   -5.9360 C.3       5 GLC5        0.0000 
     77 CA         14.9190    4.0260   -4.3830 C.3      15 GLL5        0.0000 
     78 CA         16.0650    6.8850   -7.4890 C.3      10 GLP5        0.0000 
     79 CA         13.6155    5.1180   -5.7440 C.3       5 GLC5        0.0000 
     80 CA         12.3120    6.2100   -7.1050 C.3      10 GLP5        0.0000 
     81 CA         14.8635    2.9590   -5.9640 C.3       5 GLC5        0.0000 
     82 CA         14.8080    1.8920   -7.5450 C.3      10 GLP5        0.0000 
     83 CA         16.3425    2.8765   -3.3595 C.3       5 GLC5        0.0000 
     84 CA         13.6965    6.2345   -5.4465 C.3       5 GLC5        0.0000 
     85 CA         15.0810    6.2590   -3.7880 C.3      15 GLL5        0.0000 
     86 CA         11.5512    8.6513   -5.1575 C.3       5 GLC5        0.0000 
     87 CA         11.9360    9.5260   -3.4480 C.3      15 GLL5        0.0000 
     88 CA         10.4844   10.9824   -2.4250 C.3       5 GLC5        0.0000 
     89 CA          8.8140   11.9600   -1.8460 C.3      10 GLP5        0.0000 
     90 CA         14.3773    7.3125   -1.2620 C.3       5 GLC5        0.0000 
     91 CA         13.3260    8.7110   -1.7790 C.3      15 GLL5        0.0000 
     92 CA         15.3700    6.3050   -0.1350 C.3      10 GLP5        0.0000 
     93 CA         15.9825    6.4254   -5.7728 C.3       5 GLC5        0.0000 
     94 CA         16.4320    6.2590   -4.0990 C.3      15 GLL5        0.0000 
@<TRIPOS>BOND
@<TRIPOS>SUBSTRUCTURE
     1 ALC1       54 GROUP        1 X    ALC  0     ROOT ALC X 1
     2 SEC2        4 GROUP        1 X    SEC  0     **** SEC X 2
     3 LYC4       14 GROUP        1 X    LYC  0     **** LYC X 4
     4 ZIC7        1 GROUP        1 X    ZIC  0     **** ZIC X 5
     5 GLC5       44 GROUP        1 X    GLC  0     **** GLC X 6
     6 ALP1       56 GROUP        1 Y    ALP  0     ROOT ALP Y 8
     7 SEP2        6 GROUP        1 Y    SEP  0     **** SEP Y 9
     8 LYP4       16 GROUP        1 Y    LYP  0     **** LYP Y 11
     9 ZIP7        3 GROUP        1 Y    ZIP  0     **** ZIP Y 12
    10 GLP5       46 GROUP        1 Y    GLP  0     **** GLP Y 13
    11 ALL1       55 GROUP        1 Z    ALL  0     ROOT ALL Z 15
    12 SEL2        5 GROUP        1 Z    SEL  0     **** SEL Z 16
    13 LYL4       15 GROUP        1 Z    LYL  0     **** LYL Z 18
    14 ZIL7        2 GROUP        1 Z    ZIL  0     **** ZIL Z 19
    15 GLL5       45 GROUP        1 Z    GLL  0     **** GLL Z 20
@<TRIPOS>SET

