#    Name: 3qkt_ANP_1_ligand
#    Modification time : Mon Apr  7 19:38:21 2014

@<TRIPOS>MOLECULE
3qkt_ANP_1_ligand
   43    45     1     0     0
SMALL
NO_CHARGES


@<TRIPOS>ATOM
      1 PG          9.4770   16.8610   -2.7360 P.3       1 ANP901      0.0000 
      2 O1G        10.6250   17.7240   -3.2740 O.co2     1 ANP901      0.0000 
      3 O2G         9.7250   16.5850   -1.2970 O.co2     1 ANP901      0.0000 
      4 O3G         8.1890   17.6370   -2.7950 O.co2     1 ANP901      0.0000 
      5 PB          9.9430   14.8200   -4.7970 P.3       1 ANP901      0.0000 
      6 O1B        10.6970   15.7310   -5.6720 O.co2     1 ANP901      0.0000 
      7 O2B         8.8730   14.1590   -5.6780 O.co2     1 ANP901      0.0000 
      8 N3B         9.2520   15.4740   -3.5260 N.4       1 ANP901      0.0000 
      9 PA         12.2520   13.1100   -5.0310 P.3       1 ANP901      0.0000 
     10 O1A        12.0710   12.8680   -6.4950 O.co2     1 ANP901      0.0000 
     11 O2A        13.3710   14.0030   -4.7860 O.co2     1 ANP901      0.0000 
     12 O3A        10.9050   13.6510   -4.3180 O.3       1 ANP901      0.0000 
     13 O5'        12.5790   11.7550   -4.2800 O.3       1 ANP901      0.0000 
     14 C5'        11.6290   10.7250   -4.2660 C.3       1 ANP901      0.0000 
     15 C4'        11.9360    9.5260   -3.4480 C.3       1 ANP901      0.0000 
     16 O4'        12.9220    8.7860   -4.0610 O.3       1 ANP901      0.0000 
     17 C3'        12.5270    9.8840   -2.1510 C.3       1 ANP901      0.0000 
     18 O3'        11.5040   10.0800   -1.2100 O.3       1 ANP901      0.0000 
     19 C2'        13.3260    8.7110   -1.7790 C.3       1 ANP901      0.0000 
     20 O2'        12.6520    7.9400   -0.8000 O.3       1 ANP901      0.0000 
     21 C1'        13.4430    7.9290   -2.9990 C.3       1 ANP901      0.0000 
     22 N9         14.7890    7.4950   -3.3720 N.pl3     1 ANP901      0.0000 
     23 C8         15.9100    8.2480   -3.4200 C.2       1 ANP901      0.0000 
     24 N7         16.9180    7.4990   -3.8620 N.2       1 ANP901      0.0000 
     25 C5         16.4320    6.2590   -4.0990 C.ar      1 ANP901      0.0000 
     26 C6         17.0060    5.0860   -4.5510 C.ar      1 ANP901      0.0000 
     27 N6         18.4380    5.0420   -4.9190 N.pl3     1 ANP901      0.0000 
     28 N1         16.2220    3.9980   -4.6810 N.ar      1 ANP901      0.0000 
     29 C2         14.9190    4.0260   -4.3830 C.ar      1 ANP901      0.0000 
     30 N3         14.3350    5.1360   -3.9380 N.ar      1 ANP901      0.0000 
     31 C4         15.0810    6.2590   -3.7880 C.ar      1 ANP901      0.0000 
     32 H          11.4106   10.3683   -5.3227 H         1 ANP901      0.0000 
     33 H          10.6182   11.1181   -3.9263 H         1 ANP901      0.0000 
     34 H          11.0515    8.9500   -3.2855 H         1 ANP901      0.0000 
     35 H          13.1583   10.7250   -2.2683 H         1 ANP901      0.0000 
     36 H          14.2917    9.0223   -1.4582 H         1 ANP901      0.0000 
     37 H          12.7782    7.0599   -2.9351 H         1 ANP901      0.0000 
     38 H          15.9605    9.1866   -3.1691 H         1 ANP901      0.0000 
     39 H          18.7851    4.1577   -5.2314 H         1 ANP901      0.0000 
     40 H          18.9429    5.9001   -4.8255 H         1 ANP901      0.0000 
     41 H          14.3441    3.1485   -4.5040 H         1 ANP901      0.0000 
     42 H          11.9169   10.6402   -0.4919 H         1 ANP901      0.0000 
     43 H          13.1757    8.0749    0.0411 H         1 ANP901      0.0000 
@<TRIPOS>BOND
     1    2    1 ar   
     2    3    1 ar   
     3    4    1 ar   
     4    8    1 1    
     5    6    5 ar   
     6    7    5 ar   
     7    8    5 1    
     8   12    5 1    
     9   10    9 ar   
    10   11    9 ar   
    11   12    9 1    
    12   13    9 1    
    13   14   13 1    
    14   15   14 1    
    15   32   14 1    
    16   33   14 1    
    17   16   15 1    
    18   17   15 1    
    19   34   15 1    
    20   21   16 1    
    21   18   17 1    
    22   19   17 1    
    23   35   17 1    
    24   42   18 1    
    25   20   19 1    
    26   21   19 1    
    27   36   19 1    
    28   43   20 1    
    29   22   21 1    
    30   37   21 1    
    31   23   22 1    
    32   31   22 1    
    33   24   23 2    
    34   38   23 1    
    35   25   24 1    
    36   26   25 ar   
    37   31   25 ar   
    38   27   26 1    
    39   28   26 ar   
    40   39   27 1    
    41   40   27 1    
    42   29   28 ar   
    43   30   29 ar   
    44   41   29 1    
    45   31   30 ar   
@<TRIPOS>SUBSTRUCTURE
     1 ANP901      1 GROUP   
@<TRIPOS>SET

