#    Name: 1p6i_DP3_2_ligand
#    Modification time : Mon Mar 24 21:09:27 2014

@<TRIPOS>MOLECULE
1p6i_DP3_2_ligand
   32    31     1     0     0
SMALL
NO_CHARGES


@<TRIPOS>ATOM
      1 N2'        19.5970    4.5510   54.7760 N.3       1 DP3794      0.0000 
      2 C2'        19.2610    4.4770   56.2420 C.3       1 DP3794      0.0000 
      3 C1'        19.1460    3.0210   56.7780 C.3       1 DP3794      0.0000 
      4 N1'        17.8050    2.3940   56.5800 N.4       1 DP3794      0.0000 
      5 C          17.5670    1.1530   57.3630 C.3       1 DP3794      0.0000 
      6 CA         16.1570    0.5110   57.1680 C.3       1 DP3794      0.0000 
      7 N          16.3130   -0.7470   56.3890 N.3       1 DP3794      0.0000 
      8 CB         15.4530    0.0930   58.5020 C.3       1 DP3794      0.0000 
      9 CG         14.5910    1.2030   59.1270 C.3       1 DP3794      0.0000 
     10 CD         13.3100    1.4870   58.3370 C.3       1 DP3794      0.0000 
     11 NE         12.4830    0.2450   58.1810 N.pl3     1 DP3794      0.0000 
     12 CZ         11.5170   -0.1720   58.9650 C.2       1 DP3794      0.0000 
     13 NH2        10.9100   -1.3320   58.6070 N.2       1 DP3794      0.0000 
     14 NH1        11.1890    0.5640   60.0580 N.pl3     1 DP3794      0.0000 
     15 NO         10.3200    0.0910   61.0210 N.pl3     1 DP3794      0.0000 
     16 O2         10.0580    0.8350   62.0120 O.2       1 DP3794      0.0000 
     17 O3          9.7740   -1.0510   60.9530 O.2       1 DP3794      0.0000 
     18 H          18.3051    4.9856   56.4339 H         1 DP3794      0.0000 
     19 H          20.0322    4.9951   56.8302 H         1 DP3794      0.0000 
     20 H          19.4024    3.0383   57.8531 H         1 DP3794      0.0000 
     21 H          19.9254    2.4171   56.2781 H         1 DP3794      0.0000 
     22 H          17.6926    1.3518   58.4458 H         1 DP3794      0.0000 
     23 H          18.3196    0.3831   57.1011 H         1 DP3794      0.0000 
     24 H          15.5248    1.1820   56.6417 H         1 DP3794      0.0000 
     25 H          16.2270   -0.2110   59.2177 H         1 DP3794      0.0000 
     26 H          14.8242   -0.7827   58.2983 H         1 DP3794      0.0000 
     27 H          15.1867    2.1224   59.1874 H         1 DP3794      0.0000 
     28 H          14.3242    0.9105   60.1503 H         1 DP3794      0.0000 
     29 H          13.5841    1.8783   57.3540 H         1 DP3794      0.0000 
     30 H          12.7360    2.2533   58.8640 H         1 DP3794      0.0000 
     31 H          12.7675   -0.3203   57.3069 H         1 DP3794      0.0000 
     32 H          11.6020    1.5193   60.1831 H         1 DP3794      0.0000 
@<TRIPOS>BOND
     1    2    1 1    
     2    3    2 1    
     3   18    2 1    
     4   19    2 1    
     5    4    3 1    
     6   20    3 1    
     7   21    3 1    
     8    5    4 1    
     9    6    5 1    
    10   22    5 1    
    11   23    5 1    
    12    7    6 1    
    13    8    6 1    
    14   24    6 1    
    15    9    8 1    
    16   25    8 1    
    17   26    8 1    
    18   10    9 1    
    19   27    9 1    
    20   28    9 1    
    21   11   10 1    
    22   29   10 1    
    23   30   10 1    
    24   12   11 1    
    25   31   11 1    
    26   13   12 2    
    27   14   12 1    
    28   15   14 1    
    29   32   14 1    
    30   16   15 2    
    31   17   15 2    
@<TRIPOS>SUBSTRUCTURE
     1 DP3794      1 GROUP   
@<TRIPOS>SET

