#    Name: 3h03_UBP_3_INTS_M
#    Modification time : Tue Mar 25 13:19:00 2014

@<TRIPOS>MOLECULE
3h03_UBP_3_INTS_M
   60     0    15     0     0
SMALL
NO_CHARGES


@<TRIPOS>ATOM
      1 CA         28.9370   25.5215  -23.7965 C.3       5 GLC5        0.0000 
      2 CA         27.6630   26.7650  -23.3510 C.3      15 GLL5        0.0000 
      3 CA         30.2110   24.2780  -24.2420 C.3      10 GLP5        0.0000 
      4 CA         29.8335   25.0175  -22.3275 C.3       5 GLC5        0.0000 
      5 CA         29.3820   26.5580  -21.5460 C.3      15 GLL5        0.0000 
      6 CA         30.2850   23.4770  -23.1090 C.3      10 GLP5        0.0000 
      7 CA         30.3205   29.9415  -20.4425 C.3       5 GLC5        0.0000 
      8 CA         29.6370   27.8470  -20.7390 C.3      15 GLL5        0.0000 
      9 CA         31.0040   32.0360  -20.1460 C.3      10 GLP5        0.0000 
     10 OD1        27.9235   29.2210  -20.8450 O.co2     3 ASC3        0.0000 
     11 OD1        29.2540   29.0300  -21.6400 O.co2    13 ASL3        0.0000 
     12 OD1        26.5930   29.4120  -20.0500 O.co2     8 ASP3        0.0000 
     13 OD1        27.3585   29.2020  -21.7795 O.co2     3 ASC3        0.0000 
     14 OD1        25.4630   29.3740  -21.9190 O.co2     8 ASP3        0.0000 
     15 O          29.8025   28.8470  -22.9940 O.2       1 ALC1        0.0000 
     16 O          29.2540   29.0300  -21.6400 O.2      11 ALL1        0.0000 
     17 O          30.3510   28.6640  -24.3480 O.2       6 ALP1        0.0000 
     18 O          29.4945   30.2670  -21.0940 O.2       1 ALC1        0.0000 
     19 O          29.7350   31.5040  -20.5480 O.2       6 ALP1        0.0000 
     20 O          27.9235   29.2210  -20.8450 O.2       1 ALC1        0.0000 
     21 O          26.5930   29.4120  -20.0500 O.2       6 ALP1        0.0000 
     22 NZ         32.8670   29.2775  -20.2240 N.4       4 LYC4        0.0000 
     23 NZ         31.7220   28.8290  -20.7960 N.4      14 LYL4        0.0000 
     24 NZ         34.7590   28.7970  -19.0660 N.4       9 LYP4        0.0000 
     25 N          31.9145   29.9820  -21.4810 N.am      2 SEC2        0.0000 
     26 N          31.7220   28.8290  -20.7960 N.am     12 SEL2        0.0000 
     27 N          32.1070   31.1350  -22.1660 N.am      7 SEP2        0.0000 
     28 N          32.8670   29.2775  -20.2240 N.am      2 SEC2        0.0000 
     29 N          34.0120   29.7260  -19.6520 N.am      7 SEP2        0.0000 
     30 N          32.9915   28.2065  -19.8220 N.am      2 SEC2        0.0000 
     31 N          34.2610   27.5840  -18.8480 N.am      7 SEP2        0.0000 
     32 NZ         32.9915   28.2065  -19.8220 N.4       4 LYC4        0.0000 
     33 NZ         31.5850   27.0440  -19.6160 N.4      14 LYL4        0.0000 
     34 N          32.9230   27.3140  -19.2320 N.am      2 SEC2        0.0000 
     35 N          31.5850   27.0440  -19.6160 N.am     12 SEL2        0.0000 
     36 CA         24.4165   27.8465  -20.1940 C.3       5 GLC5        0.0000 
     37 CA         24.5760   25.8130  -20.4830 C.3      15 GLL5        0.0000 
     38 CA         24.2570   29.8800  -19.9050 C.3      10 GLP5        0.0000 
     39 CA         21.9190   23.8625  -20.9980 C.3       5 GLC5        0.0000 
     40 CA         23.0770   25.6880  -20.6870 C.3      15 GLL5        0.0000 
     41 CA         20.7610   22.0370  -21.3090 C.3      10 GLP5        0.0000 
     42 CA         21.3110   26.3775  -19.5255 C.3       5 GLC5        0.0000 
     43 CA         19.5450   27.0670  -18.3640 C.3      10 GLP5        0.0000 
     44 CA         23.0455   27.8370  -20.7405 C.3       5 GLC5        0.0000 
     45 CA         23.0140   29.9860  -20.7940 C.3      10 GLP5        0.0000 
     46 CA         21.9740   26.1580  -22.0870 C.3       5 GLC5        0.0000 
     47 CA         20.8710   26.6280  -23.4870 C.3      10 GLP5        0.0000 
     48 N          21.7955   27.7820  -18.8545 N.am      2 SEC2        0.0000 
     49 N          22.2800   26.2470  -18.5710 N.am     12 SEL2        0.0000 
     50 N          21.3110   29.3170  -19.1380 N.am      7 SEP2        0.0000 
     51 N          22.5030   23.1310  -19.7950 N.am      2 SEC2        0.0000 
     52 N          22.0220   24.2170  -19.2150 N.am     12 SEL2        0.0000 
     53 N          22.9840   22.0450  -20.3750 N.am      7 SEP2        0.0000 
     54 N          21.4650   23.7375  -18.0250 N.am      2 SEC2        0.0000 
     55 N          20.9080   23.2580  -16.8350 N.am      7 SEP2        0.0000 
     56 CA         28.0427   26.9552  -25.2210 C.3       5 GLC5        0.0000 
     57 CA         26.3880   26.7340  -23.8390 C.3      15 GLL5        0.0000 
     58 CA         29.0600   27.1610  -26.8470 C.3      10 GLP5        0.0000 
     59 CA         26.9237   28.8593  -24.0960 C.3       5 GLC5        0.0000 
     60 CA         26.8220   30.9690  -24.5970 C.3      10 GLP5        0.0000 
@<TRIPOS>BOND
@<TRIPOS>SUBSTRUCTURE
     1 ALC1       15 GROUP        1 X    ALC  0     ROOT ALC X 1
     2 SEC2       25 GROUP        1 X    SEC  0     **** SEC X 2
     3 ASC3       10 GROUP        1 X    ASC  0     **** ASC X 3
     4 LYC4       22 GROUP        1 X    LYC  0     **** LYC X 4
     5 GLC5        1 GROUP        1 X    GLC  0     **** GLC X 6
     6 ALP1       17 GROUP        1 Y    ALP  0     ROOT ALP Y 8
     7 SEP2       27 GROUP        1 Y    SEP  0     **** SEP Y 9
     8 ASP3       12 GROUP        1 Y    ASP  0     **** ASP Y 10
     9 LYP4       24 GROUP        1 Y    LYP  0     **** LYP Y 11
    10 GLP5        3 GROUP        1 Y    GLP  0     **** GLP Y 13
    11 ALL1       16 GROUP        1 Z    ALL  0     ROOT ALL Z 15
    12 SEL2       26 GROUP        1 Z    SEL  0     **** SEL Z 16
    13 ASL3       11 GROUP        1 Z    ASL  0     **** ASL Z 17
    14 LYL4       23 GROUP        1 Z    LYL  0     **** LYL Z 18
    15 GLL5        2 GROUP        1 Z    GLL  0     **** GLL Z 20
@<TRIPOS>SET

