#    Name: 3h03_UBP_3_ligand
#    Modification time : Tue Mar 25 13:19:00 2014

@<TRIPOS>MOLECULE
3h03_UBP_3_ligand
   31    31     1     0     0
SMALL
NO_CHARGES


@<TRIPOS>ATOM
      1 N1         27.9830   26.5100  -22.0150 N.am      1 UBP803      0.0000 
      2 C2         26.9040   26.2030  -21.1250 C.2       1 UBP803      0.0000 
      3 O2         27.1760   25.9780  -19.9080 O.2       1 UBP803      0.0000 
      4 N3         25.5550   26.1530  -21.5700 N.am      1 UBP803      0.0000 
      5 C4         25.3660   26.4360  -22.9710 C.2       1 UBP803      0.0000 
      6 O4         24.2200   26.4220  -23.4600 O.2       1 UBP803      0.0000 
      7 C5         26.3880   26.7340  -23.8390 C.2       1 UBP803      0.0000 
      8 C6         27.6630   26.7650  -23.3510 C.2       1 UBP803      0.0000 
      9 C7         29.3820   26.5580  -21.5460 C.3       1 UBP803      0.0000 
     10 C8         29.6370   27.8470  -20.7390 C.3       1 UBP803      0.0000 
     11 N8         29.2540   29.0300  -21.6400 N.4       1 UBP803      0.0000 
     12 C9         31.1090   27.8780  -20.3260 C.2       1 UBP803      0.0000 
     13 O91        31.7220   28.8290  -20.7960 O.co2     1 UBP803      0.0000 
     14 O92        31.5850   27.0440  -19.6160 O.co2     1 UBP803      0.0000 
     15 C1         24.5760   25.8130  -20.4830 C.3       1 UBP803      0.0000 
     16 C3         23.0770   25.6880  -20.6870 C.3       1 UBP803      0.0000 
     17 C10        22.3990   25.3610  -19.3950 C.2       1 UBP803      0.0000 
     18 O3         22.2800   26.2470  -18.5710 O.co2     1 UBP803      0.0000 
     19 O1         22.0220   24.2170  -19.2150 O.co2     1 UBP803      0.0000 
     20 H          26.1950   26.9273  -24.8254 H         1 UBP803      0.0000 
     21 H          28.4580   26.9924  -24.0074 H         1 UBP803      0.0000 
     22 H          30.0740   26.5435  -22.3904 H         1 UBP803      0.0000 
     23 H          29.6038   25.7047  -20.9020 H         1 UBP803      0.0000 
     24 H          29.0129   27.8336  -19.8801 H         1 UBP803      0.0000 
     25 H          24.7401   26.5589  -19.6161 H         1 UBP803      0.0000 
     26 H          24.9335   24.8357  -19.9810 H         1 UBP803      0.0000 
     27 H          22.8820   24.9016  -21.4190 H         1 UBP803      0.0000 
     28 H          22.6918   26.6306  -21.0812 H         1 UBP803      0.0000 
     29 H          29.3956   28.8210  -22.6076 H         1 UBP803      0.0000 
     30 H          28.2924   29.2827  -21.5324 H         1 UBP803      0.0000 
     31 H          29.7960   29.8447  -21.4337 H         1 UBP803      0.0000 
@<TRIPOS>BOND
     1    2    1 am   
     2    8    1 1    
     3    9    1 1    
     4    3    2 2    
     5    4    2 am   
     6    5    4 am   
     7   15    4 1    
     8    6    5 2    
     9    7    5 1    
    10    8    7 2    
    11   20    7 1    
    12   21    8 1    
    13   10    9 1    
    14   22    9 1    
    15   23    9 1    
    16   11   10 1    
    17   12   10 1    
    18   24   10 1    
    19   29   11 1    
    20   30   11 1    
    21   31   11 1    
    22   13   12 ar   
    23   14   12 ar   
    24   16   15 1    
    25   25   15 1    
    26   26   15 1    
    27   17   16 1    
    28   27   16 1    
    29   28   16 1    
    30   18   17 ar   
    31   19   17 ar   
@<TRIPOS>SUBSTRUCTURE
     1 UBP803      1 GROUP   
@<TRIPOS>SET

