#    Name: 3tlk_EB4_3_INTS_M
#    Modification time : Mon Mar 24 20:19:43 2014

@<TRIPOS>MOLECULE
3tlk_EB4_3_INTS_M
   66     0     9     0     0
SMALL
NO_CHARGES


@<TRIPOS>ATOM
      1 Zn         -8.5510  -26.9060  -26.0350 Zn        2 ZIC7        0.0000 
      2 Zn         -9.3570  -27.3380  -26.5130 Zn        8 ZIL7        0.0000 
      3 Zn         -7.7450  -26.4740  -25.5570 Zn        5 ZIP7        0.0000 
      4 N          -9.3990  -28.5500  -27.2490 N.am      1 SEC2        0.0000 
      5 N          -9.3570  -27.3380  -26.5130 N.am      7 SEL2        0.0000 
      6 N          -9.4410  -29.7620  -27.9850 N.am      4 SEP2        0.0000 
      7 N         -10.2645  -27.8630  -25.5905 N.am      1 SEC2        0.0000 
      8 N         -11.1720  -28.3880  -24.6680 N.am      4 SEP2        0.0000 
      9 Zn         -8.0425  -27.1835  -24.8235 Zn        2 ZIC7        0.0000 
     10 Zn         -8.3400  -27.8930  -24.0900 Zn        8 ZIL7        0.0000 
     11 N          -7.2975  -28.7205  -23.8805 N.am      1 SEC2        0.0000 
     12 N          -8.3400  -27.8930  -24.0900 N.am      7 SEL2        0.0000 
     13 N          -6.2550  -29.5480  -23.6710 N.am      4 SEP2        0.0000 
     14 Zn         -7.1450  -27.2185  -25.9220 Zn        2 ZIC7        0.0000 
     15 Zn         -6.5450  -27.9630  -26.2870 Zn        8 ZIL7        0.0000 
     16 N          -6.8905  -28.7140  -27.4325 N.am      1 SEC2        0.0000 
     17 N          -6.5450  -27.9630  -26.2870 N.am      7 SEL2        0.0000 
     18 N          -7.2360  -29.4650  -28.5780 N.am      4 SEP2        0.0000 
     19 Zn         -8.0105  -25.6505  -26.2160 Zn        2 ZIC7        0.0000 
     20 Zn         -8.2760  -24.8270  -26.8750 Zn        8 ZIL7        0.0000 
     21 CA         -2.0325  -28.0095  -29.6195 C.3       3 GLC5        0.0000 
     22 CA         -3.0330  -27.8710  -27.6480 C.3       9 GLL5        0.0000 
     23 CA         -1.0320  -28.1480  -31.5910 C.3       6 GLP5        0.0000 
     24 Zn         -7.8960  -25.7895  -24.7680 Zn        2 ZIC7        0.0000 
     25 Zn         -8.0470  -25.1050  -23.9790 Zn        8 ZIL7        0.0000 
     26 Zn         -6.8130  -25.9930  -25.5020 Zn        2 ZIC7        0.0000 
     27 Zn         -5.8810  -25.5120  -25.4470 Zn        8 ZIL7        0.0000 
     28 CA         -1.8805  -25.3315  -28.8615 C.3       3 GLC5        0.0000 
     29 CA         -2.6650  -26.4880  -27.2520 C.3       9 GLL5        0.0000 
     30 CA         -1.0960  -24.1750  -30.4710 C.3       6 GLP5        0.0000 
     31 N          -8.3860  -21.5840  -19.8940 N.am      1 SEC2        0.0000 
     32 N          -8.5270  -22.9500  -20.4730 N.am      7 SEL2        0.0000 
     33 N          -8.2450  -20.2180  -19.3150 N.am      4 SEP2        0.0000 
     34 N          -9.1820  -22.6985  -30.5360 N.am      1 SEC2        0.0000 
     35 N          -9.9590  -21.9910  -29.4340 N.am      7 SEL2        0.0000 
     36 N          -8.4050  -23.4060  -31.6380 N.am      4 SEP2        0.0000 
     37 CA         -4.3945  -20.6890  -28.6795 C.3       3 GLC5        0.0000 
     38 CA         -4.4770  -21.2610  -27.0380 C.3       9 GLL5        0.0000 
     39 CA         -4.3120  -20.1170  -30.3210 C.3       6 GLP5        0.0000 
     40 CA         -3.5728  -27.7637  -25.4580 C.3       3 GLC5        0.0000 
     41 CA         -4.9390  -26.2270  -26.1780 C.3       9 GLL5        0.0000 
     42 CA         -2.0390  -28.6500  -24.5490 C.3       6 GLP5        0.0000 
     43 CA         -5.2027  -27.8957  -24.5765 C.3       3 GLC5        0.0000 
     44 CA         -5.2740  -27.5280  -26.5560 C.3       9 GLL5        0.0000 
     45 CA         -5.2990  -28.9140  -22.7860 C.3       6 GLP5        0.0000 
     46 CA         -7.1798  -28.2510  -22.5965 C.3       3 GLC5        0.0000 
     47 CA         -8.7700  -27.2370  -22.9450 C.3       9 GLL5        0.0000 
     48 CA         -2.8472  -28.3882  -26.0175 C.3       3 GLC5        0.0000 
     49 CA         -4.2780  -28.3820  -27.3240 C.3       9 GLL5        0.0000 
     50 CA        -10.2735  -27.1867  -18.9280 C.3       3 GLC5        0.0000 
     51 CA         -9.7520  -27.1930  -20.6270 C.3       9 GLL5        0.0000 
     52 CA        -10.9060  -27.9050  -17.2920 C.3       6 GLP5        0.0000 
     53 CA         -8.8742  -28.9270  -20.2295 C.3       3 GLC5        0.0000 
     54 CA         -8.1970  -30.2880  -19.2110 C.3       6 GLP5        0.0000 
     55 CA         -8.3082  -24.3990  -19.6985 C.3       3 GLC5        0.0000 
     56 CA         -9.5300  -25.7440  -20.5010 C.3       9 GLL5        0.0000 
     57 CA         -7.3930  -23.4150  -18.3300 C.3       6 GLP5        0.0000 
     58 CA        -12.9303  -23.8655  -29.3390 C.3       3 GLC5        0.0000 
     59 CA        -11.2370  -24.6410  -29.2900 C.3       9 GLL5        0.0000 
     60 CA        -14.3500  -22.4260  -29.4850 C.3       6 GLP5        0.0000 
     61 CA        -10.4360  -24.3395  -30.9367 C.3       3 GLC5        0.0000 
     62 CA        -10.2400  -24.2390  -32.9710 C.3       6 GLP5        0.0000 
     63 CA        -11.6471  -26.7848  -30.4542 C.3       3 GLC5        0.0000 
     64 CA        -11.9370  -28.0360  -31.9350 C.3       6 GLP5        0.0000 
     65 CA         -2.5900  -27.3717  -25.7150 C.3       3 GLC5        0.0000 
     66 CA         -3.6170  -25.6990  -26.5100 C.3       9 GLL5        0.0000 
@<TRIPOS>BOND
@<TRIPOS>SUBSTRUCTURE
     1 SEC2        4 GROUP        1 X    SEC  0     ROOT SEC X 2
     2 ZIC7        1 GROUP        1 X    ZIC  0     **** ZIC X 5
     3 GLC5       21 GROUP        1 X    GLC  0     **** GLC X 6
     4 SEP2        6 GROUP        1 Y    SEP  0     ROOT SEP Y 9
     5 ZIP7        3 GROUP        1 Y    ZIP  0     **** ZIP Y 12
     6 GLP5       23 GROUP        1 Y    GLP  0     **** GLP Y 13
     7 SEL2        5 GROUP        1 Z    SEL  0     ROOT SEL Z 16
     8 ZIL7        2 GROUP        1 Z    ZIL  0     **** ZIL Z 19
     9 GLL5       22 GROUP        1 Z    GLL  0     **** GLL Z 20
@<TRIPOS>SET

