#    Name: 3tlk_EB4_3_ligand
#    Modification time : Mon Mar 24 20:19:43 2014

@<TRIPOS>MOLECULE
3tlk_EB4_3_ligand
   70    73     1     0     0
SMALL
NO_CHARGES


@<TRIPOS>ATOM
      1 O6         -9.3570  -27.3380  -26.5130 O.3       1 EB4328      0.0000 
      2 O4         -8.3400  -27.8930  -24.0900 O.3       1 EB4328      0.0000 
      3 O5         -6.5450  -27.9630  -26.2870 O.3       1 EB4328      0.0000 
      4 N1         -8.0740  -22.9300  -22.6740 N.am      1 EB4328      0.0000 
      5 C5         -5.2740  -27.5280  -26.5560 C.ar      1 EB4328      0.0000 
      6 C4         -8.7700  -27.2370  -22.9450 C.ar      1 EB4328      0.0000 
      7 C1         -8.5330  -25.7340  -22.8380 C.ar      1 EB4328      0.0000 
      8 C2         -4.9390  -26.2270  -26.1780 C.ar      1 EB4328      0.0000 
      9 C6         -9.9450  -26.4710  -27.4140 C.ar      1 EB4328      0.0000 
     10 C8         -4.2780  -28.3820  -27.3240 C.ar      1 EB4328      0.0000 
     11 N2         -4.3400  -23.4560  -25.7110 N.am      1 EB4328      0.0000 
     12 C9        -11.1710  -26.8830  -28.2180 C.ar      1 EB4328      0.0000 
     13 C10        -9.7520  -27.1930  -20.6270 C.ar      1 EB4328      0.0000 
     14 O3         -8.2760  -24.8270  -26.8750 O.3       1 EB4328      0.0000 
     15 N3         -8.6890  -22.3690  -27.5380 N.am      1 EB4328      0.0000 
     16 C16        -8.9170  -25.0220  -21.6330 C.ar      1 EB4328      0.0000 
     17 C7         -9.3510  -27.9390  -21.8690 C.ar      1 EB4328      0.0000 
     18 C3         -9.4040  -25.1570  -27.5920 C.ar      1 EB4328      0.0000 
     19 C11        -3.0330  -27.8710  -27.6480 C.ar      1 EB4328      0.0000 
     20 O1         -8.0470  -25.1050  -23.9790 O.3       1 EB4328      0.0000 
     21 O2         -5.8810  -25.5120  -25.4470 O.3       1 EB4328      0.0000 
     22 C12       -11.7840  -25.9690  -29.0960 C.ar      1 EB4328      0.0000 
     23 C15       -11.2370  -24.6410  -29.2900 C.ar      1 EB4328      0.0000 
     24 C14        -2.6650  -26.4880  -27.2520 C.ar      1 EB4328      0.0000 
     25 C13        -9.5300  -25.7440  -20.5010 C.ar      1 EB4328      0.0000 
     26 O7         -8.5270  -22.9500  -20.4730 O.2       1 EB4328      0.0000 
     27 C19        -8.6310  -23.5390  -21.5280 C.2       1 EB4328      0.0000 
     28 C22        -7.6920  -21.5440  -22.6080 C.3       1 EB4328      0.0000 
     29 C25        -8.2060  -20.7000  -23.7820 C.2       1 EB4328      0.0000 
     30 O10        -8.9250  -19.7330  -23.4320 O.2       1 EB4328      0.0000 
     31 O15        -8.6320  -21.1750  -25.0520 O.3       1 EB4328      0.0000 
     32 C30        -9.1320  -20.3510  -26.1280 C.3       1 EB4328      0.0000 
     33 C24        -8.4170  -20.9880  -27.3210 C.3       1 EB4328      0.0000 
     34 C21        -9.5260  -22.8120  -28.6300 C.2       1 EB4328      0.0000 
     35 C18       -10.0270  -24.2390  -28.5150 C.ar      1 EB4328      0.0000 
     36 O9         -9.9590  -21.9910  -29.4340 O.2       1 EB4328      0.0000 
     37 C27        -6.9220  -20.7560  -27.3400 C.2       1 EB4328      0.0000 
     38 O12        -6.5690  -19.5720  -27.6250 O.2       1 EB4328      0.0000 
     39 C28        -6.2000  -21.3120  -22.3680 C.3       1 EB4328      0.0000 
     40 O13        -5.5800  -22.0810  -23.4170 O.3       1 EB4328      0.0000 
     41 C26        -4.8820  -21.4340  -24.4620 C.2       1 EB4328      0.0000 
     42 O11        -5.2740  -20.2290  -24.6130 O.2       1 EB4328      0.0000 
     43 C23        -4.1890  -22.0070  -25.7000 C.3       1 EB4328      0.0000 
     44 C29        -4.4770  -21.2610  -27.0380 C.3       1 EB4328      0.0000 
     45 O14        -5.8390  -21.6700  -27.2470 O.3       1 EB4328      0.0000 
     46 C20        -3.2920  -24.2690  -26.1990 C.2       1 EB4328      0.0000 
     47 O8         -2.2630  -23.7530  -26.5580 O.2       1 EB4328      0.0000 
     48 C17        -3.6170  -25.6990  -26.5100 C.ar      1 EB4328      0.0000 
     49 H          -7.9412  -23.4469  -23.5297 H         1 EB4328      0.0000 
     50 H          -4.5811  -29.3130  -27.5701 H         1 EB4328      0.0000 
     51 H          -5.2014  -23.8611  -25.3656 H         1 EB4328      0.0000 
     52 H         -11.5059  -27.8231  -28.0860 H         1 EB4328      0.0000 
     53 H         -10.1793  -27.7065  -19.8752 H         1 EB4328      0.0000 
     54 H          -8.2863  -23.0719  -26.9105 H         1 EB4328      0.0000 
     55 H          -9.5129  -28.9295  -21.8917 H         1 EB4328      0.0000 
     56 H          -2.3373  -28.4091  -28.1579 H         1 EB4328      0.0000 
     57 H         -12.6275  -26.2286  -29.6123 H         1 EB4328      0.0000 
     58 H         -11.6469  -23.9949  -29.9240 H         1 EB4328      0.0000 
     59 H          -1.7707  -26.1289  -27.5039 H         1 EB4328      0.0000 
     60 H          -9.7857  -25.2614  -19.6750 H         1 EB4328      0.0000 
     61 H          -8.2040  -21.0869  -21.6878 H         1 EB4328      0.0000 
     62 H          -8.8152  -19.3454  -26.0413 H         1 EB4328      0.0000 
     63 H         -10.1757  -20.4592  -26.2620 H         1 EB4328      0.0000 
     64 H          -8.8026  -20.4206  -28.2418 H         1 EB4328      0.0000 
     65 H          -5.9517  -21.6823  -21.3979 H         1 EB4328      0.0000 
     66 H          -6.0002  -20.2675  -22.4637 H         1 EB4328      0.0000 
     67 H          -3.0629  -21.8112  -25.4946 H         1 EB4328      0.0000 
     68 H          -3.8199  -21.6413  -27.7666 H         1 EB4328      0.0000 
     69 H          -4.3836  -20.2285  -26.8575 H         1 EB4328      0.0000 
     70 H          -5.4998  -25.4497  -24.5246 H         1 EB4328      0.0000 
@<TRIPOS>BOND
     1    9    1 1    
     2    6    2 1    
     3    5    3 1    
     4   27    4 am   
     5   28    4 1    
     6   49    4 1    
     7    8    5 ar   
     8   10    5 ar   
     9    7    6 ar   
    10   17    6 ar   
    11   16    7 ar   
    12   20    7 1    
    13   21    8 1    
    14   48    8 ar   
    15   12    9 ar   
    16   18    9 ar   
    17   19   10 ar   
    18   50   10 1    
    19   43   11 1    
    20   46   11 am   
    21   51   11 1    
    22   22   12 ar   
    23   52   12 1    
    24   17   13 ar   
    25   25   13 ar   
    26   53   13 1    
    27   18   14 1    
    28   33   15 1    
    29   34   15 am   
    30   54   15 1    
    31   25   16 ar   
    32   27   16 1    
    33   55   17 1    
    34   35   18 ar   
    35   24   19 ar   
    36   56   19 1    
    37   70   21 1    
    38   23   22 ar   
    39   57   22 1    
    40   35   23 ar   
    41   58   23 1    
    42   48   24 ar   
    43   59   24 1    
    44   60   25 1    
    45   27   26 2    
    46   29   28 1    
    47   39   28 1    
    48   61   28 1    
    49   30   29 2    
    50   31   29 1    
    51   32   31 1    
    52   33   32 1    
    53   62   32 1    
    54   63   32 1    
    55   37   33 1    
    56   64   33 1    
    57   35   34 1    
    58   36   34 2    
    59   38   37 2    
    60   45   37 1    
    61   40   39 1    
    62   65   39 1    
    63   66   39 1    
    64   41   40 1    
    65   42   41 2    
    66   43   41 1    
    67   44   43 1    
    68   67   43 1    
    69   45   44 1    
    70   68   44 1    
    71   69   44 1    
    72   47   46 2    
    73   48   46 1    
@<TRIPOS>SUBSTRUCTURE
     1 EB4328      1 GROUP   
@<TRIPOS>SET

