#    Name: 2cmw_OLP_1_INTS_M
#    Modification time : Tue Mar 25 01:10:32 2014

@<TRIPOS>MOLECULE
2cmw_OLP_1_INTS_M
   63     0     9     0     0
SMALL
NO_CHARGES


@<TRIPOS>ATOM
      1 CA         30.1025   49.9660    2.5285 C.3       3 GLC5        0.0000 
      2 CA         30.6960   48.0310    2.4420 C.3       9 GLL5        0.0000 
      3 CA         29.5090   51.9010    2.6150 C.3       6 GLP5        0.0000 
      4 CA         32.3650   50.9390    1.4080 C.3       3 GLC5        0.0000 
      5 CA         32.4770   49.0750    0.7280 C.3       9 GLL5        0.0000 
      6 CA         32.2530   52.8030    2.0880 C.3       6 GLP5        0.0000 
      7 CA         34.0375   49.7300   -0.0255 C.3       3 GLC5        0.0000 
      8 CA         35.5980   50.3850   -0.7790 C.3       6 GLP5        0.0000 
      9 CA         31.9500   49.4610   -1.0695 C.3       3 GLC5        0.0000 
     10 CA         31.4230   49.8470   -2.8670 C.3       6 GLP5        0.0000 
     11 CA         30.8250   49.0290   -0.1945 C.3       3 GLC5        0.0000 
     12 CA         29.1730   48.9830   -1.1170 C.3       6 GLP5        0.0000 
     13 CA         29.5820   44.4655    4.5985 C.3       3 GLC5        0.0000 
     14 CA         30.7260   45.7220    3.1550 C.3       9 GLL5        0.0000 
     15 CA         28.4380   43.2090    6.0420 C.3       6 GLP5        0.0000 
     16 O          28.3960   48.4225    3.3340 O.2       1 ALC1        0.0000 
     17 O          29.0050   47.1790    3.9830 O.2       7 ALL1        0.0000 
     18 O          27.7870   49.6660    2.6850 O.2       4 ALP1        0.0000 
     19 CA         26.6650   46.5440    4.0725 C.3       3 GLC5        0.0000 
     20 CA         27.6760   47.0360    5.9720 C.3       9 GLL5        0.0000 
     21 CA         25.6540   46.0520    2.1730 C.3       6 GLP5        0.0000 
     22 CA         26.9990   49.1240    5.6900 C.3       3 GLC5        0.0000 
     23 CA         26.3220   51.2120    5.4080 C.3       6 GLP5        0.0000 
     24 N          25.9085   48.5335    4.7285 N.am      2 SEC2        0.0000 
     25 N          26.4490   47.5120    5.6050 N.am      8 SEL2        0.0000 
     26 N          25.3680   49.5550    3.8520 N.am      5 SEP2        0.0000 
     27 CA         27.5820   47.6145   10.1985 C.3       3 GLC5        0.0000 
     28 CA         25.9230   46.7480    9.1260 C.3       9 GLL5        0.0000 
     29 CA         29.2410   48.4810   11.2710 C.3       6 GLP5        0.0000 
     30 CA         23.6060   49.2155   10.2740 C.3       3 GLC5        0.0000 
     31 CA         24.8170   47.7440    9.5880 C.3       9 GLL5        0.0000 
     32 CA         22.3950   50.6870   10.9600 C.3       6 GLP5        0.0000 
     33 CA         23.2980   46.9670   10.2245 C.3       3 GLC5        0.0000 
     34 CA         21.7790   46.1900   10.8610 C.3       6 GLP5        0.0000 
     35 CA         25.0955   49.6270    8.6630 C.3       3 GLC5        0.0000 
     36 CA         25.3740   51.5100    7.7380 C.3       6 GLP5        0.0000 
     37 CA         25.7775   49.1130   10.3735 C.3       3 GLC5        0.0000 
     38 CA         26.7380   50.4820   11.1590 C.3       6 GLP5        0.0000 
     39 CA         26.0230   43.6545    8.2510 C.3       3 GLC5        0.0000 
     40 CA         25.4850   45.2780    9.2670 C.3       9 GLL5        0.0000 
     41 CA         26.5610   42.0310    7.2350 C.3       6 GLP5        0.0000 
     42 CA         24.6860   44.8340    7.2825 C.3       3 GLC5        0.0000 
     43 CA         23.8870   44.3900    5.2980 C.3       6 GLP5        0.0000 
     44 CA         23.6625   44.6915    9.3430 C.3       3 GLC5        0.0000 
     45 CA         21.8400   44.1050    9.4190 C.3       6 GLP5        0.0000 
     46 CA         32.2185   42.3210    5.9795 C.3       3 GLC5        0.0000 
     47 CA         32.1690   43.9910    6.5860 C.3       9 GLL5        0.0000 
     48 CA         32.2680   40.6510    5.3730 C.3       6 GLP5        0.0000 
     49 O          32.1810   43.2065    4.3055 O.2       1 ALC1        0.0000 
     50 O          32.6850   44.0230    5.2800 O.2       7 ALL1        0.0000 
     51 O          31.6770   42.3900    3.3310 O.2       4 ALP1        0.0000 
     52 CA         30.0285   47.3155    0.8108 C.3       3 GLC5        0.0000 
     53 CA         31.8280   47.7950    1.6530 C.3       9 GLL5        0.0000 
     54 CA         28.7950   46.7180   -0.4260 C.3       6 GLP5        0.0000 
     55 CA         30.4545   46.3582    0.7853 C.3       3 GLC5        0.0000 
     56 CA         32.3760   46.5200    1.6290 C.3       9 GLL5        0.0000 
     57 CA         29.6180   46.5360    1.3785 C.3       3 GLC5        0.0000 
     58 CA         28.0433   45.0433    6.3462 C.3       3 GLC5        0.0000 
     59 CA         28.4853   48.3958    7.1197 C.3       3 GLC5        0.0000 
     60 CA         27.6210   46.7190    7.3290 C.3       9 GLL5        0.0000 
     61 CA         29.3220   49.9140    7.5890 C.3       6 GLP5        0.0000 
     62 CA         30.3107   43.9455    6.4718 C.3       3 GLC5        0.0000 
     63 CA         32.1980   45.3730    7.2170 C.3       9 GLL5        0.0000 
@<TRIPOS>BOND
@<TRIPOS>SUBSTRUCTURE
     1 ALC1       16 GROUP        1 X    ALC  0     ROOT ALC X 1
     2 SEC2       24 GROUP        1 X    SEC  0     **** SEC X 2
     3 GLC5        1 GROUP        1 X    GLC  0     **** GLC X 6
     4 ALP1       18 GROUP        1 Y    ALP  0     ROOT ALP Y 8
     5 SEP2       26 GROUP        1 Y    SEP  0     **** SEP Y 9
     6 GLP5        3 GROUP        1 Y    GLP  0     **** GLP Y 13
     7 ALL1       17 GROUP        1 Z    ALL  0     ROOT ALL Z 15
     8 SEL2       25 GROUP        1 Z    SEL  0     **** SEL Z 16
     9 GLL5        2 GROUP        1 Z    GLL  0     **** GLL Z 20
@<TRIPOS>SET

