#    Name: 2cmw_OLP_1_ligand
#    Modification time : Tue Mar 25 01:10:32 2014

@<TRIPOS>MOLECULE
2cmw_OLP_1_ligand
   43    45     1     0     0
SMALL
NO_CHARGES


@<TRIPOS>ATOM
      1 CAH        30.6960   48.0310    2.4420 C.ar      1 OLP1340     0.0000 
      2 CAQ        31.8280   47.7950    1.6530 C.ar      1 OLP1340     0.0000 
      3 CL         32.4770   49.0750    0.7280 Cl        1 OLP1340     0.0000 
      4 CAF        32.3760   46.5200    1.6290 C.ar      1 OLP1340     0.0000 
      5 CAE        31.8520   45.4770    2.3640 C.ar      1 OLP1340     0.0000 
      6 CAG        30.7260   45.7220    3.1550 C.ar      1 OLP1340     0.0000 
      7 CAR        30.1560   46.9860    3.2110 C.ar      1 OLP1340     0.0000 
      8 N6         29.0050   47.1790    3.9830 N.pl3     1 OLP1340     0.0000 
      9 C6         28.9020   46.8650    5.2790 C.2       1 OLP1340     0.0000 
     10 N1         29.9420   46.3840    5.9940 N.2       1 OLP1340     0.0000 
     11 C5         27.6760   47.0360    5.9720 C.2       1 OLP1340     0.0000 
     12 N7         26.4490   47.5120    5.6050 N.2       1 OLP1340     0.0000 
     13 C8         25.6540   47.4550    6.6910 C.2       1 OLP1340     0.0000 
     14 N9         26.3910   47.0060    7.7410 N.pl3     1 OLP1340     0.0000 
     15 CAW        25.9230   46.7480    9.1260 C.3       1 OLP1340     0.0000 
     16 CAB        24.8170   47.7440    9.5880 C.3       1 OLP1340     0.0000 
     17 CAA        25.4850   45.2780    9.2670 C.3       1 OLP1340     0.0000 
     18 C4         27.6210   46.7190    7.3290 C.2       1 OLP1340     0.0000 
     19 N3         28.7030   46.2410    8.0030 N.2       1 OLP1340     0.0000 
     20 C2         29.8630   46.0790    7.3040 C.2       1 OLP1340     0.0000 
     21 N2         30.9460   45.6050    7.9600 N.pl3     1 OLP1340     0.0000 
     22 CAK        32.1980   45.3730    7.2170 C.3       1 OLP1340     0.0000 
     23 CAJ        32.1690   43.9910    6.5860 C.3       1 OLP1340     0.0000 
     24 OAC        32.6850   44.0230    5.2800 O.3       1 OLP1340     0.0000 
     25 H          30.2634   48.9560    2.4604 H         1 OLP1340     0.0000 
     26 H          33.2176   46.3473    1.0302 H         1 OLP1340     0.0000 
     27 H          32.2687   44.5490    2.3368 H         1 OLP1340     0.0000 
     28 H          30.3155   44.9482    3.7042 H         1 OLP1340     0.0000 
     29 H          28.1664   47.6070    3.4811 H         1 OLP1340     0.0000 
     30 H          24.7194   47.6912    6.7249 H         1 OLP1340     0.0000 
     31 H          26.7833   46.8863    9.8135 H         1 OLP1340     0.0000 
     32 H          30.9528   45.3934    8.9557 H         1 OLP1340     0.0000 
     33 H          33.0572   45.4343    7.8862 H         1 OLP1340     0.0000 
     34 H          32.3177   46.1159    6.4273 H         1 OLP1340     0.0000 
     35 H          31.1220   43.6379    6.6100 H         1 OLP1340     0.0000 
     36 H          32.7451   43.3146    7.2433 H         1 OLP1340     0.0000 
     37 H          25.1398   48.6904    9.5733 H         1 OLP1340     0.0000 
     38 H          24.0092   47.7007    9.0002 H         1 OLP1340     0.0000 
     39 H          24.5113   47.5530   10.5208 H         1 OLP1340     0.0000 
     40 H          26.2347   44.6465    9.0691 H         1 OLP1340     0.0000 
     41 H          25.1654   45.0728   10.1921 H         1 OLP1340     0.0000 
     42 H          24.7381   45.0514    8.6418 H         1 OLP1340     0.0000 
     43 H          32.1621   43.3339    4.7783 H         1 OLP1340     0.0000 
@<TRIPOS>BOND
     1    2    1 ar   
     2    7    1 ar   
     3   25    1 1    
     4    3    2 1    
     5    4    2 ar   
     6    5    4 ar   
     7   26    4 1    
     8    6    5 ar   
     9   27    5 1    
    10    7    6 ar   
    11   28    6 1    
    12    8    7 1    
    13    9    8 1    
    14   29    8 1    
    15   10    9 2    
    16   11    9 1    
    17   20   10 1    
    18   12   11 1    
    19   18   11 2    
    20   13   12 2    
    21   14   13 1    
    22   30   13 1    
    23   15   14 1    
    24   18   14 1    
    25   16   15 1    
    26   17   15 1    
    27   31   15 1    
    28   37   16 1    
    29   38   16 1    
    30   39   16 1    
    31   40   17 1    
    32   41   17 1    
    33   42   17 1    
    34   19   18 1    
    35   20   19 2    
    36   21   20 1    
    37   22   21 1    
    38   32   21 1    
    39   23   22 1    
    40   33   22 1    
    41   34   22 1    
    42   24   23 1    
    43   35   23 1    
    44   36   23 1    
    45   43   24 1    
@<TRIPOS>SUBSTRUCTURE
     1 OLP1340     1 GROUP   
@<TRIPOS>SET

