#    Name: 1cg4_IMO_1_INTS_M
#    Modification time : Mon Mar 24 20:40:44 2014

@<TRIPOS>MOLECULE
1cg4_IMO_1_INTS_M
   70     0    15     0     0
SMALL
NO_CHARGES


@<TRIPOS>ATOM
      1 NZ         -7.4970   47.6320   46.2550 N.4       3 LYC4        0.0000 
      2 NZ         -7.7430   49.4150   45.5200 N.4      13 LYL4        0.0000 
      3 NZ         -7.2510   45.8490   46.9900 N.4       8 LYP4        0.0000 
      4 Zn         -6.9275   49.9010   45.0990 Zn        4 ZIC7        0.0000 
      5 Zn         -7.7430   49.4150   45.5200 Zn       14 ZIL7        0.0000 
      6 Zn         -6.1120   50.3870   44.6780 Zn        9 ZIP7        0.0000 
      7 N          -8.3885   50.0250   44.1380 N.am      2 SEC2        0.0000 
      8 N          -7.7430   49.4150   45.5200 N.am     12 SEL2        0.0000 
      9 N          -9.0340   50.6350   42.7560 N.am      7 SEP2        0.0000 
     10 CA         -7.7200   50.1270   50.0690 C.3       5 GLC5        0.0000 
     11 CA         -8.4080   51.8950   49.7480 C.3      15 GLL5        0.0000 
     12 CA         -7.0320   48.3590   50.3900 C.3      10 GLP5        0.0000 
     13 CA         -9.5880   51.0480   51.3220 C.3       5 GLC5        0.0000 
     14 CA        -10.7680   50.2010   52.8960 C.3      10 GLP5        0.0000 
     15 CA         -7.6740   53.5405   50.1155 C.3       5 GLC5        0.0000 
     16 CA         -6.9400   55.1860   50.4830 C.3      10 GLP5        0.0000 
     17 CA        -11.4250   51.8325   52.0525 C.3       5 GLC5        0.0000 
     18 CA        -12.0820   53.4640   51.2090 C.3      15 GLL5        0.0000 
     19 CA        -12.3780   55.3810   49.1730 C.3       5 GLC5        0.0000 
     20 CA        -12.1990   54.9840   51.1830 C.3      15 GLL5        0.0000 
     21 CA        -12.5570   55.7780   47.1630 C.3      10 GLP5        0.0000 
     22 CA        -14.2555   56.5865   51.4945 C.3       5 GLC5        0.0000 
     23 CA        -12.9940   55.1960   52.4540 C.3      15 GLL5        0.0000 
     24 CA        -15.5170   57.9770   50.5350 C.3      10 GLP5        0.0000 
     25 CA        -11.4990   56.5445   53.3870 C.3       5 GLC5        0.0000 
     26 CA        -10.0040   57.8930   54.3200 C.3      10 GLP5        0.0000 
     27 CA        -15.7845   55.6135   53.4650 C.3       5 GLC5        0.0000 
     28 CA        -15.2340   54.3390   51.8800 C.3      15 GLL5        0.0000 
     29 CA        -16.3350   56.8880   55.0500 C.3      10 GLP5        0.0000 
     30 CA        -16.4240   55.7515   51.7575 C.3       5 GLC5        0.0000 
     31 CA        -17.6140   57.1640   51.6350 C.3      10 GLP5        0.0000 
     32 NZ         -7.5650   47.2735   47.3885 N.4       3 LYC4        0.0000 
     33 NZ         -7.8790   48.6980   47.7870 N.4      13 LYL4        0.0000 
     34 N          -6.6925   48.7450   48.1805 N.am      2 SEC2        0.0000 
     35 N          -7.8790   48.6980   47.7870 N.am     12 SEL2        0.0000 
     36 N          -5.5060   48.7920   48.5740 N.am      7 SEP2        0.0000 
     37 NZ         -8.3205   46.7735   46.5675 N.4       3 LYC4        0.0000 
     38 NZ         -9.3900   47.6980   46.1450 N.4      13 LYL4        0.0000 
     39 N          -8.3205   46.7735   46.5675 N.am      2 SEC2        0.0000 
     40 N          -9.3900   47.6980   46.1450 N.am     12 SEL2        0.0000 
     41 N          -7.2510   45.8490   46.9900 N.am      7 SEP2        0.0000 
     42 N         -10.1275   47.1735   47.0110 N.am      2 SEC2        0.0000 
     43 N         -10.8650   46.6490   47.8770 N.am      7 SEP2        0.0000 
     44 N         -15.9775   51.9405   48.0875 N.am      2 SEC2        0.0000 
     45 N         -16.1230   52.7100   49.3160 N.am     12 SEL2        0.0000 
     46 N         -15.8320   51.1710   46.8590 N.am      7 SEP2        0.0000 
     47 N         -16.3005   51.3850   49.7710 N.am      2 SEC2        0.0000 
     48 N         -16.4780   50.0600   50.2260 N.am      7 SEP2        0.0000 
     49 N         -15.4525   56.1800   48.2810 N.am      2 SEC2        0.0000 
     50 N         -16.2970   54.8400   48.2170 N.am     12 SEL2        0.0000 
     51 N         -14.6080   57.5200   48.3450 N.am      7 SEP2        0.0000 
     52 N         -15.5240   55.2555   47.1635 N.am      2 SEC2        0.0000 
     53 N         -14.7510   55.6710   46.1100 N.am      7 SEP2        0.0000 
     54 CA        -10.6275   51.3155   51.2595 C.3       5 GLC5        0.0000 
     55 CA        -10.4870   52.4300   49.6230 C.3      15 GLL5        0.0000 
     56 CA         -8.3440   49.6885   49.1590 C.3       5 GLC5        0.0000 
     57 CA         -9.6560   51.0180   47.9280 C.3      15 GLL5        0.0000 
     58 N         -11.3070   49.7645   46.8125 N.am      2 SEC2        0.0000 
     59 N          -9.8020   50.1470   46.8090 N.am     12 SEL2        0.0000 
     60 N         -12.8120   49.3820   46.8160 N.am      7 SEP2        0.0000 
     61 N         -12.4125   50.6065   47.4235 N.am      2 SEC2        0.0000 
     62 N         -12.0130   51.8310   48.0310 N.am     12 SEL2        0.0000 
     63 O         -10.5290   55.3780   53.3090 O.2       1 ALC1        0.0000 
     64 O         -12.0220   55.1240   53.5540 O.2      11 ALL1        0.0000 
     65 O          -9.0360   55.6320   53.0640 O.2       6 ALP1        0.0000 
     66 CA        -15.6300   52.3650   52.4032 C.3       5 GLC5        0.0000 
     67 CA        -13.9680   54.0190   52.4770 C.3      15 GLL5        0.0000 
     68 CA        -16.6590   50.5510   52.6280 C.3      10 GLP5        0.0000 
     69 CA        -11.3855   50.2211   48.8551 C.3       5 GLC5        0.0000 
     70 CA        -12.6470   48.8940   49.2200 C.3      10 GLP5        0.0000 
@<TRIPOS>BOND
@<TRIPOS>SUBSTRUCTURE
     1 ALC1       63 GROUP        1 X    ALC  0     ROOT ALC X 1
     2 SEC2        7 GROUP        1 X    SEC  0     **** SEC X 2
     3 LYC4        1 GROUP        1 X    LYC  0     **** LYC X 4
     4 ZIC7        4 GROUP        1 X    ZIC  0     **** ZIC X 5
     5 GLC5       10 GROUP        1 X    GLC  0     **** GLC X 6
     6 ALP1       65 GROUP        1 Y    ALP  0     ROOT ALP Y 8
     7 SEP2        9 GROUP        1 Y    SEP  0     **** SEP Y 9
     8 LYP4        3 GROUP        1 Y    LYP  0     **** LYP Y 11
     9 ZIP7        6 GROUP        1 Y    ZIP  0     **** ZIP Y 12
    10 GLP5       12 GROUP        1 Y    GLP  0     **** GLP Y 13
    11 ALL1       64 GROUP        1 Z    ALL  0     ROOT ALL Z 15
    12 SEL2        8 GROUP        1 Z    SEL  0     **** SEL Z 16
    13 LYL4        2 GROUP        1 Z    LYL  0     **** LYL Z 18
    14 ZIL7        5 GROUP        1 Z    ZIL  0     **** ZIL Z 19
    15 GLL5       11 GROUP        1 Z    GLL  0     **** GLL Z 20
@<TRIPOS>SET

