#    Name: 1cg4_IMO_1_ligand
#    Modification time : Mon Mar 24 20:40:44 2014

@<TRIPOS>MOLECULE
1cg4_IMO_1_ligand
   37    39     1     0     0
SMALL
NO_CHARGES


@<TRIPOS>ATOM
      1 P          -8.6830   48.9820   46.5770 P.3       1 IMO440      0.0000 
      2 O1         -7.7430   49.4150   45.5200 O.co2     1 IMO440      0.0000 
      3 C2         -8.4080   51.8950   49.7480 C.ar      1 IMO440      0.0000 
      4 C1'       -12.0820   53.4640   51.2090 C.3       1 IMO440      0.0000 
      5 C2'       -12.1990   54.9840   51.1830 C.3       1 IMO440      0.0000 
      6 C3'       -12.9940   55.1960   52.4540 C.3       1 IMO440      0.0000 
      7 C4'       -13.9680   54.0190   52.4770 C.3       1 IMO440      0.0000 
      8 C5'       -15.2340   54.3390   51.8800 C.3       1 IMO440      0.0000 
      9 O2         -7.8790   48.6980   47.7870 O.co2     1 IMO440      0.0000 
     10 O3         -9.3900   47.6980   46.1450 O.co2     1 IMO440      0.0000 
     11 PA        -16.3870   54.1510   49.5400 P.3       1 IMO440      0.0000 
     12 O1A       -16.1230   52.7100   49.3160 O.co2     1 IMO440      0.0000 
     13 O2A       -16.2970   54.8400   48.2170 O.co2     1 IMO440      0.0000 
     14 O3A       -17.7450   54.3190   50.1150 O.co2     1 IMO440      0.0000 
     15 O5'       -15.2000   54.7240   50.5100 O.3       1 IMO440      0.0000 
     16 O4'       -13.3660   52.9260   51.7600 O.3       1 IMO440      0.0000 
     17 N9        -11.6850   52.9990   49.9520 N.pl3     1 IMO440      0.0000 
     18 C4        -10.4870   52.4300   49.6230 C.ar      1 IMO440      0.0000 
     19 N3         -9.3800   52.5440   50.2660 N.ar      1 IMO440      0.0000 
     20 N1         -8.5580   51.1760   48.6550 N.ar      1 IMO440      0.0000 
     21 C6         -9.6560   51.0180   47.9280 C.ar      1 IMO440      0.0000 
     22 O6         -9.8020   50.1470   46.8090 O.3       1 IMO440      0.0000 
     23 C5        -10.6970   51.7270   48.4820 C.ar      1 IMO440      0.0000 
     24 N7        -12.0130   51.8310   48.0310 N.2       1 IMO440      0.0000 
     25 C8        -12.5380   52.5820   48.9240 C.2       1 IMO440      0.0000 
     26 O2'       -10.9270   55.4610   51.3500 O.3       1 IMO440      0.0000 
     27 O3'       -12.0220   55.1240   53.5540 O.3       1 IMO440      0.0000 
     28 H          -7.4386   51.9261   50.2027 H         1 IMO440      0.0000 
     29 H         -11.2910   53.2595   51.9720 H         1 IMO440      0.0000 
     30 H         -12.7278   55.2716   50.3709 H         1 IMO440      0.0000 
     31 H         -13.5000   56.0941   52.4041 H         1 IMO440      0.0000 
     32 H         -14.1009   53.7312   53.5199 H         1 IMO440      0.0000 
     33 H         -15.7347   55.1525   52.4894 H         1 IMO440      0.0000 
     34 H         -15.9360   53.4589   52.0085 H         1 IMO440      0.0000 
     35 H         -13.5099   52.8905   48.9392 H         1 IMO440      0.0000 
     36 H         -10.8756   56.2708   50.7655 H         1 IMO440      0.0000 
     37 H         -11.1425   55.3542   53.1375 H         1 IMO440      0.0000 
@<TRIPOS>BOND
     1    2    1 ar   
     2    9    1 ar   
     3   10    1 ar   
     4   22    1 1    
     5   19    3 ar   
     6   20    3 ar   
     7   28    3 1    
     8    5    4 1    
     9   16    4 1    
    10   17    4 1    
    11   29    4 1    
    12    6    5 1    
    13   26    5 1    
    14   30    5 1    
    15    7    6 1    
    16   27    6 1    
    17   31    6 1    
    18    8    7 1    
    19   16    7 1    
    20   32    7 1    
    21   15    8 1    
    22   33    8 1    
    23   34    8 1    
    24   12   11 ar   
    25   13   11 ar   
    26   14   11 ar   
    27   15   11 1    
    28   18   17 1    
    29   25   17 1    
    30   19   18 ar   
    31   23   18 ar   
    32   21   20 ar   
    33   22   21 1    
    34   23   21 ar   
    35   24   23 1    
    36   25   24 2    
    37   35   25 1    
    38   36   26 1    
    39   37   27 1    
@<TRIPOS>SUBSTRUCTURE
     1 IMO440      1 GROUP   
@<TRIPOS>SET

