#    Name: 3ngt_AMP_2_INTS_M
#    Modification time : Tue Mar 25 01:33:36 2014

@<TRIPOS>MOLECULE
3ngt_AMP_2_INTS_M
   43     0     9     0     0
SMALL
NO_CHARGES


@<TRIPOS>ATOM
      1 NZ        -21.9885  -73.3700  -76.2575 N.4       2 LYC4        0.0000 
      2 NZ        -21.4390  -72.6560  -77.1990 N.4       8 LYL4        0.0000 
      3 NZ        -22.5380  -74.0840  -75.3160 N.4       5 LYP4        0.0000 
      4 N         -21.9885  -73.3700  -76.2575 N.am      1 SEC2        0.0000 
      5 N         -21.4390  -72.6560  -77.1990 N.am      7 SEL2        0.0000 
      6 N         -22.5380  -74.0840  -75.3160 N.am      4 SEP2        0.0000 
      7 N         -19.9210  -73.1075  -77.2405 N.am      1 SEC2        0.0000 
      8 N         -18.4030  -73.5590  -77.2820 N.am      4 SEP2        0.0000 
      9 N         -24.1650  -71.8080  -76.9305 N.am      1 SEC2        0.0000 
     10 N         -23.1300  -70.8570  -77.6250 N.am      7 SEL2        0.0000 
     11 N         -25.2000  -72.7590  -76.2360 N.am      4 SEP2        0.0000 
     12 N         -23.3125  -69.5190  -77.1635 N.am      1 SEC2        0.0000 
     13 N         -23.4950  -68.1810  -76.7020 N.am      4 SEP2        0.0000 
     14 CA        -24.6250  -73.1180  -78.6545 C.3       3 GLC5        0.0000 
     15 CA        -22.7840  -74.1940  -79.1700 C.3       9 GLL5        0.0000 
     16 CA        -26.4660  -72.0420  -78.1390 C.3       6 GLP5        0.0000 
     17 CA        -24.1510  -75.1875  -78.1135 C.3       3 GLC5        0.0000 
     18 CA        -25.5180  -76.1810  -77.0570 C.3       6 GLP5        0.0000 
     19 CA        -23.5415  -75.9425  -81.3885 C.3       3 GLC5        0.0000 
     20 CA        -21.9790  -74.8240  -80.3160 C.3       9 GLL5        0.0000 
     21 CA        -25.1040  -77.0610  -82.4610 C.3       6 GLP5        0.0000 
     22 CA        -20.1140  -75.8425  -80.3540 C.3       3 GLC5        0.0000 
     23 CA        -18.2490  -76.8610  -80.3920 C.3       6 GLP5        0.0000 
     24 CA        -24.3565  -73.4145  -82.0635 C.3       3 GLC5        0.0000 
     25 CA        -22.4220  -74.3510  -81.7110 C.3       9 GLL5        0.0000 
     26 CA        -26.2910  -72.4780  -82.4160 C.3       6 GLP5        0.0000 
     27 CA        -19.7930  -76.6615  -81.0250 C.3       3 GLC5        0.0000 
     28 CA        -21.3370  -76.4620  -81.6580 C.3       9 GLL5        0.0000 
     29 CA        -23.6235  -80.7630  -81.3450 C.3       3 GLC5        0.0000 
     30 CA        -22.2070  -80.6990  -80.2570 C.3       9 GLL5        0.0000 
     31 CA        -25.0400  -80.8270  -82.4330 C.3       6 GLP5        0.0000 
     32 CA        -20.3135  -80.0190  -80.4720 C.3       3 GLC5        0.0000 
     33 CA        -18.4200  -79.3390  -80.6870 C.3       6 GLP5        0.0000 
     34 CA        -21.2850  -80.3250  -78.5350 C.3       3 GLC5        0.0000 
     35 CA        -20.3630  -79.9510  -76.8130 C.3       6 GLP5        0.0000 
     36 CA        -20.3218  -73.6757  -81.0668 C.3       3 GLC5        0.0000 
     37 CA        -18.4430  -72.7640  -81.1200 C.3       6 GLP5        0.0000 
     38 CA        -23.1116  -76.2379  -82.7874 C.3       3 GLC5        0.0000 
     39 CA        -24.4510  -76.7840  -83.6620 C.3       6 GLP5        0.0000 
     40 CA        -23.1988  -80.3446  -82.2630 C.3       3 GLC5        0.0000 
     41 CA        -21.1030  -80.0270  -82.6760 C.3       9 GLL5        0.0000 
     42 CA        -19.8888  -79.6006  -81.3900 C.3       3 GLC5        0.0000 
     43 CA        -21.3470  -81.4520  -82.3100 C.3       9 GLL5        0.0000 
@<TRIPOS>BOND
@<TRIPOS>SUBSTRUCTURE
     1 SEC2        4 GROUP        1 X    SEC  0     ROOT SEC X 2
     2 LYC4        1 GROUP        1 X    LYC  0     **** LYC X 4
     3 GLC5       14 GROUP        1 X    GLC  0     **** GLC X 6
     4 SEP2        6 GROUP        1 Y    SEP  0     ROOT SEP Y 9
     5 LYP4        3 GROUP        1 Y    LYP  0     **** LYP Y 11
     6 GLP5       16 GROUP        1 Y    GLP  0     **** GLP Y 13
     7 SEL2        5 GROUP        1 Z    SEL  0     ROOT SEL Z 16
     8 LYL4        2 GROUP        1 Z    LYL  0     **** LYL Z 18
     9 GLL5       15 GROUP        1 Z    GLL  0     **** GLL Z 20
@<TRIPOS>SET

