#    Name: 3ngt_AMP_2_ligand
#    Modification time : Tue Mar 25 01:33:36 2014

@<TRIPOS>MOLECULE
3ngt_AMP_2_ligand
   35    37     1     0     0
SMALL
NO_CHARGES


@<TRIPOS>ATOM
      1 P         -22.0350  -71.7280  -78.2210 P.3       1 AMP152      0.0000 
      2 O1P       -20.9680  -71.0370  -79.0490 O.co2     1 AMP152      0.0000 
      3 O2P       -21.4390  -72.6560  -77.1990 O.co2     1 AMP152      0.0000 
      4 O3P       -23.1300  -70.8570  -77.6250 O.co2     1 AMP152      0.0000 
      5 O5'       -22.7680  -72.7440  -79.2690 O.3       1 AMP152      0.0000 
      6 C5'       -22.7840  -74.1940  -79.1700 C.3       1 AMP152      0.0000 
      7 C4'       -21.9790  -74.8240  -80.3160 C.3       1 AMP152      0.0000 
      8 O4'       -21.9820  -76.2670  -80.3900 O.3       1 AMP152      0.0000 
      9 C3'       -22.4220  -74.3510  -81.7110 C.3       1 AMP152      0.0000 
     10 O3'       -21.8390  -73.1000  -82.1050 O.3       1 AMP152      0.0000 
     11 C2'       -21.9930  -75.4920  -82.6240 C.3       1 AMP152      0.0000 
     12 O2'       -21.0680  -75.1400  -83.6630 O.3       1 AMP152      0.0000 
     13 C1'       -21.3370  -76.4620  -81.6580 C.3       1 AMP152      0.0000 
     14 N9        -21.1900  -77.8100  -82.2460 N.pl3     1 AMP152      0.0000 
     15 C8        -20.6480  -78.0430  -83.4700 C.2       1 AMP152      0.0000 
     16 N7        -20.5940  -79.3750  -83.7490 N.2       1 AMP152      0.0000 
     17 C5        -21.1030  -80.0270  -82.6760 C.ar      1 AMP152      0.0000 
     18 C6        -21.3470  -81.4520  -82.3100 C.ar      1 AMP152      0.0000 
     19 N6        -21.0310  -82.4620  -83.1620 N.pl3     1 AMP152      0.0000 
     20 N1        -21.8990  -81.7130  -81.1020 N.ar      1 AMP152      0.0000 
     21 C2        -22.2070  -80.6990  -80.2570 C.ar      1 AMP152      0.0000 
     22 N3        -22.0230  -79.3790  -80.5180 N.ar      1 AMP152      0.0000 
     23 C4        -21.4900  -78.9850  -81.6930 C.ar      1 AMP152      0.0000 
     24 H         -23.8070  -74.5834  -79.2234 H         1 AMP152      0.0000 
     25 H         -22.3443  -74.5313  -78.2246 H         1 AMP152      0.0000 
     26 H         -20.9215  -74.4812  -80.2197 H         1 AMP152      0.0000 
     27 H         -23.5002  -74.3314  -81.7116 H         1 AMP152      0.0000 
     28 H         -22.8798  -75.9745  -82.9935 H         1 AMP152      0.0000 
     29 H         -20.2732  -76.0247  -81.5562 H         1 AMP152      0.0000 
     30 H         -20.3338  -77.3397  -84.0790 H         1 AMP152      0.0000 
     31 H         -21.2350  -83.3873  -82.8424 H         1 AMP152      0.0000 
     32 H         -20.6223  -82.1909  -84.0335 H         1 AMP152      0.0000 
     33 H         -22.6310  -80.9594  -79.3034 H         1 AMP152      0.0000 
     34 H         -21.2654  -73.3191  -82.8942 H         1 AMP152      0.0000 
     35 H         -20.1862  -75.4988  -83.3568 H         1 AMP152      0.0000 
@<TRIPOS>BOND
     1    2    1 ar   
     2    3    1 ar   
     3    4    1 ar   
     4    5    1 1    
     5    6    5 1    
     6    7    6 1    
     7   24    6 1    
     8   25    6 1    
     9    8    7 1    
    10    9    7 1    
    11   26    7 1    
    12   13    8 1    
    13   10    9 1    
    14   11    9 1    
    15   27    9 1    
    16   34   10 1    
    17   12   11 1    
    18   13   11 1    
    19   28   11 1    
    20   35   12 1    
    21   14   13 1    
    22   29   13 1    
    23   15   14 1    
    24   23   14 1    
    25   16   15 2    
    26   30   15 1    
    27   17   16 1    
    28   18   17 ar   
    29   23   17 ar   
    30   19   18 1    
    31   20   18 ar   
    32   31   19 1    
    33   32   19 1    
    34   21   20 ar   
    35   22   21 ar   
    36   33   21 1    
    37   23   22 ar   
@<TRIPOS>SUBSTRUCTURE
     1 AMP152      1 GROUP   
@<TRIPOS>SET

