#    Name: 2pla_NAD_2_INTS_M
#    Modification time : Mon Mar 24 19:13:12 2014

@<TRIPOS>MOLECULE
2pla_NAD_2_INTS_M
   85     0     9     0     0
SMALL
NO_CHARGES


@<TRIPOS>ATOM
      1 N          67.0730  -72.2990   -3.2995 N.am      2 SEC2        0.0000 
      2 N          68.0950  -72.8110   -2.5930 N.am      8 SEL2        0.0000 
      3 N          66.0510  -71.7870   -4.0060 N.am      5 SEP2        0.0000 
      4 N          71.7045  -71.7925   -1.9685 N.am      2 SEC2        0.0000 
      5 N          70.1830  -71.6930   -2.2470 N.am      8 SEL2        0.0000 
      6 N          73.2260  -71.8920   -1.6900 N.am      5 SEP2        0.0000 
      7 N          69.1705  -70.6485   -1.6360 N.am      2 SEC2        0.0000 
      8 N          68.1580  -69.6040   -1.0250 N.am      5 SEP2        0.0000 
      9 CA         68.7360  -72.8845   -4.8875 C.3       3 GLC5        0.0000 
     10 CA         69.5670  -74.7190   -4.3570 C.3       9 GLL5        0.0000 
     11 CA         67.9050  -71.0500   -5.4180 C.3       6 GLP5        0.0000 
     12 CA         72.0395  -75.1610   -6.5645 C.3       3 GLC5        0.0000 
     13 CA         71.4350  -76.2630   -5.2580 C.3       9 GLL5        0.0000 
     14 CA         72.6440  -74.0590   -7.8710 C.3       6 GLP5        0.0000 
     15 CA         71.3545  -79.4050   -7.0960 C.3       3 GLC5        0.0000 
     16 CA         71.3430  -77.7540   -5.5960 C.3       9 GLL5        0.0000 
     17 CA         71.3660  -81.0560   -8.5960 C.3       6 GLP5        0.0000 
     18 CA         68.0570  -78.7000   -4.6905 C.3       3 GLC5        0.0000 
     19 CA         70.1130  -78.2490   -4.8580 C.3       9 GLL5        0.0000 
     20 CA         66.0010  -79.1510   -4.5230 C.3       6 GLP5        0.0000 
     21 CA         70.7920  -82.2350   -5.9130 C.3       3 GLC5        0.0000 
     22 CA         68.9360  -82.5590   -5.2070 C.3       9 GLL5        0.0000 
     23 CA         72.6480  -81.9110   -6.6190 C.3       6 GLP5        0.0000 
     24 CA         67.4680  -82.4560   -3.8525 C.3       3 GLC5        0.0000 
     25 CA         66.0000  -82.3530   -2.4980 C.3       6 GLP5        0.0000 
     26 CA         70.8185  -81.0920   -6.2090 C.3       3 GLC5        0.0000 
     27 CA         68.9890  -80.2730   -5.7990 C.3       9 GLL5        0.0000 
     28 N          71.7815  -71.6180    0.8640 N.am      2 SEC2        0.0000 
     29 N          70.3610  -71.9010    0.4760 N.am      8 SEL2        0.0000 
     30 N          73.2020  -71.3350    1.2520 N.am      5 SEP2        0.0000 
     31 N          72.4130  -72.6990    1.0230 N.am      2 SEC2        0.0000 
     32 N          71.6240  -74.0630    0.7940 N.am      8 SEL2        0.0000 
     33 N          73.0420  -73.8955    1.4240 N.am      2 SEC2        0.0000 
     34 N          74.4600  -73.7280    2.0540 N.am      5 SEP2        0.0000 
     35 CA         70.8475  -73.3615    2.9615 C.3       3 GLC5        0.0000 
     36 CA         69.4360  -74.8890    2.4630 C.3       9 GLL5        0.0000 
     37 CA         72.2590  -71.8340    3.4600 C.3       6 GLP5        0.0000 
     38 CA         69.4145  -76.9110    1.9195 C.3       3 GLC5        0.0000 
     39 CA         69.3930  -78.9330    1.3760 C.3       6 GLP5        0.0000 
     40 CA         68.8335  -76.0765    0.8110 C.3       3 GLC5        0.0000 
     41 CA         68.2310  -77.2640   -0.8410 C.3       6 GLP5        0.0000 
     42 CA         69.9775  -73.8050    4.6670 C.3       3 GLC5        0.0000 
     43 CA         68.3750  -74.7920    3.5840 C.3       9 GLL5        0.0000 
     44 CA         71.5800  -72.8180    5.7500 C.3       6 GLP5        0.0000 
     45 CA         67.4950  -76.0380    5.1240 C.3       3 GLC5        0.0000 
     46 CA         66.6150  -77.2840    6.6640 C.3       6 GLP5        0.0000 
     47 CA         66.5260  -75.9065    1.6805 C.3       3 GLC5        0.0000 
     48 CA         66.9750  -74.3990    3.1210 C.3       9 GLL5        0.0000 
     49 CA         66.0770  -77.4140    0.2400 C.3       6 GLP5        0.0000 
     50 N          65.4590  -75.3435    5.2510 N.am      2 SEC2        0.0000 
     51 N          66.0270  -75.1090    3.8860 N.am      8 SEL2        0.0000 
     52 N          64.8910  -75.5780    6.6160 N.am      5 SEP2        0.0000 
     53 O          64.8340  -75.2215    3.1335 O.2       1 ALC1        0.0000 
     54 O          66.0270  -75.1090    3.8860 O.2       7 ALL1        0.0000 
     55 O          63.6410  -75.3340    2.3810 O.2       4 ALP1        0.0000 
     56 CA         69.6735  -72.7920    5.1835 C.3       3 GLC5        0.0000 
     57 CA         67.7670  -72.7660    4.6170 C.3       9 GLL5        0.0000 
     58 CA         66.6415  -72.1190    6.2650 C.3       3 GLC5        0.0000 
     59 CA         65.5160  -71.4720    7.9130 C.3       6 GLP5        0.0000 
     60 N          71.5405  -66.6980    3.6650 N.am      2 SEC2        0.0000 
     61 N          70.2400  -67.2580    3.1290 N.am      8 SEL2        0.0000 
     62 N          72.8410  -66.1380    4.2010 N.am      5 SEP2        0.0000 
     63 O          71.0590  -68.3110    0.6310 O.2       1 ALC1        0.0000 
     64 O          70.2770  -69.1440    1.7240 O.2       7 ALL1        0.0000 
     65 O          71.8410  -67.4780   -0.4620 O.2       4 ALP1        0.0000 
     66 CA         67.8975  -70.5020    7.7660 C.3       3 GLC5        0.0000 
     67 CA         69.4870  -69.9640    6.3790 C.3       9 GLL5        0.0000 
     68 CA         66.3080  -71.0400    9.1530 C.3       6 GLP5        0.0000 
     69 CA         70.6595  -68.8755    7.8480 C.3       3 GLC5        0.0000 
     70 CA         71.8320  -67.7870    9.3170 C.3       6 GLP5        0.0000 
     71 CA         67.1580  -71.3060    7.0065 C.3       3 GLC5        0.0000 
     72 CA         68.8000  -71.1400    6.1000 C.3       9 GLL5        0.0000 
     73 CA         70.9620  -74.2362   -5.7070 C.3       3 GLC5        0.0000 
     74 CA         71.9710  -73.0980   -7.1280 C.3       6 GLP5        0.0000 
     75 CA         68.5900  -75.8783   -2.9155 C.3       3 GLC5        0.0000 
     76 CA         67.2270  -76.3820   -1.5450 C.3       6 GLP5        0.0000 
     77 CA         72.2025  -75.1833   -3.4897 C.3       3 GLC5        0.0000 
     78 CA         70.3390  -76.0300   -4.2150 C.3       9 GLL5        0.0000 
     79 CA         73.5180  -74.2200   -2.2430 C.3       6 GLP5        0.0000 
     80 CA         70.6873  -75.4267    3.5893 C.3       3 GLC5        0.0000 
     81 CA         72.4690  -76.0130    4.1550 C.3       6 GLP5        0.0000 
     82 CA         70.7287  -70.9540    3.6845 C.3       3 GLC5        0.0000 
     83 CA         68.8570  -70.6670    3.7760 C.3       9 GLL5        0.0000 
     84 CA         70.7456  -71.0866    4.7201 C.3       3 GLC5        0.0000 
     85 CA         69.8420  -69.1130    5.3420 C.3       9 GLL5        0.0000 
@<TRIPOS>BOND
@<TRIPOS>SUBSTRUCTURE
     1 ALC1       53 GROUP        1 X    ALC  0     ROOT ALC X 1
     2 SEC2        1 GROUP        1 X    SEC  0     **** SEC X 2
     3 GLC5        9 GROUP        1 X    GLC  0     **** GLC X 6
     4 ALP1       55 GROUP        1 Y    ALP  0     ROOT ALP Y 8
     5 SEP2        3 GROUP        1 Y    SEP  0     **** SEP Y 9
     6 GLP5       11 GROUP        1 Y    GLP  0     **** GLP Y 13
     7 ALL1       54 GROUP        1 Z    ALL  0     ROOT ALL Z 15
     8 SEL2        2 GROUP        1 Z    SEL  0     **** SEL Z 16
     9 GLL5       10 GROUP        1 Z    GLL  0     **** GLL Z 20
@<TRIPOS>SET

