#    Name: 2pla_NAD_2_ligand
#    Modification time : Mon Mar 24 19:13:12 2014

@<TRIPOS>MOLECULE
2pla_NAD_2_ligand
   70    74     1     0     0
SMALL
NO_CHARGES


@<TRIPOS>ATOM
      1 PA         69.5140  -73.0020   -2.2690 P.3       1 NAD401      0.0000 
      2 O1A        68.0950  -72.8110   -2.5930 O.co2     1 NAD401      0.0000 
      3 O2A        70.1830  -71.6930   -2.2470 O.co2     1 NAD401      0.0000 
      4 O5B        70.1940  -73.7920   -3.4930 O.3       1 NAD401      0.0000 
      5 C5B        69.5670  -74.7190   -4.3570 C.3       1 NAD401      0.0000 
      6 C4B        70.3390  -76.0300   -4.2150 C.3       1 NAD401      0.0000 
      7 O4B        69.4510  -77.1230   -4.3110 O.3       1 NAD401      0.0000 
      8 C3B        71.4350  -76.2630   -5.2580 C.3       1 NAD401      0.0000 
      9 O3B        72.6950  -75.9020   -4.7430 O.3       1 NAD401      0.0000 
     10 C2B        71.3430  -77.7540   -5.5960 C.3       1 NAD401      0.0000 
     11 O2B        72.4200  -78.5720   -5.1760 O.3       1 NAD401      0.0000 
     12 C1B        70.1130  -78.2490   -4.8580 C.3       1 NAD401      0.0000 
     13 N9A        69.2590  -78.9370   -5.8220 N.pl3     1 NAD401      0.0000 
     14 C8A        68.6040  -78.3580   -6.8770 C.2       1 NAD401      0.0000 
     15 N7A        67.9270  -79.3330   -7.5170 N.2       1 NAD401      0.0000 
     16 C5A        68.1480  -80.5070   -6.8770 C.ar      1 NAD401      0.0000 
     17 C6A        67.6900  -81.7920   -7.1270 C.ar      1 NAD401      0.0000 
     18 N6A        67.0890  -82.0360   -8.2970 N.pl3     1 NAD401      0.0000 
     19 N1A        68.0870  -82.8170   -6.2810 N.ar      1 NAD401      0.0000 
     20 C2A        68.9360  -82.5590   -5.2070 C.ar      1 NAD401      0.0000 
     21 N3A        69.3850  -81.2700   -4.9640 N.ar      1 NAD401      0.0000 
     22 C4A        68.9890  -80.2730   -5.7990 C.ar      1 NAD401      0.0000 
     23 O3         69.7640  -73.9080   -0.9770 O.3       1 NAD401      0.0000 
     24 PN         70.3610  -73.3790    0.4340 P.3       1 NAD401      0.0000 
     25 O1N        70.3610  -71.9010    0.4760 O.co2     1 NAD401      0.0000 
     26 O2N        71.6240  -74.0630    0.7940 O.co2     1 NAD401      0.0000 
     27 O5D        69.2110  -73.9640    1.4160 O.3       1 NAD401      0.0000 
     28 C5D        69.4360  -74.8890    2.4630 C.3       1 NAD401      0.0000 
     29 C4D        68.3750  -74.7920    3.5840 C.3       1 NAD401      0.0000 
     30 O4D        68.7290  -73.8110    4.5480 O.3       1 NAD401      0.0000 
     31 C3D        66.9750  -74.3990    3.1210 C.3       1 NAD401      0.0000 
     32 O3D        66.0270  -75.1090    3.8860 O.3       1 NAD401      0.0000 
     33 C2D        66.8840  -72.9110    3.3810 C.3       1 NAD401      0.0000 
     34 O2D        65.5470  -72.5050    3.5810 O.3       1 NAD401      0.0000 
     35 C1D        67.7670  -72.7660    4.6170 C.3       1 NAD401      0.0000 
     36 N1N        68.4820  -71.4800    4.8100 N.pl3     1 NAD401      0.0000 
     37 C2N        68.8570  -70.6670    3.7760 C.ar      1 NAD401      0.0000 
     38 C3N        69.5400  -69.4810    4.0420 C.ar      1 NAD401      0.0000 
     39 C7N        70.0370  -68.6250    2.9190 C.2       1 NAD401      0.0000 
     40 O7N        70.2400  -67.2580    3.1290 O.2       1 NAD401      0.0000 
     41 N7N        70.2770  -69.1440    1.7240 N.am      1 NAD401      0.0000 
     42 C4N        69.8420  -69.1130    5.3420 C.ar      1 NAD401      0.0000 
     43 C5N        69.4870  -69.9640    6.3790 C.ar      1 NAD401      0.0000 
     44 C6N        68.8000  -71.1400    6.1000 C.ar      1 NAD401      0.0000 
     45 H          69.6163  -74.4157   -5.3969 H         1 NAD401      0.0000 
     46 H          68.5354  -74.9098   -4.0825 H         1 NAD401      0.0000 
     47 H          70.8209  -76.0380   -3.2298 H         1 NAD401      0.0000 
     48 H          71.1582  -75.7119   -6.1379 H         1 NAD401      0.0000 
     49 H          71.1267  -77.8536   -6.6471 H         1 NAD401      0.0000 
     50 H          70.4397  -78.9285   -4.0977 H         1 NAD401      0.0000 
     51 H          68.6303  -77.4307   -7.1068 H         1 NAD401      0.0000 
     52 H          66.8045  -82.9813   -8.4568 H         1 NAD401      0.0000 
     53 H          66.9781  -81.2512   -8.9068 H         1 NAD401      0.0000 
     54 H          69.2300  -83.3320   -4.5919 H         1 NAD401      0.0000 
     55 H          70.4239  -74.7403    2.9436 H         1 NAD401      0.0000 
     56 H          69.4245  -75.9368    2.1013 H         1 NAD401      0.0000 
     57 H          68.2956  -75.7674    4.0686 H         1 NAD401      0.0000 
     58 H          66.9090  -74.5757    2.0812 H         1 NAD401      0.0000 
     59 H          67.3790  -72.4163    2.5716 H         1 NAD401      0.0000 
     60 H          67.1261  -72.9552    5.4974 H         1 NAD401      0.0000 
     61 H          68.6415  -70.9191    2.8013 H         1 NAD401      0.0000 
     62 H          70.5752  -68.5023    1.0174 H         1 NAD401      0.0000 
     63 H          70.1382  -70.1305    1.6368 H         1 NAD401      0.0000 
     64 H          70.3183  -68.2299    5.5362 H         1 NAD401      0.0000 
     65 H          69.7300  -69.7274    7.3480 H         1 NAD401      0.0000 
     66 H          68.5280  -71.7631    6.8838 H         1 NAD401      0.0000 
     67 H          73.2545  -76.7266   -4.8266 H         1 NAD401      0.0000 
     68 H          72.2214  -78.7908   -4.2207 H         1 NAD401      0.0000 
     69 H          65.1385  -74.7723    3.5742 H         1 NAD401      0.0000 
     70 H          65.6091  -71.5617    3.9070 H         1 NAD401      0.0000 
@<TRIPOS>BOND
     1    2    1 ar   
     2    3    1 ar   
     3    4    1 1    
     4   23    1 1    
     5    5    4 1    
     6    6    5 1    
     7   45    5 1    
     8   46    5 1    
     9    7    6 1    
    10    8    6 1    
    11   47    6 1    
    12   12    7 1    
    13    9    8 1    
    14   10    8 1    
    15   48    8 1    
    16   67    9 1    
    17   11   10 1    
    18   12   10 1    
    19   49   10 1    
    20   68   11 1    
    21   13   12 1    
    22   50   12 1    
    23   14   13 1    
    24   22   13 1    
    25   15   14 2    
    26   51   14 1    
    27   16   15 1    
    28   17   16 ar   
    29   22   16 ar   
    30   18   17 1    
    31   19   17 ar   
    32   52   18 1    
    33   53   18 1    
    34   20   19 ar   
    35   21   20 ar   
    36   54   20 1    
    37   22   21 ar   
    38   24   23 1    
    39   25   24 ar   
    40   26   24 ar   
    41   27   24 1    
    42   28   27 1    
    43   29   28 1    
    44   55   28 1    
    45   56   28 1    
    46   30   29 1    
    47   31   29 1    
    48   57   29 1    
    49   35   30 1    
    50   32   31 1    
    51   33   31 1    
    52   58   31 1    
    53   69   32 1    
    54   34   33 1    
    55   35   33 1    
    56   59   33 1    
    57   70   34 1    
    58   36   35 1    
    59   60   35 1    
    60   37   36 ar   
    61   44   36 ar   
    62   38   37 ar   
    63   61   37 1    
    64   39   38 1    
    65   42   38 ar   
    66   40   39 2    
    67   41   39 am   
    68   62   41 1    
    69   63   41 1    
    70   43   42 ar   
    71   64   42 1    
    72   44   43 ar   
    73   65   43 1    
    74   66   44 1    
@<TRIPOS>SUBSTRUCTURE
     1 NAD401      1 GROUP   
@<TRIPOS>SET

