#    Name: 3VC2_5_CAVITY_N1_ALL.mol2
#    Modification time : Tue Mar 11 10:42:28 2014

@<TRIPOS>MOLECULE
3VC2_5_CAVITY_N1_ALL.mol2
   58     0     5     0     0
SMALL
NO_CHARGES


@<TRIPOS>ATOM
      1 N          43.5880   36.2318   76.1418 N.2       2 ALA2        0.0000 
      2 N          42.1667   36.2245   76.6209 N.2       2 ALA2        0.0000 
      3 N          44.9166   34.7718   75.3648 N.2       2 ALA2        0.0000 
      4 CA         43.4952   34.7645   75.8440 C.3       4 GLY6        0.0000 
      5 CA         42.0738   34.7573   76.3232 C.3       4 GLY6        0.0000 
      6 CA         43.4023   33.2973   75.5462 C.3       4 GLY6        0.0000 
      7 CA         43.4075   41.8879   70.9964 C.3       4 GLY6        0.0000 
      8 CZ         42.9321   33.6092   74.1564 C.ar      3 PHE5        0.0000 
      9 CZ         45.1133   38.6490   71.3116 C.ar      3 PHE5        0.0000 
     10 DU         43.6919   38.6417   71.7907 H         5 CUB7        0.0000 
     11 CA         42.2705   38.6344   72.2699 C.3       4 GLY6        0.0000 
     12 OG         40.8491   38.6272   72.7491 O.2       1 SER1        0.0000 
     13 O          43.5990   37.1745   71.4930 O.2       2 ALA2        0.0000 
     14 CA         42.1776   37.1672   71.9721 C.3       4 GLY6        0.0000 
     15 OG         40.7562   37.1600   72.4513 O.2       1 SER1        0.0000 
     16 CA         42.0848   35.7000   71.6744 C.3       4 GLY6        0.0000 
     17 CA         44.2549   39.7971   73.4784 C.3       4 GLY6        0.0000 
     18 CA         44.1620   38.3299   73.1806 C.3       4 GLY6        0.0000 
     19 CA         42.7407   38.3226   73.6598 C.3       4 GLY6        0.0000 
     20 O          44.0692   36.8627   72.8828 O.2       2 ALA2        0.0000 
     21 N          42.6478   36.8554   73.3620 N.2       2 ALA2        0.0000 
     22 O          41.2264   36.8481   73.8412 O.2       2 ALA2        0.0000 
     23 N          41.1335   35.3809   73.5434 N.2       2 ALA2        0.0000 
     24 CA         41.7784   37.0608   80.1776 C.3       4 GLY6        0.0000 
     25 OG         40.3570   37.0535   80.6568 O.2       1 SER1        0.0000 
     26 N          43.1069   35.6008   79.4007 N.2       2 ALA2        0.0000 
     27 O          41.6855   35.5936   79.8798 O.2       2 ALA2        0.0000 
     28 OG         40.2642   35.5863   80.3590 O.2       1 SER1        0.0000 
     29 O          41.5927   34.1264   79.5821 O.2       2 ALA2        0.0000 
     30 O          40.1713   34.1191   80.0612 O.2       2 ALA2        0.0000 
     31 CA         45.2991   41.5834   71.9071 C.3       4 GLY6        0.0000 
     32 CA         43.8777   41.5761   72.3862 C.3       4 GLY6        0.0000 
     33 CA         45.2062   40.1162   71.6093 C.3       4 GLY6        0.0000 
     34 CA         43.7848   40.1089   72.0885 C.3       4 GLY6        0.0000 
     35 CA         42.3634   40.1017   72.5677 C.3       4 GLY6        0.0000 
     36 N          41.3083   37.3726   78.7877 N.2       2 ALA2        0.0000 
     37 N          39.8869   37.3654   79.2669 N.2       2 ALA2        0.0000 
     38 N          44.0582   35.9199   77.5316 N.2       2 ALA2        0.0000 
     39 N          42.6368   35.9127   78.0108 N.2       2 ALA2        0.0000 
     40 N          41.2154   35.9054   78.4900 N.2       2 ALA2        0.0000 
     41 N          39.7940   35.8981   78.9691 N.2       2 ALA2        0.0000 
     42 N          42.5439   34.4455   77.7130 N.2       2 ALA2        0.0000 
     43 O          41.1225   34.4382   78.1922 O.2       2 ALA2        0.0000 
     44 N          39.7011   34.4309   78.6714 N.2       2 ALA2        0.0000 
     45 CA         44.7360   40.4280   70.2194 C.3       4 GLY6        0.0000 
     46 CA         43.3147   40.4207   70.6986 C.3       4 GLY6        0.0000 
     47 O          41.8933   40.4135   71.1778 O.2       2 ALA2        0.0000 
     48 CA         44.6432   38.9608   69.9217 C.3       4 GLY6        0.0000 
     49 CA         43.2218   38.9535   70.4009 C.3       4 GLY6        0.0000 
     50 O          41.8004   38.9463   70.8800 O.2       2 ALA2        0.0000 
     51 CA         43.1289   37.4863   70.1031 C.3       4 GLY6        0.0000 
     52 OG         41.7075   37.4790   70.5823 O.2       1 SER1        0.0000 
     53 CZ         44.5393   36.5508   74.2727 C.ar      3 PHE5        0.0000 
     54 N          43.1179   36.5436   74.7519 N.2       2 ALA2        0.0000 
     55 O          41.6965   36.5363   75.2311 O.2       2 ALA2        0.0000 
     56 CZ         44.4464   35.0836   73.9750 C.ar      3 PHE5        0.0000 
     57 CZ         43.0250   35.0764   74.4541 C.ar      3 PHE5        0.0000 
     58 CA         41.6036   35.0691   74.9333 C.3       4 GLY6        0.0000 
@<TRIPOS>BOND
@<TRIPOS>SUBSTRUCTURE
     1 SER1       12 GROUP   
     2 ALA2        1 GROUP   
     3 PHE5        8 GROUP   
     4 GLY6        4 GROUP   
     5 CUB7       10 GROUP   
@<TRIPOS>SET

