#    Name: 3vc2_SAH_5_INTS_M
#    Modification time : Tue Mar 25 00:34:35 2014

@<TRIPOS>MOLECULE
3vc2_SAH_5_INTS_M
   89     0     9     0     0
SMALL
NO_CHARGES


@<TRIPOS>ATOM
      1 O          41.8195   38.2370   77.6775 O.2       1 ALC1        0.0000 
      2 O          42.0860   37.5270   78.8570 O.2       7 ALL1        0.0000 
      3 O          41.5530   38.9470   76.4980 O.2       4 ALP1        0.0000 
      4 O          43.4995   37.5460   79.1395 O.2       1 ALC1        0.0000 
      5 O          44.9130   37.5650   79.4220 O.2       4 ALP1        0.0000 
      6 O          41.2885   37.9385   80.0030 O.2       1 ALC1        0.0000 
      7 O          40.4910   38.3500   81.1490 O.2       4 ALP1        0.0000 
      8 CA         40.1070   37.5110   77.6275 C.3       3 GLC5        0.0000 
      9 CA         41.4550   36.1950   78.5670 C.3       9 GLL5        0.0000 
     10 CA         38.7590   38.8270   76.6880 C.3       6 GLP5        0.0000 
     11 CA         43.1605   33.1945   76.3275 C.3       3 GLC5        0.0000 
     12 CA         43.7460   34.7650   75.4350 C.3       9 GLL5        0.0000 
     13 CA         42.5750   31.6240   77.2200 C.3       6 GLP5        0.0000 
     14 N          41.3125   32.7545   79.5445 N.am      2 SEC2        0.0000 
     15 N          41.0550   34.1010   79.6400 N.am      8 SEL2        0.0000 
     16 N          41.5700   31.4080   79.4490 N.am      5 SEP2        0.0000 
     17 N          42.5985   34.7790   81.7510 N.am      2 SEC2        0.0000 
     18 N          42.3850   35.5150   80.6220 N.am      8 SEL2        0.0000 
     19 N          42.8120   34.0430   82.8800 N.am      5 SEP2        0.0000 
     20 CA         45.9965   36.4280   73.6015 C.3       3 GLC5        0.0000 
     21 CA         44.2940   36.1090   74.4210 C.3       9 GLL5        0.0000 
     22 CA         47.6990   36.7470   72.7820 C.3       6 GLP5        0.0000 
     23 CA         43.7645   35.2020   72.7675 C.3       3 GLC5        0.0000 
     24 CA         43.0970   36.9550   73.9810 C.3       9 GLL5        0.0000 
     25 CA         44.4320   33.4490   71.5540 C.3       6 GLP5        0.0000 
     26 CA         42.2890   38.8190   74.4110 C.3       3 GLC5        0.0000 
     27 CA         41.4810   40.6830   74.8410 C.3       6 GLP5        0.0000 
     28 CA         40.5410   35.7800   74.1760 C.3       3 GLC5        0.0000 
     29 CA         42.2390   36.3400   72.8680 C.3       9 GLL5        0.0000 
     30 CA         38.8430   35.2200   75.4840 C.3       6 GLP5        0.0000 
     31 N          39.9550   36.5855   74.4215 N.am      2 SEC2        0.0000 
     32 N          40.8640   36.5210   73.2270 N.am      8 SEL2        0.0000 
     33 N          39.0460   36.6500   75.6160 N.am      5 SEP2        0.0000 
     34 N          39.7220   37.1030   72.2245 N.am      2 SEC2        0.0000 
     35 N          38.5800   37.6850   71.2220 N.am      5 SEP2        0.0000 
     36 O          39.9475   35.7710   72.6560 O.2       1 ALC1        0.0000 
     37 O          40.8640   36.5210   73.2270 O.2       7 ALL1        0.0000 
     38 O          39.0310   35.0210   72.0850 O.2       4 ALP1        0.0000 
     39 N          40.3750   38.4695   69.9800 N.am      2 SEC2        0.0000 
     40 N          41.4210   37.3530   70.7660 N.am      8 SEL2        0.0000 
     41 N          39.3290   39.5860   69.1940 N.am      5 SEP2        0.0000 
     42 O          40.0005   37.5190   70.9940 O.2       1 ALC1        0.0000 
     43 O          41.4210   37.3530   70.7660 O.2       7 ALL1        0.0000 
     44 O          38.5800   37.6850   71.2220 O.2       4 ALP1        0.0000 
     45 CA         42.1285   39.6040   73.5845 C.3       3 GLC5        0.0000 
     46 CA         42.7760   38.5250   72.3280 C.3       9 GLL5        0.0000 
     47 CA         44.0225   39.1455   74.0930 C.3       3 GLC5        0.0000 
     48 CA         45.2690   39.7660   75.8580 C.3       6 GLP5        0.0000 
     49 CA         43.5060   40.8570   68.7065 C.3       3 GLC5        0.0000 
     50 CA         43.8460   41.4010   70.3350 C.3       9 GLL5        0.0000 
     51 CA         43.1660   40.3130   67.0780 C.3       6 GLP5        0.0000 
     52 CA         42.6105   41.6745   68.6610 C.3       3 GLC5        0.0000 
     53 CA         43.4620   42.7210   69.7920 C.3       9 GLL5        0.0000 
     54 CA         41.7590   40.6280   67.5300 C.3       6 GLP5        0.0000 
     55 CA         42.0885   44.2035   68.9480 C.3       3 GLC5        0.0000 
     56 CA         40.7150   45.6860   68.1040 C.3       6 GLP5        0.0000 
     57 CA         43.4980   43.9605   71.2055 C.3       3 GLC5        0.0000 
     58 CA         43.5340   45.2000   72.6190 C.3       6 GLP5        0.0000 
     59 CA         45.4895   43.4765   70.0710 C.3       3 GLC5        0.0000 
     60 CA         47.5170   44.2320   70.3500 C.3       6 GLP5        0.0000 
     61 O          43.9470   44.8100   68.4435 O.2       1 ALC1        0.0000 
     62 O          44.4270   43.4960   68.9790 O.2       7 ALL1        0.0000 
     63 O          43.4670   46.1240   67.9080 O.2       4 ALP1        0.0000 
     64 N          41.8730   44.5710   70.2400 N.am      2 SEC2        0.0000 
     65 N          42.2420   43.2300   70.0850 N.am      8 SEL2        0.0000 
     66 N          41.5040   45.9120   70.3950 N.am      5 SEP2        0.0000 
     67 CA         41.3580   41.6150   72.8690 C.3       3 GLC5        0.0000 
     68 CA         41.2350   42.5470   70.8970 C.3       9 GLL5        0.0000 
     69 CA         39.9475   43.5660   72.3295 C.3       3 GLC5        0.0000 
     70 CA         38.6600   44.5850   73.7620 C.3       6 GLP5        0.0000 
     71 CA         39.7645   41.3220   71.1210 C.3       3 GLC5        0.0000 
     72 CA         38.2940   40.0970   71.3450 C.3       6 GLP5        0.0000 
     73 CA         41.4970   41.5875   69.2135 C.3       3 GLC5        0.0000 
     74 CA         40.9750   44.1165   69.5005 C.3       3 GLC5        0.0000 
     75 CA         41.6605   44.0885   71.8445 C.3       3 GLC5        0.0000 
     76 CA         42.0860   45.6300   72.7920 C.3       6 GLP5        0.0000 
     77 CA         42.1710   40.6855   72.9940 C.3       3 GLC5        0.0000 
     78 CA         42.8610   40.6880   71.1470 C.3       9 GLL5        0.0000 
     79 CA         42.3100   40.6580   69.3385 C.3       3 GLC5        0.0000 
     80 CA         40.2643   35.5587   76.6907 C.3       3 GLC5        0.0000 
     81 CA         41.9160   35.6000   77.2280 C.3       9 GLL5        0.0000 
     82 CA         42.6215   33.5498   77.1872 C.3       3 GLC5        0.0000 
     83 CA         44.5845   34.1965   73.7875 C.3       3 GLC5        0.0000 
     84 CA         45.1490   32.9560   72.6470 C.3       6 GLP5        0.0000 
     85 CA         44.4822   38.1490   75.0295 C.3       3 GLC5        0.0000 
     86 CA         43.0493   35.6803   71.0190 C.3       3 GLC5        0.0000 
     87 CA         43.7090   34.5940   69.7810 C.3       6 GLP5        0.0000 
     88 CA         43.6268   42.4278   72.2160 C.3       3 GLC5        0.0000 
     89 CA         43.9000   43.8110   73.6910 C.3       6 GLP5        0.0000 
@<TRIPOS>BOND
@<TRIPOS>SUBSTRUCTURE
     1 ALC1        1 GROUP        1 X    ALC  0     ROOT ALC X 1
     2 SEC2       14 GROUP        1 X    SEC  0     **** SEC X 2
     3 GLC5        8 GROUP        1 X    GLC  0     **** GLC X 6
     4 ALP1        3 GROUP        1 Y    ALP  0     ROOT ALP Y 8
     5 SEP2       16 GROUP        1 Y    SEP  0     **** SEP Y 9
     6 GLP5       10 GROUP        1 Y    GLP  0     **** GLP Y 13
     7 ALL1        2 GROUP        1 Z    ALL  0     ROOT ALL Z 15
     8 SEL2       15 GROUP        1 Z    SEL  0     **** SEL Z 16
     9 GLL5        9 GROUP        1 Z    GLL  0     **** GLL Z 20
@<TRIPOS>SET

