#    Name: 3vc2_SAH_5_ligand
#    Modification time : Tue Mar 25 00:34:36 2014

@<TRIPOS>MOLECULE
3vc2_SAH_5_ligand
   46    48     1     0     0
SMALL
NO_CHARGES


@<TRIPOS>ATOM
      1 N          42.0860   37.5270   78.8570 N.4       1 SAH301      0.0000 
      2 CA         41.4550   36.1950   78.5670 C.3       1 SAH301      0.0000 
      3 CB         41.9160   35.6000   77.2280 C.3       1 SAH301      0.0000 
      4 CG         43.4200   35.3510   77.0810 C.3       1 SAH301      0.0000 
      5 SD         43.7460   34.7650   75.4350 S.3       1 SAH301      0.0000 
      6 C          41.6480   35.2010   79.6790 C.2       1 SAH301      0.0000 
      7 O          41.0550   34.1010   79.6400 O.co2     1 SAH301      0.0000 
      8 OXT        42.3850   35.5150   80.6220 O.co2     1 SAH301      0.0000 
      9 C5'        44.2940   36.1090   74.4210 C.3       1 SAH301      0.0000 
     10 C4'        43.0970   36.9550   73.9810 C.3       1 SAH301      0.0000 
     11 O4'        43.5540   38.2040   73.4690 O.3       1 SAH301      0.0000 
     12 C3'        42.2390   36.3400   72.8680 C.3       1 SAH301      0.0000 
     13 O3'        40.8640   36.5210   73.2270 O.3       1 SAH301      0.0000 
     14 C2'        42.5400   37.1930   71.6460 C.3       1 SAH301      0.0000 
     15 O2'        41.4210   37.3530   70.7660 O.3       1 SAH301      0.0000 
     16 C1'        42.7760   38.5250   72.3280 C.3       1 SAH301      0.0000 
     17 N9         43.4350   39.5330   71.4820 N.pl3     1 SAH301      0.0000 
     18 C8         44.6740   39.4720   70.9610 C.2       1 SAH301      0.0000 
     19 N7         44.9330   40.6110   70.2730 N.2       1 SAH301      0.0000 
     20 C5         43.8460   41.4010   70.3350 C.ar      1 SAH301      0.0000 
     21 C6         43.4620   42.7210   69.7920 C.ar      1 SAH301      0.0000 
     22 N6         44.4270   43.4960   68.9790 N.pl3     1 SAH301      0.0000 
     23 N1         42.2420   43.2300   70.0850 N.ar      1 SAH301      0.0000 
     24 C2         41.2350   42.5470   70.8970 C.ar      1 SAH301      0.0000 
     25 N3         41.6460   41.2340   71.3880 N.ar      1 SAH301      0.0000 
     26 C4         42.8610   40.6880   71.1470 C.ar      1 SAH301      0.0000 
     27 H          40.3528   36.3594   78.4661 H         1 SAH301      0.0000 
     28 H          41.5852   36.2748   76.4096 H         1 SAH301      0.0000 
     29 H          41.3788   34.6412   77.0644 H         1 SAH301      0.0000 
     30 H          43.7739   34.5660   77.6955 H         1 SAH301      0.0000 
     31 H          43.9966   36.2356   77.1452 H         1 SAH301      0.0000 
     32 H          44.7821   35.6252   73.6094 H         1 SAH301      0.0000 
     33 H          44.9676   36.6377   75.0517 H         1 SAH301      0.0000 
     34 H          42.4530   37.1263   74.8385 H         1 SAH301      0.0000 
     35 H          42.5206   35.3631   72.7073 H         1 SAH301      0.0000 
     36 H          43.4225   36.8855   71.2056 H         1 SAH301      0.0000 
     37 H          41.7974   38.8905   72.6544 H         1 SAH301      0.0000 
     38 H          45.2927   38.7283   71.0595 H         1 SAH301      0.0000 
     39 H          45.1084   42.9625   68.4778 H         1 SAH301      0.0000 
     40 H          44.3191   44.4900   68.9970 H         1 SAH301      0.0000 
     41 H          40.3731   42.9318   71.0912 H         1 SAH301      0.0000 
     42 H          42.2932   38.0303   78.0181 H         1 SAH301      0.0000 
     43 H          41.4881   38.1091   79.4080 H         1 SAH301      0.0000 
     44 H          42.9447   37.4295   79.3600 H         1 SAH301      0.0000 
     45 H          40.3647   35.8412   72.6897 H         1 SAH301      0.0000 
     46 H          40.6264   37.4265   71.3687 H         1 SAH301      0.0000 
@<TRIPOS>BOND
     1    2    1 1    
     2   42    1 1    
     3   43    1 1    
     4   44    1 1    
     5    3    2 1    
     6    6    2 1    
     7   27    2 1    
     8    4    3 1    
     9   28    3 1    
    10   29    3 1    
    11    5    4 1    
    12   30    4 1    
    13   31    4 1    
    14    9    5 1    
    15    7    6 ar   
    16    8    6 ar   
    17   10    9 1    
    18   32    9 1    
    19   33    9 1    
    20   11   10 1    
    21   12   10 1    
    22   34   10 1    
    23   16   11 1    
    24   13   12 1    
    25   14   12 1    
    26   35   12 1    
    27   45   13 1    
    28   15   14 1    
    29   16   14 1    
    30   36   14 1    
    31   46   15 1    
    32   17   16 1    
    33   37   16 1    
    34   18   17 1    
    35   26   17 1    
    36   19   18 2    
    37   38   18 1    
    38   20   19 1    
    39   21   20 ar   
    40   26   20 ar   
    41   22   21 1    
    42   23   21 ar   
    43   39   22 1    
    44   40   22 1    
    45   24   23 ar   
    46   25   24 ar   
    47   41   24 1    
    48   26   25 ar   
@<TRIPOS>SUBSTRUCTURE
     1 SAH301      1 GROUP   
@<TRIPOS>SET

