#    Name: 2yd0_BES_1_INTS_M
#    Modification time : Tue Mar 25 08:42:25 2014

@<TRIPOS>MOLECULE
2yd0_BES_1_INTS_M
   70     0    15     0     0
SMALL
NO_CHARGES


@<TRIPOS>ATOM
      1 OD1         6.7515   75.3380   20.1045 O.co2     3 ASC3        0.0000 
      2 OD1         6.2780   75.3130   21.2640 O.co2    13 ASL3        0.0000 
      3 OD1         7.2250   75.3630   18.9450 O.co2     8 ASP3        0.0000 
      4 OD1         5.6670   75.4235   19.9195 O.co2     3 ASC3        0.0000 
      5 OD1         5.0560   75.5340   18.5750 O.co2     8 ASP3        0.0000 
      6 OD1         5.4160   74.3050   21.6075 O.co2     3 ASC3        0.0000 
      7 OD1         4.5540   73.2970   21.9510 O.co2     8 ASP3        0.0000 
      8 O           5.9600   76.3665   21.4175 O.2       1 ALC1        0.0000 
      9 O           6.2780   75.3130   21.2640 O.2      11 ALL1        0.0000 
     10 O           5.6420   77.4200   21.5710 O.2       6 ALP1        0.0000 
     11 O           6.7515   75.3380   20.1045 O.2       1 ALC1        0.0000 
     12 O           7.2250   75.3630   18.9450 O.2       6 ALP1        0.0000 
     13 O           5.4160   74.3050   21.6075 O.2       1 ALC1        0.0000 
     14 O           4.5540   73.2970   21.9510 O.2       6 ALP1        0.0000 
     15 O           4.7865   75.2755   20.8235 O.2       1 ALC1        0.0000 
     16 O           3.2950   75.2380   20.3830 O.2       6 ALP1        0.0000 
     17 CA          5.7070   75.3425   23.3830 C.3       5 GLC5        0.0000 
     18 CA          7.3290   74.7450   22.0370 C.3      15 GLL5        0.0000 
     19 CA          4.0850   75.9400   24.7290 C.3      10 GLP5        0.0000 
     20 CA          5.9775   79.7660   25.8155 C.3       5 GLC5        0.0000 
     21 CA          7.4470   78.2770   25.3380 C.3      15 GLL5        0.0000 
     22 CA          4.5080   81.2550   26.2930 C.3      10 GLP5        0.0000 
     23 CA          9.6370   75.0585   20.3250 C.3       5 GLC5        0.0000 
     24 CA          8.1710   73.6890   21.2260 C.3      15 GLL5        0.0000 
     25 CA         11.1030   76.4280   19.4240 C.3      10 GLP5        0.0000 
     26 CA          8.3640   71.6770   20.4455 C.3       5 GLC5        0.0000 
     27 CA          8.5570   69.6650   19.6650 C.3      10 GLP5        0.0000 
     28 CA          7.2875   72.8875   19.6050 C.3       5 GLC5        0.0000 
     29 CA          6.4040   72.0860   17.9840 C.3      10 GLP5        0.0000 
     30 Zn          7.0075   72.1910   20.6440 Zn        4 ZIC7        0.0000 
     31 Zn          7.5030   72.8870   20.2710 Zn       14 ZIL7        0.0000 
     32 Zn          6.5120   71.4950   21.0170 Zn        9 ZIP7        0.0000 
     33 O           7.3640   74.1250   19.6080 O.2       1 ALC1        0.0000 
     34 O           7.5030   72.8870   20.2710 O.2      11 ALL1        0.0000 
     35 Zn          7.0610   71.7270   21.7725 Zn        4 ZIC7        0.0000 
     36 Zn          7.6100   71.9590   22.5280 Zn       14 ZIL7        0.0000 
     37 O          10.6940   73.6855   22.0470 O.2       1 ALC1        0.0000 
     38 O           9.8670   72.4670   22.4640 O.2      11 ALL1        0.0000 
     39 O          11.5210   74.9040   21.6300 O.2       6 ALP1        0.0000 
     40 CA          8.3750   70.6705   23.9855 C.3       5 GLC5        0.0000 
     41 CA         10.3240   71.4380   23.4340 C.3      15 GLL5        0.0000 
     42 CA          6.4260   69.9030   24.5370 C.3      10 GLP5        0.0000 
     43 CA          9.8995   70.0165   21.2305 C.3       5 GLC5        0.0000 
     44 CA         11.2420   70.3680   22.7960 C.3      15 GLL5        0.0000 
     45 CA         12.7705   67.6995   20.7345 C.3       5 GLC5        0.0000 
     46 CA         11.5010   67.8040   22.4850 C.3      15 GLL5        0.0000 
     47 CA         14.0400   67.5950   18.9840 C.3      10 GLP5        0.0000 
     48 CA         10.1935   68.0845   20.9840 C.3       5 GLC5        0.0000 
     49 CA          8.8860   68.3650   19.4830 C.3      10 GLP5        0.0000 
     50 CA          9.2495   68.4980   21.6830 C.3       5 GLC5        0.0000 
     51 CA          9.6130   68.6310   23.8830 C.3      15 GLL5        0.0000 
     52 CA          8.7450   66.9310   23.8340 C.3       5 GLC5        0.0000 
     53 CA          7.8770   65.2310   23.7850 C.3      10 GLP5        0.0000 
     54 CA          8.0195   69.2670   24.2100 C.3       5 GLC5        0.0000 
     55 N          12.8155   73.5280   24.8825 N.am      2 SEC2        0.0000 
     56 N          11.4140   73.2450   24.4490 N.am     12 SEL2        0.0000 
     57 N          14.2170   73.8110   25.3160 N.am      7 SEP2        0.0000 
     58 N          12.6655   73.6020   23.5020 N.am      2 SEC2        0.0000 
     59 N          13.9170   73.9590   22.5550 N.am      7 SEP2        0.0000 
     60 CA          8.1423   76.7535   21.3310 C.3       5 GLC5        0.0000 
     61 CA          8.3460   75.8010   22.5610 C.3      15 GLL5        0.0000 
     62 CA          8.4470   78.2340   20.3630 C.3      10 GLP5        0.0000 
     63 CA          8.1702   77.6405   22.1940 C.3       5 GLC5        0.0000 
     64 CA          8.1730   76.4140   23.9570 C.3      15 GLL5        0.0000 
     65 CA         10.4140   75.9647   25.7567 C.3       5 GLC5        0.0000 
     66 CA          8.5880   75.7710   25.1240 C.3      15 GLL5        0.0000 
     67 CA         12.3240   75.8540   25.7610 C.3      10 GLP5        0.0000 
     68 CA          6.6638   79.0942   23.4108 C.3       5 GLC5        0.0000 
     69 CA          7.6140   77.6800   24.0930 C.3      15 GLL5        0.0000 
     70 CA          5.7970   80.2100   22.1060 C.3      10 GLP5        0.0000 
@<TRIPOS>BOND
@<TRIPOS>SUBSTRUCTURE
     1 ALC1        8 GROUP        1 X    ALC  0     ROOT ALC X 1
     2 SEC2       55 GROUP        1 X    SEC  0     **** SEC X 2
     3 ASC3        1 GROUP        1 X    ASC  0     **** ASC X 3
     4 ZIC7       30 GROUP        1 X    ZIC  0     **** ZIC X 5
     5 GLC5       17 GROUP        1 X    GLC  0     **** GLC X 6
     6 ALP1       10 GROUP        1 Y    ALP  0     ROOT ALP Y 8
     7 SEP2       57 GROUP        1 Y    SEP  0     **** SEP Y 9
     8 ASP3        3 GROUP        1 Y    ASP  0     **** ASP Y 10
     9 ZIP7       32 GROUP        1 Y    ZIP  0     **** ZIP Y 12
    10 GLP5       19 GROUP        1 Y    GLP  0     **** GLP Y 13
    11 ALL1        9 GROUP        1 Z    ALL  0     ROOT ALL Z 15
    12 SEL2       56 GROUP        1 Z    SEL  0     **** SEL Z 16
    13 ASL3        2 GROUP        1 Z    ASL  0     **** ASL Z 17
    14 ZIL7       31 GROUP        1 Z    ZIL  0     **** ZIL Z 19
    15 GLL5       18 GROUP        1 Z    GLL  0     **** GLL Z 20
@<TRIPOS>SET

