#    Name: 2yd0_BES_1_ligand
#    Modification time : Tue Mar 25 08:42:25 2014

@<TRIPOS>MOLECULE
2yd0_BES_1_ligand
   46    46     1     0     0
SMALL
NO_CHARGES


@<TRIPOS>ATOM
      1 N2          6.2780   75.3130   21.2640 N.4       1 BES1950     0.0000 
      2 C1          7.3290   74.7450   22.0370 C.3       1 BES1950     0.0000 
      3 C6          8.3460   75.8010   22.5610 C.3       1 BES1950     0.0000 
      4 C7          8.1730   76.4140   23.9570 C.ar      1 BES1950     0.0000 
      5 C8          8.5880   75.7710   25.1240 C.ar      1 BES1950     0.0000 
      6 C12         7.6140   77.6800   24.0930 C.ar      1 BES1950     0.0000 
      7 C9          8.4200   76.3800   26.3810 C.ar      1 BES1950     0.0000 
      8 C11         7.4470   78.2770   25.3380 C.ar      1 BES1950     0.0000 
      9 C10         7.8570   77.6450   26.4880 C.ar      1 BES1950     0.0000 
     10 C2          8.1710   73.6890   21.2260 C.3       1 BES1950     0.0000 
     11 O2          7.5030   72.8870   20.2710 O.3       1 BES1950     0.0000 
     12 C3          8.5720   72.6130   22.1440 C.2       1 BES1950     0.0000 
     13 O3          7.6100   71.9590   22.5280 O.2       1 BES1950     0.0000 
     14 N1          9.8670   72.4670   22.4640 N.am      1 BES1950     0.0000 
     15 C4         10.3240   71.4380   23.4340 C.3       1 BES1950     0.0000 
     16 C13        11.2420   70.3680   22.7960 C.3       1 BES1950     0.0000 
     17 C14        11.0370   68.9450   23.4060 C.3       1 BES1950     0.0000 
     18 C15        11.5010   67.8040   22.4850 C.3       1 BES1950     0.0000 
     19 C16         9.6130   68.6310   23.8830 C.3       1 BES1950     0.0000 
     20 C5         11.0000   72.0860   24.6100 C.2       1 BES1950     0.0000 
     21 O1         11.4140   73.2450   24.4490 O.co2     1 BES1950     0.0000 
     22 O4         11.0980   71.4810   25.7020 O.co2     1 BES1950     0.0000 
     23 H           6.9583   74.2128   22.9164 H         1 BES1950     0.0000 
     24 H           8.3844   76.6387   21.8071 H         1 BES1950     0.0000 
     25 H           9.3742   75.3421   22.4992 H         1 BES1950     0.0000 
     26 H           9.0234   74.8386   25.0695 H         1 BES1950     0.0000 
     27 H           7.3124   78.1947   23.2402 H         1 BES1950     0.0000 
     28 H           8.7210   75.8747   27.2282 H         1 BES1950     0.0000 
     29 H           7.0050   79.2148   25.3924 H         1 BES1950     0.0000 
     30 H           7.7531   78.0888   27.4004 H         1 BES1950     0.0000 
     31 H           9.0469   74.1385   20.8421 H         1 BES1950     0.0000 
     32 H          10.6150   73.0569   22.0577 H         1 BES1950     0.0000 
     33 H           9.4352   70.9030   23.8203 H         1 BES1950     0.0000 
     34 H          12.2849   70.6603   22.9387 H         1 BES1950     0.0000 
     35 H          11.0416   70.3184   21.7232 H         1 BES1950     0.0000 
     36 H          11.6920   68.8839   24.3161 H         1 BES1950     0.0000 
     37 H           5.7460   75.9759   21.7908 H         1 BES1950     0.0000 
     38 H           6.6265   75.7913   20.4579 H         1 BES1950     0.0000 
     39 H           5.6386   74.6167   20.9381 H         1 BES1950     0.0000 
     40 H          12.4748   67.8741   22.2686 H         1 BES1950     0.0000 
     41 H          11.3575   66.9072   22.9035 H         1 BES1950     0.0000 
     42 H          11.0068   67.8042   21.6156 H         1 BES1950     0.0000 
     43 H           9.5433   67.7082   24.2619 H         1 BES1950     0.0000 
     44 H           9.3121   69.2641   24.5962 H         1 BES1950     0.0000 
     45 H           8.9495   68.6926   23.1374 H         1 BES1950     0.0000 
     46 H           7.2257   73.5211   19.5492 H         1 BES1950     0.0000 
@<TRIPOS>BOND
     1    2    1 1    
     2   37    1 1    
     3   38    1 1    
     4   39    1 1    
     5    3    2 1    
     6   10    2 1    
     7   23    2 1    
     8    4    3 1    
     9   24    3 1    
    10   25    3 1    
    11    5    4 ar   
    12    6    4 ar   
    13    7    5 ar   
    14   26    5 1    
    15    8    6 ar   
    16   27    6 1    
    17    9    7 ar   
    18   28    7 1    
    19    9    8 ar   
    20   29    8 1    
    21   30    9 1    
    22   11   10 1    
    23   12   10 1    
    24   31   10 1    
    25   46   11 1    
    26   13   12 2    
    27   14   12 am   
    28   15   14 1    
    29   32   14 1    
    30   16   15 1    
    31   20   15 1    
    32   33   15 1    
    33   17   16 1    
    34   34   16 1    
    35   35   16 1    
    36   18   17 1    
    37   19   17 1    
    38   36   17 1    
    39   40   18 1    
    40   41   18 1    
    41   42   18 1    
    42   43   19 1    
    43   44   19 1    
    44   45   19 1    
    45   21   20 ar   
    46   22   20 ar   
@<TRIPOS>SUBSTRUCTURE
     1 BES1950     1 GROUP   
@<TRIPOS>SET

