#    Name: 2xcl_ANP_1_INTS_M
#    Modification time : Tue Mar 25 05:51:38 2014

@<TRIPOS>MOLECULE
2xcl_ANP_1_INTS_M
   59     0    15     0     0
SMALL
NO_CHARGES


@<TRIPOS>ATOM
      1 Zn         15.6115   45.6870   36.9485 Zn        4 ZIC7        0.0000 
      2 Zn         15.7850   44.6590   37.0640 Zn       14 ZIL7        0.0000 
      3 Zn         15.4380   46.7150   36.8330 Zn        9 ZIP7        0.0000 
      4 N          17.2645   44.9235   36.6255 N.am      2 SEC2        0.0000 
      5 N          15.7850   44.6590   37.0640 N.am     12 SEL2        0.0000 
      6 N          18.7440   45.1880   36.1870 N.am      7 SEP2        0.0000 
      7 NZ         13.9435   40.4675   33.5675 N.4       3 LYC4        0.0000 
      8 NZ         14.9490   41.7370   33.2490 N.4      13 LYL4        0.0000 
      9 NZ         12.9380   39.1980   33.8860 N.4       8 LYP4        0.0000 
     10 NZ         13.2335   40.2295   34.6230 N.4       3 LYC4        0.0000 
     11 NZ         13.5290   41.2610   35.3600 N.4      13 LYL4        0.0000 
     12 N          13.2335   40.2295   34.6230 N.am      2 SEC2        0.0000 
     13 N          13.5290   41.2610   35.3600 N.am     12 SEL2        0.0000 
     14 N          12.9380   39.1980   33.8860 N.am      7 SEP2        0.0000 
     15 CA         12.7105   45.7120   28.7280 C.3       5 GLC5        0.0000 
     16 CA         11.6560   43.7490   28.5190 C.3      15 GLL5        0.0000 
     17 CA         13.7650   47.6750   28.9370 C.3      10 GLP5        0.0000 
     18 O          13.4305   43.5120   27.5080 O.2       1 ALC1        0.0000 
     19 O          12.0670   43.4100   27.2270 O.2      11 ALL1        0.0000 
     20 O          14.7940   43.6140   27.7890 O.2       6 ALP1        0.0000 
     21 O          13.3725   42.5230   27.0245 O.2       1 ALC1        0.0000 
     22 O          14.6780   41.6360   26.8220 O.2       6 ALP1        0.0000 
     23 CA          8.2285   44.4435   28.3675 C.3       5 GLC5        0.0000 
     24 CA         10.2050   44.2560   28.6010 C.3      15 GLL5        0.0000 
     25 CA          6.2520   44.6310   28.1340 C.3      10 GLP5        0.0000 
     26 N          10.6290   48.8820   29.7900 N.am      2 SEC2        0.0000 
     27 N          10.3290   47.9470   28.6850 N.am     12 SEL2        0.0000 
     28 N          10.9290   49.8170   30.8950 N.am      7 SEP2        0.0000 
     29 CA          9.7345   48.7685   29.2760 C.3       5 GLC5        0.0000 
     30 CA          9.9970   47.6670   27.3770 C.3      15 GLL5        0.0000 
     31 CA          9.4720   49.8700   31.1750 C.3      10 GLP5        0.0000 
     32 CA          8.3520   49.0550   24.6500 C.3       5 GLC5        0.0000 
     33 CA          9.7430   48.4990   26.2310 C.3      15 GLL5        0.0000 
     34 CA          6.9610   49.6110   23.0690 C.3      10 GLP5        0.0000 
     35 O          10.0780   50.6025   27.3920 O.2       1 ALC1        0.0000 
     36 O           9.8110   49.8200   26.3020 O.2      11 ALL1        0.0000 
     37 O          10.3450   51.3850   28.4820 O.2       6 ALP1        0.0000 
     38 O           9.0725   50.6500   25.4235 O.2       1 ALC1        0.0000 
     39 O           8.3340   51.4800   24.5450 O.2       6 ALP1        0.0000 
     40 N           9.3100   48.3660   23.7455 N.am      2 SEC2        0.0000 
     41 N           9.4300   47.9010   25.0500 N.am     12 SEL2        0.0000 
     42 N           9.1900   48.8310   22.4410 N.am      7 SEP2        0.0000 
     43 CA          7.8100   47.7105   25.8675 C.3       5 GLC5        0.0000 
     44 CA          9.3730   46.5710   24.9830 C.3      15 GLL5        0.0000 
     45 CA          6.2470   48.8500   26.7520 C.3      10 GLP5        0.0000 
     46 CA          8.1670   48.0910   24.0260 C.3       5 GLC5        0.0000 
     47 CA          9.8305   47.5955   23.2510 C.3       5 GLC5        0.0000 
     48 CA         10.2880   48.6200   21.5190 C.3      10 GLP5        0.0000 
     49 CA         10.9255   46.4050   24.2130 C.3       5 GLC5        0.0000 
     50 CA         12.4780   46.2390   23.4430 C.3      10 GLP5        0.0000 
     51 CA         11.3365   47.4520   25.5785 C.3       5 GLC5        0.0000 
     52 CA         13.3000   48.3330   26.1740 C.3      10 GLP5        0.0000 
     53 CA          8.0775   45.4745   27.6465 C.3       5 GLC5        0.0000 
     54 CA          9.9030   46.3180   27.1590 C.3      15 GLL5        0.0000 
     55 CA         11.3765   41.0703   30.8967 C.3       5 GLC5        0.0000 
     56 CA         11.6800   42.5640   29.4040 C.3      15 GLL5        0.0000 
     57 CA         11.4930   39.3450   31.8130 C.3      10 GLP5        0.0000 
     58 CA          8.0667   48.0252   26.8667 C.3       5 GLC5        0.0000 
     59 CA         11.5933   47.7668   26.5778 C.3       5 GLC5        0.0000 
@<TRIPOS>BOND
@<TRIPOS>SUBSTRUCTURE
     1 ALC1       18 GROUP        1 X    ALC  0     ROOT ALC X 1
     2 SEC2        4 GROUP        1 X    SEC  0     **** SEC X 2
     3 LYC4        7 GROUP        1 X    LYC  0     **** LYC X 4
     4 ZIC7        1 GROUP        1 X    ZIC  0     **** ZIC X 5
     5 GLC5       15 GROUP        1 X    GLC  0     **** GLC X 6
     6 ALP1       20 GROUP        1 Y    ALP  0     ROOT ALP Y 8
     7 SEP2        6 GROUP        1 Y    SEP  0     **** SEP Y 9
     8 LYP4        9 GROUP        1 Y    LYP  0     **** LYP Y 11
     9 ZIP7        3 GROUP        1 Y    ZIP  0     **** ZIP Y 12
    10 GLP5       17 GROUP        1 Y    GLP  0     **** GLP Y 13
    11 ALL1       19 GROUP        1 Z    ALL  0     ROOT ALL Z 15
    12 SEL2        5 GROUP        1 Z    SEL  0     **** SEL Z 16
    13 LYL4        8 GROUP        1 Z    LYL  0     **** LYL Z 18
    14 ZIL7        2 GROUP        1 Z    ZIL  0     **** ZIL Z 19
    15 GLL5       16 GROUP        1 Z    GLL  0     **** GLL Z 20
@<TRIPOS>SET

