#    Name: 3pd4_A3G_1_INTS_M
#    Modification time : Tue Mar 25 06:17:45 2014

@<TRIPOS>MOLECULE
3pd4_A3G_1_INTS_M
   65     0    12     0     0
SMALL
NO_CHARGES


@<TRIPOS>ATOM
      1 OD1         9.0910    1.1075  -11.2415 O.co2     3 ASC3        0.0000 
      2 OD1         9.0200    0.7700  -13.0340 O.co2    11 ASL3        0.0000 
      3 OD1         9.1620    1.4450   -9.4490 O.co2     7 ASP3        0.0000 
      4 O           7.9500    1.0940  -14.2655 O.2       1 ALC1        0.0000 
      5 O           9.0200    0.7700  -13.0340 O.2       9 ALL1        0.0000 
      6 O           6.8800    1.4180  -15.4970 O.2       5 ALP1        0.0000 
      7 O           8.9030   -0.3190  -12.2505 O.2       1 ALC1        0.0000 
      8 O           8.7860   -1.4080  -11.4670 O.2       5 ALP1        0.0000 
      9 N          12.7860    3.6825  -12.8810 N.am      2 SEC2        0.0000 
     10 N          11.5350    3.2640  -12.9790 N.am     10 SEL2        0.0000 
     11 N          14.0370    4.1010  -12.7830 N.am      6 SEP2        0.0000 
     12 N          17.9320    5.6350  -16.0960 N.am      2 SEC2        0.0000 
     13 N          16.3710    5.7050  -16.3700 N.am     10 SEL2        0.0000 
     14 N          19.4930    5.5650  -15.8220 N.am      6 SEP2        0.0000 
     15 CA         17.3090    4.5405  -15.0385 C.3       4 GLC5        0.0000 
     16 CA         15.7270    4.5450  -16.3270 C.3      12 GLL5        0.0000 
     17 CA         18.8910    4.5360  -13.7500 C.3       8 GLP5        0.0000 
     18 CA         17.6440    4.6495  -17.4195 C.3       4 GLC5        0.0000 
     19 CA         19.5610    4.7540  -18.5120 C.3       8 GLP5        0.0000 
     20 CA         15.0420    5.0435  -14.4515 C.3       4 GLC5        0.0000 
     21 CA         14.3570    5.5420  -12.5760 C.3       8 GLP5        0.0000 
     22 CA         16.1780    5.5890  -18.1975 C.3       4 GLC5        0.0000 
     23 CA         16.6290    6.6330  -20.0680 C.3       8 GLP5        0.0000 
     24 CA         16.0195    3.2455  -17.9050 C.3       4 GLC5        0.0000 
     25 CA         16.3120    1.9460  -19.4830 C.3       8 GLP5        0.0000 
     26 CA         14.4835    8.8185  -16.3090 C.3       4 GLC5        0.0000 
     27 CA         14.3450    6.7620  -16.9960 C.3      12 GLL5        0.0000 
     28 CA         14.6220   10.8750  -15.6220 C.3       8 GLP5        0.0000 
     29 CA         17.7910    6.5310  -17.4410 C.3       4 GLC5        0.0000 
     30 CA         15.7090    6.8330  -16.7160 C.3      12 GLL5        0.0000 
     31 CA         19.8730    6.2290  -18.1660 C.3       8 GLP5        0.0000 
     32 CA         15.5655    8.5595  -15.5920 C.3       4 GLC5        0.0000 
     33 CA         15.4220   10.2860  -14.4680 C.3       8 GLP5        0.0000 
     34 O          17.7375    8.1995  -16.4090 O.2       1 ALC1        0.0000 
     35 O          16.3170    8.0210  -16.7980 O.2       9 ALL1        0.0000 
     36 O          19.1580    8.3780  -16.0200 O.2       5 ALP1        0.0000 
     37 O          16.2555    9.4665  -17.4765 O.2       1 ALC1        0.0000 
     38 O          16.1940   10.9120  -18.1550 O.2       5 ALP1        0.0000 
     39 CA         11.2800    0.9275  -11.2550 C.3       4 GLC5        0.0000 
     40 CA          9.6040    1.9180  -12.3400 C.3      12 GLL5        0.0000 
     41 CA         12.9560   -0.0630  -10.1700 C.3       8 GLP5        0.0000 
     42 CA         12.4460    4.5755  -18.6860 C.3       4 GLC5        0.0000 
     43 CA         11.3030    4.7540  -17.3560 C.3      12 GLL5        0.0000 
     44 CA         13.5890    4.3970  -20.0160 C.3       8 GLP5        0.0000 
     45 CA          9.6325    4.2375  -18.4780 C.3       4 GLC5        0.0000 
     46 CA          7.9620    3.7210  -19.6000 C.3       8 GLP5        0.0000 
     47 CA         12.3865    2.1110  -16.6725 C.3       4 GLC5        0.0000 
     48 CA         11.1780    3.7030  -16.2720 C.3      12 GLL5        0.0000 
     49 CA         13.5950    0.5190  -17.0730 C.3       8 GLP5        0.0000 
     50 N           9.7715    2.6790  -18.2155 N.am      2 SEC2        0.0000 
     51 N          10.4830    2.6080  -16.8570 N.am     10 SEL2        0.0000 
     52 N           9.0600    2.7500  -19.5740 N.am      6 SEP2        0.0000 
     53 CA         11.7590    5.3990  -14.2115 C.3       4 GLC5        0.0000 
     54 CA         10.2690    4.3870  -15.2490 C.3      12 GLL5        0.0000 
     55 CA         13.2490    6.4110  -13.1740 C.3       8 GLP5        0.0000 
     56 CA          8.6170    4.4485  -17.8685 C.3       4 GLC5        0.0000 
     57 CA          9.2720    5.1760  -16.1370 C.3      12 GLL5        0.0000 
     58 CA          8.4265    7.0050  -17.6885 C.3       4 GLC5        0.0000 
     59 CA          8.7410    6.4760  -15.5370 C.3      12 GLL5        0.0000 
     60 CA          8.1120    7.5340  -19.8400 C.3       8 GLP5        0.0000 
     61 CA         14.0591    6.4505  -15.0064 C.3       4 GLC5        0.0000 
     62 CA         15.7491    6.5615  -18.4534 C.3       4 GLC5        0.0000 
     63 CA         13.7140    5.5320  -16.9270 C.3      12 GLL5        0.0000 
     64 CA          7.2462    5.6700  -15.9120 C.3       4 GLC5        0.0000 
     65 CA          5.4860    5.5140  -15.9870 C.3       8 GLP5        0.0000 
@<TRIPOS>BOND
@<TRIPOS>SUBSTRUCTURE
     1 ALC1        4 GROUP        1 X    ALC  0     ROOT ALC X 1
     2 SEC2        9 GROUP        1 X    SEC  0     **** SEC X 2
     3 ASC3        1 GROUP        1 X    ASC  0     **** ASC X 3
     4 GLC5       15 GROUP        1 X    GLC  0     **** GLC X 6
     5 ALP1        6 GROUP        1 Y    ALP  0     ROOT ALP Y 8
     6 SEP2       11 GROUP        1 Y    SEP  0     **** SEP Y 9
     7 ASP3        3 GROUP        1 Y    ASP  0     **** ASP Y 10
     8 GLP5       17 GROUP        1 Y    GLP  0     **** GLP Y 13
     9 ALL1        5 GROUP        1 Z    ALL  0     ROOT ALL Z 15
    10 SEL2       10 GROUP        1 Z    SEL  0     **** SEL Z 16
    11 ASL3        2 GROUP        1 Z    ASL  0     **** ASL Z 17
    12 GLL5       16 GROUP        1 Z    GLL  0     **** GLL Z 20
@<TRIPOS>SET

