#    Name: 3pd4_A3G_1_ligand
#    Modification time : Tue Mar 25 06:17:45 2014

@<TRIPOS>MOLECULE
3pd4_A3G_1_ligand
   41    43     1     0     0
SMALL
NO_CHARGES


@<TRIPOS>ATOM
      1 C          10.2690    2.9110  -13.2890 C.2       1 A3G500      0.0000 
      2 N           9.0200    0.7700  -13.0340 N.4       1 A3G500      0.0000 
      3 O          11.5350    3.2640  -12.9790 O.2       1 A3G500      0.0000 
      4 N1         16.3710    5.7050  -16.3700 N.ar      1 A3G500      0.0000 
      5 C2         15.7270    4.5450  -16.3270 C.ar      1 A3G500      0.0000 
      6 N3         14.4270    4.4380  -16.6040 N.ar      1 A3G500      0.0000 
      7 C4         13.7140    5.5320  -16.9270 C.ar      1 A3G500      0.0000 
      8 C5         14.3450    6.7620  -16.9960 C.ar      1 A3G500      0.0000 
      9 C6         15.7090    6.8330  -16.7160 C.ar      1 A3G500      0.0000 
     10 N6         16.3170    8.0210  -16.7980 N.pl3     1 A3G500      0.0000 
     11 N7         13.4470    7.6760  -17.3410 N.2       1 A3G500      0.0000 
     12 C8         12.2930    7.0720  -17.5060 C.2       1 A3G500      0.0000 
     13 N8          9.6090    3.3960  -14.3490 N.am      1 A3G500      0.0000 
     14 N9         12.4370    5.7580  -17.2400 N.pl3     1 A3G500      0.0000 
     15 CA          9.6040    1.9180  -12.3400 C.3       1 A3G500      0.0000 
     16 C1'        11.3030    4.7540  -17.3560 C.3       1 A3G500      0.0000 
     17 C2'        11.1780    3.7030  -16.2720 C.3       1 A3G500      0.0000 
     18 O2'        10.4830    2.6080  -16.8570 O.3       1 A3G500      0.0000 
     19 C3'        10.2690    4.3870  -15.2490 C.3       1 A3G500      0.0000 
     20 C4'         9.2720    5.1760  -16.1370 C.3       1 A3G500      0.0000 
     21 O4'        10.0240    5.5000  -17.3630 O.3       1 A3G500      0.0000 
     22 C5'         8.7410    6.4760  -15.5370 C.3       1 A3G500      0.0000 
     23 O5'         9.8240    7.3010  -15.1350 O.3       1 A3G500      0.0000 
     24 H          16.2661    3.6660  -16.0618 H         1 A3G500      0.0000 
     25 H          15.7353    8.7971  -17.0413 H         1 A3G500      0.0000 
     26 H          17.2989    8.0268  -16.6087 H         1 A3G500      0.0000 
     27 H          11.4514    7.4902  -17.7780 H         1 A3G500      0.0000 
     28 H           8.6542    3.1311  -14.5989 H         1 A3G500      0.0000 
     29 H           8.8295    2.4592  -11.7663 H         1 A3G500      0.0000 
     30 H          10.3621    1.5839  -11.6082 H         1 A3G500      0.0000 
     31 H          11.3803    4.2449  -18.3240 H         1 A3G500      0.0000 
     32 H          12.0874    3.4938  -15.8683 H         1 A3G500      0.0000 
     33 H          10.8561    5.0952  -14.7089 H         1 A3G500      0.0000 
     34 H           8.4573    4.5263  -16.3916 H         1 A3G500      0.0000 
     35 H           8.0913    6.2112  -14.6924 H         1 A3G500      0.0000 
     36 H           8.1153    6.9617  -16.2974 H         1 A3G500      0.0000 
     37 H           9.7092    0.2530  -13.5416 H         1 A3G500      0.0000 
     38 H           8.5856    0.1328  -12.3974 H         1 A3G500      0.0000 
     39 H           8.3205    1.0500  -13.6915 H         1 A3G500      0.0000 
     40 H          10.1221    2.0876  -16.0831 H         1 A3G500      0.0000 
     41 H          10.6231    6.6998  -15.1405 H         1 A3G500      0.0000 
@<TRIPOS>BOND
     1    3    1 2    
     2   13    1 am   
     3   15    1 1    
     4   15    2 1    
     5   37    2 1    
     6   38    2 1    
     7   39    2 1    
     8    5    4 ar   
     9    9    4 ar   
    10    6    5 ar   
    11   24    5 1    
    12    7    6 ar   
    13    8    7 ar   
    14   14    7 1    
    15    9    8 ar   
    16   11    8 1    
    17   10    9 1    
    18   25   10 1    
    19   26   10 1    
    20   12   11 2    
    21   14   12 1    
    22   27   12 1    
    23   19   13 1    
    24   28   13 1    
    25   16   14 1    
    26   29   15 1    
    27   30   15 1    
    28   17   16 1    
    29   21   16 1    
    30   31   16 1    
    31   18   17 1    
    32   19   17 1    
    33   32   17 1    
    34   40   18 1    
    35   20   19 1    
    36   33   19 1    
    37   21   20 1    
    38   22   20 1    
    39   34   20 1    
    40   23   22 1    
    41   35   22 1    
    42   36   22 1    
    43   41   23 1    
@<TRIPOS>SUBSTRUCTURE
     1 A3G500      1 GROUP   
@<TRIPOS>SET

