#    Name: 2imk_GTX_1_INTS_M
#    Modification time : Tue Mar 25 18:21:39 2014

@<TRIPOS>MOLECULE
2imk_GTX_1_INTS_M
   85     0    15     0     0
SMALL
NO_CHARGES


@<TRIPOS>ATOM
      1 OD1        14.0565   24.6070   19.4435 O.co2     3 ASC3        0.0000 
      2 OD1        15.0780   23.6970   19.6400 O.co2    13 ASL3        0.0000 
      3 OD1        13.0350   25.5170   19.2470 O.co2     8 ASP3        0.0000 
      4 O          14.0565   24.6070   19.4435 O.2       1 ALC1        0.0000 
      5 O          15.0780   23.6970   19.6400 O.2      11 ALL1        0.0000 
      6 O          13.0350   25.5170   19.2470 O.2       6 ALP1        0.0000 
      7 CA         15.2075   25.7255   19.4935 C.3       5 GLC5        0.0000 
      8 CA         16.2550   24.0280   18.8400 C.3      15 GLL5        0.0000 
      9 CA         14.1600   27.4230   20.1470 C.3      10 GLP5        0.0000 
     10 N          14.1235   24.6335   16.0175 N.am      2 SEC2        0.0000 
     11 N          14.9820   24.1710   16.8580 N.am     12 SEL2        0.0000 
     12 N          13.2650   25.0960   15.1770 N.am      7 SEP2        0.0000 
     13 N          15.3565   26.7540   16.8300 N.am      2 SEC2        0.0000 
     14 N          16.3100   25.8310   17.3460 N.am     12 SEL2        0.0000 
     15 N          14.4030   27.6770   16.3140 N.am      7 SEP2        0.0000 
     16 CA         19.8405   24.5885   18.8045 C.3       5 GLC5        0.0000 
     17 CA         18.4890   23.4960   18.0550 C.3      15 GLL5        0.0000 
     18 CA         21.1920   25.6810   19.5540 C.3      10 GLP5        0.0000 
     19 N          20.7030   21.0445   19.8875 N.am      2 SEC2        0.0000 
     20 N          19.7650   21.7720   18.9640 N.am     12 SEL2        0.0000 
     21 N          21.6410   20.3170   20.8110 N.am      7 SEP2        0.0000 
     22 O          20.2605   24.0140   16.2900 O.2       1 ALC1        0.0000 
     23 O          20.5680   22.6830   17.0270 O.2      11 ALL1        0.0000 
     24 O          19.9530   25.3450   15.5530 O.2       6 ALP1        0.0000 
     25 N          22.6625   25.2175   17.0360 N.am      2 SEC2        0.0000 
     26 N          23.1510   23.8440   17.3430 N.am     12 SEL2        0.0000 
     27 N          22.1740   26.5910   16.7290 N.am      7 SEP2        0.0000 
     28 CA         22.4630   23.5835   14.7720 C.3       5 GLC5        0.0000 
     29 CA         22.0410   21.7090   15.4500 C.3      15 GLL5        0.0000 
     30 CA         22.8850   25.4580   14.0940 C.3      10 GLP5        0.0000 
     31 CA         19.0025   21.0135   14.1660 C.3       5 GLC5        0.0000 
     32 CA         20.8560   20.5410   14.8480 C.3      15 GLL5        0.0000 
     33 CA         17.1490   21.4860   13.4840 C.3      10 GLP5        0.0000 
     34 CA         21.4800   17.1185   12.2500 C.3       5 GLC5        0.0000 
     35 CA         22.0740   18.3670   14.0200 C.3      15 GLL5        0.0000 
     36 CA         20.8860   15.8700   10.4800 C.3      10 GLP5        0.0000 
     37 CA         22.0595   20.0680   12.0520 C.3       5 GLC5        0.0000 
     38 CA         23.3340   19.0740   13.4930 C.3      15 GLL5        0.0000 
     39 CA         20.7850   21.0620   10.6110 C.3      10 GLP5        0.0000 
     40 CA         24.4130   20.5825   13.9595 C.3       5 GLC5        0.0000 
     41 CA         25.4920   22.0910   14.4260 C.3      10 GLP5        0.0000 
     42 CA         24.9250   16.5185   13.0645 C.3       5 GLC5        0.0000 
     43 CA         24.1370   18.1290   12.6140 C.3      15 GLL5        0.0000 
     44 CA         25.7130   14.9080   13.5150 C.3      10 GLP5        0.0000 
     45 CA         24.3615   19.0145    9.6210 C.3       5 GLC5        0.0000 
     46 CA         24.8300   18.8240   11.4400 C.3      15 GLL5        0.0000 
     47 CA         23.8930   19.2050    7.8020 C.3      10 GLP5        0.0000 
     48 CA         25.1610   20.4575   12.9330 C.3       5 GLC5        0.0000 
     49 CA         26.1115   18.0725    9.1355 C.3       5 GLC5        0.0000 
     50 CA         26.2590   18.2840   11.1340 C.3      15 GLL5        0.0000 
     51 CA         25.9640   17.8610    7.1370 C.3      10 GLP5        0.0000 
     52 CA         25.9860   16.5960   12.3245 C.3       5 GLC5        0.0000 
     53 CA         25.7390   23.3305   17.4030 C.3       5 GLC5        0.0000 
     54 CA         24.8420   22.6640   19.1970 C.3      15 GLL5        0.0000 
     55 CA         26.6360   23.9970   15.6090 C.3      10 GLP5        0.0000 
     56 CA         26.4495   23.5550   19.2350 C.3       5 GLC5        0.0000 
     57 CA         28.0570   24.4460   19.2730 C.3      10 GLP5        0.0000 
     58 CA         23.1750   23.6270   19.9405 C.3       5 GLC5        0.0000 
     59 CA         21.5080   24.5900   20.6840 C.3      10 GLP5        0.0000 
     60 NZ         23.5950   20.7405   21.8115 N.4       4 LYC4        0.0000 
     61 NZ         23.9440   22.1750   21.4560 N.4      14 LYL4        0.0000 
     62 NZ         22.2160   19.2170   21.3210 N.4       9 LYP4        0.0000 
     63 N          22.7925   21.2460   21.1335 N.am      2 SEC2        0.0000 
     64 N          23.9440   22.1750   21.4560 N.am     12 SEL2        0.0000 
     65 N          23.5950   20.7405   21.8115 N.am      2 SEC2        0.0000 
     66 N          23.2460   19.3060   22.1670 N.am      7 SEP2        0.0000 
     67 CA         17.5860   22.9228   16.2587 C.3       5 GLC5        0.0000 
     68 CA         17.3550   22.6710   14.2980 C.3      10 GLP5        0.0000 
     69 CA         17.6260   21.2717   18.1848 C.3       5 GLC5        0.0000 
     70 CA         17.4350   19.3690   18.1500 C.3      10 GLP5        0.0000 
     71 CA         23.7115   21.9387   15.3130 C.3       5 GLC5        0.0000 
     72 CA         21.8210   21.8640   16.9500 C.3      15 GLL5        0.0000 
     73 CA         21.3308   21.7065   13.2700 C.3       5 GLC5        0.0000 
     74 CA         21.2130   22.2880   11.3910 C.3      10 GLP5        0.0000 
     75 CA         19.6205   19.5555   15.9655 C.3       5 GLC5        0.0000 
     76 CA         18.0720   19.3640   16.8510 C.3      10 GLP5        0.0000 
     77 CA         20.2400   17.1595   14.4770 C.3       5 GLC5        0.0000 
     78 CA         21.4820   18.9530   15.3120 C.3      15 GLL5        0.0000 
     79 CA         18.7020   15.6590   14.2880 C.3      10 GLP5        0.0000 
     80 CA         20.2432   19.0415   13.1345 C.3       5 GLC5        0.0000 
     81 CA         18.8650   19.0260   11.7190 C.3      10 GLP5        0.0000 
     82 CA         26.0093   20.4035   10.7010 C.3       5 GLC5        0.0000 
     83 CA         26.4740   22.2530   10.1150 C.3      10 GLP5        0.0000 
     84 CA         24.3631   17.0071   10.7673 C.3       5 GLC5        0.0000 
     85 CA         23.3550   15.6340    9.9540 C.3      10 GLP5        0.0000 
@<TRIPOS>BOND
@<TRIPOS>SUBSTRUCTURE
     1 ALC1        4 GROUP        1 X    ALC  0     ROOT ALC X 1
     2 SEC2       10 GROUP        1 X    SEC  0     **** SEC X 2
     3 ASC3        1 GROUP        1 X    ASC  0     **** ASC X 3
     4 LYC4       60 GROUP        1 X    LYC  0     **** LYC X 4
     5 GLC5        7 GROUP        1 X    GLC  0     **** GLC X 6
     6 ALP1        6 GROUP        1 Y    ALP  0     ROOT ALP Y 8
     7 SEP2       12 GROUP        1 Y    SEP  0     **** SEP Y 9
     8 ASP3        3 GROUP        1 Y    ASP  0     **** ASP Y 10
     9 LYP4       62 GROUP        1 Y    LYP  0     **** LYP Y 11
    10 GLP5        9 GROUP        1 Y    GLP  0     **** GLP Y 13
    11 ALL1        5 GROUP        1 Z    ALL  0     ROOT ALL Z 15
    12 SEL2       11 GROUP        1 Z    SEL  0     **** SEL Z 16
    13 ASL3        2 GROUP        1 Z    ASL  0     **** ASL Z 17
    14 LYL4       61 GROUP        1 Z    LYL  0     **** LYL Z 18
    15 GLL5        8 GROUP        1 Z    GLL  0     **** GLL Z 20
@<TRIPOS>SET

