#    Name: 2imk_GTX_1_ligand
#    Modification time : Tue Mar 25 18:21:40 2014

@<TRIPOS>MOLECULE
2imk_GTX_1_ligand
   54    53     1     0     0
SMALL
NO_CHARGES


@<TRIPOS>ATOM
      1 N1         15.0780   23.6970   19.6400 N.4       1 GTX302      0.0000 
      2 CA1        16.2550   24.0280   18.8400 C.3       1 GTX302      0.0000 
      3 C1         15.8170   24.7210   17.5900 C.2       1 GTX302      0.0000 
      4 O11        14.9820   24.1710   16.8580 O.co2     1 GTX302      0.0000 
      5 O12        16.3100   25.8310   17.3460 O.co2     1 GTX302      0.0000 
      6 CB1        17.1450   22.8530   18.3840 C.3       1 GTX302      0.0000 
      7 CG1        18.4890   23.4960   18.0550 C.3       1 GTX302      0.0000 
      8 CD1        19.6840   22.5830   18.0680 C.2       1 GTX302      0.0000 
      9 OE1        19.7650   21.7720   18.9640 O.2       1 GTX302      0.0000 
     10 N2         20.5680   22.6830   17.0270 N.am      1 GTX302      0.0000 
     11 CA2        21.8210   21.8640   16.9500 C.3       1 GTX302      0.0000 
     12 C2         22.9660   22.6460   17.5910 C.2       1 GTX302      0.0000 
     13 O2         23.1510   23.8440   17.3430 O.2       1 GTX302      0.0000 
     14 CB2        22.0410   21.7090   15.4500 C.3       1 GTX302      0.0000 
     15 SG2        20.8560   20.5410   14.8480 S.3       1 GTX302      0.0000 
     16 C1S        21.4820   18.9530   15.3120 C.3       1 GTX302      0.0000 
     17 C2S        22.0740   18.3670   14.0200 C.3       1 GTX302      0.0000 
     18 C3S        23.3340   19.0740   13.4930 C.3       1 GTX302      0.0000 
     19 C4S        24.1370   18.1290   12.6140 C.3       1 GTX302      0.0000 
     20 C5S        24.8300   18.8240   11.4400 C.3       1 GTX302      0.0000 
     21 C6S        26.2590   18.2840   11.1340 C.3       1 GTX302      0.0000 
     22 N3         23.7460   22.0370   18.4970 N.am      1 GTX302      0.0000 
     23 CA3        24.8420   22.6640   19.1970 C.3       1 GTX302      0.0000 
     24 C3         24.9100   22.4650   20.7100 C.2       1 GTX302      0.0000 
     25 O31        26.0310   22.6220   21.2190 O.co2     1 GTX302      0.0000 
     26 O32        23.9440   22.1750   21.4560 O.co2     1 GTX302      0.0000 
     27 H          16.9009   24.7326   19.3775 H         1 GTX302      0.0000 
     28 H          16.7283   22.4138   17.5118 H         1 GTX302      0.0000 
     29 H          17.2569   22.1650   19.1848 H         1 GTX302      0.0000 
     30 H          18.6609   24.3336   18.7713 H         1 GTX302      0.0000 
     31 H          18.4095   23.9801   17.0532 H         1 GTX302      0.0000 
     32 H          20.4136   23.3329   16.2374 H         1 GTX302      0.0000 
     33 H          21.6834   20.9388   17.3941 H         1 GTX302      0.0000 
     34 H          22.9680   21.2670   15.2077 H         1 GTX302      0.0000 
     35 H          21.8234   22.5851   14.9036 H         1 GTX302      0.0000 
     36 H          20.6376   18.4403   15.6434 H         1 GTX302      0.0000 
     37 H          22.2048   19.1712   16.0301 H         1 GTX302      0.0000 
     38 H          21.2982   18.3915   13.2314 H         1 GTX302      0.0000 
     39 H          22.3120   17.3000   14.1910 H         1 GTX302      0.0000 
     40 H          23.9393   19.3915   14.3367 H         1 GTX302      0.0000 
     41 H          23.0351   19.9442   12.9165 H         1 GTX302      0.0000 
     42 H          23.4694   17.3470   12.2191 H         1 GTX302      0.0000 
     43 H          24.8998   17.6244   13.2276 H         1 GTX302      0.0000 
     44 H          24.9064   19.9010   11.6482 H         1 GTX302      0.0000 
     45 H          24.2169   18.7075   10.5346 H         1 GTX302      0.0000 
     46 H          23.5772   21.0174   18.7459 H         1 GTX302      0.0000 
     47 H          24.8440   23.7747   19.0082 H         1 GTX302      0.0000 
     48 H          25.8271   22.3193   18.7726 H         1 GTX302      0.0000 
     49 H          15.2828   23.6951   20.6188 H         1 GTX302      0.0000 
     50 H          14.3357   24.3517   19.4970 H         1 GTX302      0.0000 
     51 H          14.7181   22.7918   19.4141 H         1 GTX302      0.0000 
     52 H          26.6804   18.7637   10.3644 H         1 GTX302      0.0000 
     53 H          26.8719   18.3908   11.9169 H         1 GTX302      0.0000 
     54 H          26.2467   17.3114   10.9019 H         1 GTX302      0.0000 
@<TRIPOS>BOND
     1    2    1 1    
     2   49    1 1    
     3   50    1 1    
     4   51    1 1    
     5    3    2 1    
     6    6    2 1    
     7   27    2 1    
     8    4    3 ar   
     9    5    3 ar   
    10    7    6 1    
    11   28    6 1    
    12   29    6 1    
    13    8    7 1    
    14   30    7 1    
    15   31    7 1    
    16    9    8 2    
    17   10    8 am   
    18   11   10 1    
    19   32   10 1    
    20   12   11 1    
    21   14   11 1    
    22   33   11 1    
    23   13   12 2    
    24   22   12 am   
    25   15   14 1    
    26   34   14 1    
    27   35   14 1    
    28   16   15 1    
    29   17   16 1    
    30   36   16 1    
    31   37   16 1    
    32   18   17 1    
    33   38   17 1    
    34   39   17 1    
    35   19   18 1    
    36   40   18 1    
    37   41   18 1    
    38   20   19 1    
    39   42   19 1    
    40   43   19 1    
    41   21   20 1    
    42   44   20 1    
    43   45   20 1    
    44   52   21 1    
    45   53   21 1    
    46   54   21 1    
    47   23   22 1    
    48   46   22 1    
    49   24   23 1    
    50   47   23 1    
    51   48   23 1    
    52   25   24 ar   
    53   26   24 ar   
@<TRIPOS>SUBSTRUCTURE
     1 GTX302      1 GROUP   
@<TRIPOS>SET

