#    Name: 2rh1_CAU_1_INTS_M
#    Modification time : Mon Mar 24 23:57:00 2014

@<TRIPOS>MOLECULE
2rh1_CAU_1_INTS_M
   58     0    12     0     0
SMALL
NO_CHARGES


@<TRIPOS>ATOM
      1 N         -33.9740   10.7140    9.4395 N.am      2 SEC2        0.0000 
      2 N         -33.4770   10.9570    8.1700 N.am     10 SEL2        0.0000 
      3 N         -34.4710   10.4710   10.7090 N.am      6 SEP2        0.0000 
      4 O         -33.9650   11.1100    6.9705 O.2       1 ALC1        0.0000 
      5 O         -33.4770   10.9570    8.1700 O.2       9 ALL1        0.0000 
      6 O         -34.4530   11.2630    5.7710 O.2       5 ALP1        0.0000 
      7 CA        -33.6970    9.5880    5.4530 C.3       4 GLC5        0.0000 
      8 CA        -32.4780    8.9510    7.2250 C.3      12 GLL5        0.0000 
      9 CA        -34.9160   10.2250    3.6810 C.3       8 GLP5        0.0000 
     10 OD1       -34.0775    9.7565    6.6855 O.co2     3 ASC3        0.0000 
     11 OD1       -33.7020    8.2500    7.6000 O.co2    11 ASL3        0.0000 
     12 OD1       -34.4530   11.2630    5.7710 O.co2     7 ASP3        0.0000 
     13 OD1       -34.6730    8.8345    6.6635 O.co2     3 ASC3        0.0000 
     14 OD1       -35.6440    9.4190    5.7270 O.co2     7 ASP3        0.0000 
     15 CA        -35.4685    5.6170    5.2935 C.3       4 GLC5        0.0000 
     16 CA        -33.5330    6.3850    6.0550 C.3      12 GLL5        0.0000 
     17 CA        -37.4040    4.8490    4.5320 C.3       8 GLP5        0.0000 
     18 CA        -32.9800    6.0150    3.9425 C.3       4 GLC5        0.0000 
     19 CA        -32.4270    5.6450    1.8300 C.3       8 GLP5        0.0000 
     20 CA        -32.4420    4.6660    6.0490 C.3       4 GLC5        0.0000 
     21 CA        -31.3510    2.9470    6.0430 C.3       8 GLP5        0.0000 
     22 CA        -36.5515    5.9760    6.7815 C.3       4 GLC5        0.0000 
     23 CA        -35.1840    6.3500    7.9880 C.3      12 GLL5        0.0000 
     24 CA        -37.9190    5.6020    5.5750 C.3       8 GLP5        0.0000 
     25 CA        -36.3020    8.2490    8.3380 C.3       4 GLC5        0.0000 
     26 CA        -37.4200   10.1480    8.6880 C.3       8 GLP5        0.0000 
     27 CA        -31.8725   13.0105    7.0025 C.3       4 GLC5        0.0000 
     28 CA        -31.2420   11.1050    7.3640 C.3      12 GLL5        0.0000 
     29 CA        -32.5030   14.9160    6.6410 C.3       8 GLP5        0.0000 
     30 CA        -30.3655   10.5155    9.0810 C.3       4 GLC5        0.0000 
     31 CA        -29.4890    9.9260   10.7980 C.3       8 GLP5        0.0000 
     32 CA        -29.9635   12.0420    4.3460 C.3       4 GLC5        0.0000 
     33 CA        -28.9110   12.1330    6.0050 C.3      12 GLL5        0.0000 
     34 CA        -31.0160   11.9510    2.6870 C.3       8 GLP5        0.0000 
     35 O         -24.7685    9.8335    4.5460 O.2       1 ALC1        0.0000 
     36 O         -25.5930    9.6570    5.9740 O.2       9 ALL1        0.0000 
     37 O         -23.9440   10.0100    3.1180 O.2       5 ALP1        0.0000 
     38 CA        -23.6560    6.4345    7.0545 C.3       4 GLC5        0.0000 
     39 CA        -25.5890    7.3380    7.0090 C.3      12 GLL5        0.0000 
     40 CA        -21.7230    5.5310    7.1000 C.3       8 GLP5        0.0000 
     41 CA        -26.4050    4.5970    6.5490 C.3       4 GLC5        0.0000 
     42 CA        -26.3950    6.4320    7.6890 C.3      12 GLL5        0.0000 
     43 CA        -26.4150    2.7620    5.4090 C.3       8 GLP5        0.0000 
     44 CA        -31.9782   12.0293    9.1418 C.3       4 GLC5        0.0000 
     45 CA        -32.2020   13.3910   10.5810 C.3       8 GLP5        0.0000 
     46 CA        -31.3498    9.2097    9.2780 C.3       4 GLC5        0.0000 
     47 CA        -32.2670   10.2300    8.0410 C.3      12 GLL5        0.0000 
     48 CA        -30.3270    8.8290   10.9230 C.3       8 GLP5        0.0000 
     49 CA        -29.2018   10.0628    4.8480 C.3       4 GLC5        0.0000 
     50 CA        -28.9310   10.8570    6.5810 C.3      12 GLL5        0.0000 
     51 CA        -30.0540    9.6430    3.1470 C.3       8 GLP5        0.0000 
     52 CA        -29.2692   14.0587    6.3985 C.3       4 GLC5        0.0000 
     53 CA        -30.1990   15.7370    7.0980 C.3       8 GLP5        0.0000 
     54 CA        -27.9225   11.7948    3.6267 C.3       4 GLC5        0.0000 
     55 CA        -27.7680   12.6280    5.3930 C.3      12 GLL5        0.0000 
     56 CA        -28.6570   11.3380    1.8910 C.3       8 GLP5        0.0000 
     57 CA        -25.8040   13.3697    4.6422 C.3       4 GLC5        0.0000 
     58 CA        -24.4200   14.4880    3.9220 C.3       8 GLP5        0.0000 
@<TRIPOS>BOND
@<TRIPOS>SUBSTRUCTURE
     1 ALC1        4 GROUP        1 X    ALC  0     ROOT ALC X 1
     2 SEC2        1 GROUP        1 X    SEC  0     **** SEC X 2
     3 ASC3       10 GROUP        1 X    ASC  0     **** ASC X 3
     4 GLC5        7 GROUP        1 X    GLC  0     **** GLC X 6
     5 ALP1        6 GROUP        1 Y    ALP  0     ROOT ALP Y 8
     6 SEP2        3 GROUP        1 Y    SEP  0     **** SEP Y 9
     7 ASP3       12 GROUP        1 Y    ASP  0     **** ASP Y 10
     8 GLP5        9 GROUP        1 Y    GLP  0     **** GLP Y 13
     9 ALL1        5 GROUP        1 Z    ALL  0     ROOT ALL Z 15
    10 SEL2        2 GROUP        1 Z    SEL  0     **** SEL Z 16
    11 ASL3       11 GROUP        1 Z    ASL  0     **** ASL Z 17
    12 GLL5        8 GROUP        1 Z    GLL  0     **** GLL Z 20
@<TRIPOS>SET

