#    Name: 2rh1_CAU_1_ligand
#    Modification time : Mon Mar 24 23:57:00 2014

@<TRIPOS>MOLECULE
2rh1_CAU_1_ligand
   43    45     1     0     0
SMALL
NO_CHARGES


@<TRIPOS>ATOM
      1 O17       -33.4770   10.9570    8.1700 O.3       1 CAU408      0.0000 
      2 C16       -32.2670   10.2300    8.0410 C.3       1 CAU408      0.0000 
      3 C18       -32.4780    8.9510    7.2250 C.3       1 CAU408      0.0000 
      4 N19       -33.7020    8.2500    7.6000 N.4       1 CAU408      0.0000 
      5 C20       -33.8060    6.8050    7.4980 C.3       1 CAU408      0.0000 
      6 C21       -33.5330    6.3850    6.0550 C.3       1 CAU408      0.0000 
      7 C22       -35.1840    6.3500    7.9880 C.3       1 CAU408      0.0000 
      8 C15       -31.2420   11.1050    7.3640 C.3       1 CAU408      0.0000 
      9 O14       -30.0490   10.3670    7.1820 O.3       1 CAU408      0.0000 
     10 C13       -28.9310   10.8570    6.5810 C.ar      1 CAU408      0.0000 
     11 C12       -28.9110   12.1330    6.0050 C.ar      1 CAU408      0.0000 
     12 C11       -27.7680   12.6280    5.3930 C.ar      1 CAU408      0.0000 
     13 C10       -26.6080   11.8750    5.3320 C.ar      1 CAU408      0.0000 
     14 C8        -26.5650   10.6250    5.8750 C.ar      1 CAU408      0.0000 
     15 C9        -27.7680   10.1080    6.5170 C.ar      1 CAU408      0.0000 
     16 N7        -25.5930    9.6570    5.9740 N.pl3     1 CAU408      0.0000 
     17 C3        -26.0960    8.5610    6.6370 C.ar      1 CAU408      0.0000 
     18 C4        -27.4820    8.8630    6.9760 C.ar      1 CAU408      0.0000 
     19 C2        -25.5890    7.3380    7.0090 C.ar      1 CAU408      0.0000 
     20 C1        -26.3950    6.4320    7.6890 C.ar      1 CAU408      0.0000 
     21 C6        -27.7170    6.7310    8.0060 C.ar      1 CAU408      0.0000 
     22 C5        -28.2690    7.9480    7.6520 C.ar      1 CAU408      0.0000 
     23 H         -31.8754    9.9442    9.0104 H         1 CAU408      0.0000 
     24 H         -31.5965    8.3053    7.3727 H         1 CAU408      0.0000 
     25 H         -32.4975    9.2289    6.1582 H         1 CAU408      0.0000 
     26 H         -33.0530    6.3397    8.1315 H         1 CAU408      0.0000 
     27 H         -31.0827   11.9909    7.9918 H         1 CAU408      0.0000 
     28 H         -31.6620   11.4447    6.4088 H         1 CAU408      0.0000 
     29 H         -29.7677   12.7141    6.0390 H         1 CAU408      0.0000 
     30 H         -27.7847   13.5770    4.9753 H         1 CAU408      0.0000 
     31 H         -25.7701   12.2729    4.8677 H         1 CAU408      0.0000 
     32 H         -24.6956    9.7341    5.6312 H         1 CAU408      0.0000 
     33 H         -24.6148    7.0873    6.7874 H         1 CAU408      0.0000 
     34 H         -26.0028    5.5116    7.9669 H         1 CAU408      0.0000 
     35 H         -28.2885    6.0330    8.5114 H         1 CAU408      0.0000 
     36 H         -29.2394    8.1677    7.8850 H         1 CAU408      0.0000 
     37 H         -32.6185    6.6573    5.7556 H         1 CAU408      0.0000 
     38 H         -33.5966    5.3939    5.9383 H         1 CAU408      0.0000 
     39 H         -34.1847    6.7975    5.4185 H         1 CAU408      0.0000 
     40 H         -35.2893    5.3572    7.9310 H         1 CAU408      0.0000 
     41 H         -35.3428    6.6074    8.9412 H         1 CAU408      0.0000 
     42 H         -35.9223    6.7545    7.4483 H         1 CAU408      0.0000 
     43 H         -34.0524   10.6373    7.4172 H         1 CAU408      0.0000 
@<TRIPOS>BOND
     1    2    1 1    
     2   43    1 1    
     3    3    2 1    
     4    8    2 1    
     5   23    2 1    
     6    4    3 1    
     7   24    3 1    
     8   25    3 1    
     9    5    4 1    
    10    6    5 1    
    11    7    5 1    
    12   26    5 1    
    13   37    6 1    
    14   38    6 1    
    15   39    6 1    
    16   40    7 1    
    17   41    7 1    
    18   42    7 1    
    19    9    8 1    
    20   27    8 1    
    21   28    8 1    
    22   10    9 1    
    23   11   10 ar   
    24   15   10 ar   
    25   12   11 ar   
    26   29   11 1    
    27   13   12 ar   
    28   30   12 1    
    29   14   13 ar   
    30   31   13 1    
    31   15   14 ar   
    32   16   14 1    
    33   18   15 1    
    34   17   16 1    
    35   32   16 1    
    36   18   17 ar   
    37   19   17 ar   
    38   22   18 ar   
    39   20   19 ar   
    40   33   19 1    
    41   21   20 ar   
    42   34   20 1    
    43   22   21 ar   
    44   35   21 1    
    45   36   22 1    
@<TRIPOS>SUBSTRUCTURE
     1 CAU408      1 GROUP   
@<TRIPOS>SET

