#    Name: 3PO1_1_CAVITY_N1_6.mol2
#    Modification time : Mon Mar 10 14:57:53 2014

@<TRIPOS>MOLECULE
3PO1_1_CAVITY_N1_6.mol2
   98     0     6     0     0
SMALL
NO_CHARGES


@<TRIPOS>ATOM
      1 CA         16.0803  -17.2894   25.1654 C.3       5 GLY6        0.0000 
      2 DU         21.4296  -15.5992   24.9954 H         6 CUB7        0.0000 
      3 OG         22.2791  -15.7490   23.7683 O.2       1 SER1        0.0000 
      4 DU         19.3450  -15.6183   25.3881 H         6 CUB7        0.0000 
      5 DU         20.1946  -15.7681   24.1610 H         6 CUB7        0.0000 
      6 OG         21.0441  -15.9180   22.9339 O.2       1 SER1        0.0000 
      7 CA         17.2604  -15.6375   25.7807 C.3       5 GLY6        0.0000 
      8 DU         18.1100  -15.7873   24.5536 H         6 CUB7        0.0000 
      9 DU         18.9596  -15.9371   23.3266 H         6 CUB7        0.0000 
     10 OG         19.8092  -16.0870   22.0995 O.2       1 SER1        0.0000 
     11 OG         20.6587  -16.2368   20.8724 O.2       1 SER1        0.0000 
     12 N          16.8750  -15.9563   23.7192 N.2       2 ALA2        0.0000 
     13 DU         17.7246  -16.1061   22.4921 H         6 CUB7        0.0000 
     14 CZ         18.5742  -16.2559   21.2650 C.ar      4 PHE5        0.0000 
     15 CZ         19.4238  -16.4058   20.0379 C.ar      4 PHE5        0.0000 
     16 N          15.6400  -16.1253   22.8848 N.2       2 ALA2        0.0000 
     17 N          16.4896  -16.2751   21.6577 N.2       2 ALA2        0.0000 
     18 N          14.4050  -16.2943   22.0504 N.2       2 ALA2        0.0000 
     19 O          13.1700  -16.4632   21.2160 O.2       2 ALA2        0.0000 
     20 N          23.4592  -14.0971   24.3836 N.2       2 ALA2        0.0000 
     21 OG         24.3088  -14.2469   23.1565 O.2       1 SER1        0.0000 
     22 CA         20.5251  -13.9664   26.0034 C.3       5 GLY6        0.0000 
     23 DU         21.3747  -14.1163   24.7763 H         6 CUB7        0.0000 
     24 OG         22.2242  -14.2661   23.5492 O.2       1 SER1        0.0000 
     25 CZ         18.4405  -13.9856   26.3961 C.ar      4 PHE5        0.0000 
     26 CZ         19.2901  -14.1354   25.1690 C.ar      4 PHE5        0.0000 
     27 OG         20.1397  -14.2852   23.9419 O.2       1 SER1        0.0000 
     28 OG         20.9893  -14.4351   22.7148 O.2       1 SER1        0.0000 
     29 CZ         17.2055  -14.1546   25.5617 C.ar      4 PHE5        0.0000 
     30 N          18.0551  -14.3044   24.3346 N.2       2 ALA2        0.0000 
     31 DU         18.9047  -14.4542   23.1075 H         6 CUB7        0.0000 
     32 OG         19.7543  -14.6041   21.8804 O.2       1 SER1        0.0000 
     33 N          16.8201  -14.4734   23.5002 N.2       2 ALA2        0.0000 
     34 N          17.6697  -14.6232   22.2731 N.2       2 ALA2        0.0000 
     35 CZ         18.5193  -14.7730   21.0460 C.ar      4 PHE5        0.0000 
     36 N          16.4347  -14.7922   21.4387 N.2       2 ALA2        0.0000 
     37 N          14.3501  -14.8114   21.8313 N.2       2 ALA2        0.0000 
     38 CZ         15.1997  -14.9612   20.6042 C.ar      4 PHE5        0.0000 
     39 CZ         16.0493  -15.1110   19.3771 C.ar      4 PHE5        0.0000 
     40 N          12.2656  -14.8305   22.2240 N.2       2 ALA2        0.0000 
     41 N          13.1151  -14.9803   20.9969 N.2       2 ALA2        0.0000 
     42 NZ         13.9647  -15.1302   19.7698 N.2       3 LYS4        0.0000 
     43 CA         11.8802  -15.1493   20.1625 C.3       5 GLY6        0.0000 
     44 NZ         12.7297  -15.2991   18.9354 N.2       3 LYS4        0.0000 
     45 CA         22.5548  -12.4644   25.3917 C.3       5 GLY6        0.0000 
     46 CA         23.4043  -12.6142   24.1646 C.3       5 GLY6        0.0000 
     47 CZ         20.4702  -12.4835   25.7843 C.ar      4 PHE5        0.0000 
     48 CA         21.3198  -12.6334   24.5572 C.3       5 GLY6        0.0000 
     49 CA         22.1694  -12.7832   23.3302 C.3       5 GLY6        0.0000 
     50 CA         19.2352  -12.6525   24.9499 C.3       5 GLY6        0.0000 
     51 CA         20.0848  -12.8023   23.7228 C.3       5 GLY6        0.0000 
     52 OG         20.9344  -12.9522   22.4957 O.2       1 SER1        0.0000 
     53 CA         18.0002  -12.8215   24.1155 C.3       5 GLY6        0.0000 
     54 CA         18.8498  -12.9713   22.8884 C.3       5 GLY6        0.0000 
     55 OG         19.6994  -13.1212   21.6613 O.2       1 SER1        0.0000 
     56 CZ         20.5490  -13.2710   20.4342 C.ar      4 PHE5        0.0000 
     57 N          16.7652  -12.9905   23.2811 N.2       2 ALA2        0.0000 
     58 CA         17.6148  -13.1403   22.0540 C.3       5 GLY6        0.0000 
     59 CZ         18.4644  -13.2901   20.8269 C.ar      4 PHE5        0.0000 
     60 CZ         16.3798  -13.3093   21.2196 C.ar      4 PHE5        0.0000 
     61 N          14.2952  -13.3285   21.6123 N.2       2 ALA2        0.0000 
     62 CZ         15.1448  -13.4783   20.3852 C.ar      4 PHE5        0.0000 
     63 N          12.2107  -13.3476   22.0049 N.2       2 ALA2        0.0000 
     64 N          13.0603  -13.4974   20.7779 N.2       2 ALA2        0.0000 
     65 CA         13.9098  -13.6473   19.5508 C.3       5 GLY6        0.0000 
     66 NZ         14.7594  -13.7971   18.3237 N.2       3 LYS4        0.0000 
     67 O          11.8253  -13.6664   19.9434 O.2       2 ALA2        0.0000 
     68 CA         19.6445  -11.6383   21.4423 C.3       5 GLY6        0.0000 
     69 CA         17.5599  -11.6574   21.8349 C.3       5 GLY6        0.0000 
     70 CZ         18.4095  -11.8072   20.6078 C.ar      4 PHE5        0.0000 
     71 O          15.4753  -11.6766   22.2276 O.2       2 ALA2        0.0000 
     72 N          16.3249  -11.8264   21.0005 N.2       2 ALA2        0.0000 
     73 CZ         17.1745  -11.9762   19.7734 C.ar      4 PHE5        0.0000 
     74 O          14.2403  -11.8456   21.3932 O.2       2 ALA2        0.0000 
     75 DU         15.0899  -11.9954   20.1661 H         6 CUB7        0.0000 
     76 CZ         15.9395  -12.1452   18.9390 C.ar      4 PHE5        0.0000 
     77 N          11.3062  -11.7149   23.0130 N.2       2 ALA2        0.0000 
     78 O          12.1558  -11.8647   21.7859 O.2       2 ALA2        0.0000 
     79 O          13.0054  -12.0145   20.5588 O.2       2 ALA2        0.0000 
     80 CA         13.8549  -12.1644   19.3317 C.3       5 GLY6        0.0000 
     81 CA         14.7045  -12.3142   18.1046 C.3       5 GLY6        0.0000 
     82 CA         10.9208  -12.0337   20.9515 C.3       5 GLY6        0.0000 
     83 N          16.2700  -10.3435   20.7815 N.2       2 ALA2        0.0000 
     84 O          12.4863  -10.0630   23.6283 O.2       2 ALA2        0.0000 
     85 O          13.3359  -10.2128   22.4012 O.2       2 ALA2        0.0000 
     86 OG         14.1855  -10.3626   21.1741 O.2       1 SER1        0.0000 
     87 OG         15.0350  -10.5125   19.9470 O.2       1 SER1        0.0000 
     88 OG         15.8846  -10.6623   18.7199 O.2       1 SER1        0.0000 
     89 N          16.7342  -10.8121   17.4928 N.2       2 ALA2        0.0000 
     90 N          11.2513  -10.2320   22.7939 N.2       2 ALA2        0.0000 
     91 N          12.1009  -10.3818   21.5668 N.2       2 ALA2        0.0000 
     92 N          12.9505  -10.5316   20.3397 N.2       2 ALA2        0.0000 
     93 OG         13.8001  -10.6815   19.1126 O.2       1 SER1        0.0000 
     94 OG         14.6496  -10.8313   17.8855 O.2       1 SER1        0.0000 
     95 CA         15.4992  -10.9811   16.6584 C.3       5 GLY6        0.0000 
     96 N          12.4314   -8.5801   23.4093 N.2       2 ALA2        0.0000 
     97 CA         13.2810   -8.7299   22.1822 C.3       5 GLY6        0.0000 
     98 CA         12.0460   -8.8989   21.3477 C.3       5 GLY6        0.0000 
@<TRIPOS>BOND
@<TRIPOS>SUBSTRUCTURE
     1 SER1        3 GROUP   
     2 ALA2       12 GROUP   
     3 LYS4       42 GROUP   
     4 PHE5       14 GROUP   
     5 GLY6        1 GROUP   
     6 CUB7        2 GROUP   
@<TRIPOS>SET

