#    Name: 3po1_MKY_1_INTS_M
#    Modification time : Tue Mar 25 08:14:18 2014

@<TRIPOS>MOLECULE
3po1_MKY_1_INTS_M
   47     0     9     0     0
SMALL
NO_CHARGES


@<TRIPOS>ATOM
      1 CA         21.1790  -13.0515   19.3900 C.3       3 GLC5        0.0000 
      2 CA         19.8380  -12.0960   20.0850 C.3       9 GLL5        0.0000 
      3 CA         22.5200  -14.0070   18.6950 C.3       6 GLP5        0.0000 
      4 CA         17.9355  -11.3430   22.7270 C.3       3 GLC5        0.0000 
      5 CA         18.5770  -12.2900   20.9350 C.3       9 GLL5        0.0000 
      6 CA         17.2940  -10.3960   24.5190 C.3       6 GLP5        0.0000 
      7 N          15.3145  -11.9180   23.3485 N.am      2 SEC2        0.0000 
      8 N          16.1190  -12.2710   21.9490 N.am      8 SEL2        0.0000 
      9 N          14.5100  -11.5650   24.7480 N.am      5 SEP2        0.0000 
     10 CA         15.2400   -8.9550   19.2020 C.3       3 GLC5        0.0000 
     11 CA         15.1420  -10.9060   20.2340 C.3       9 GLL5        0.0000 
     12 CA         15.3380   -7.0040   18.1700 C.3       6 GLP5        0.0000 
     13 CA         15.5440  -10.3195   22.1970 C.3       3 GLC5        0.0000 
     14 CA         15.9460   -9.7330   24.1600 C.3       6 GLP5        0.0000 
     15 O           9.4695   -9.1375   25.0430 O.2       1 ALC1        0.0000 
     16 O          10.7270   -8.9010   24.5660 O.2       7 ALL1        0.0000 
     17 O           8.2120   -9.3740   25.5200 O.2       4 ALP1        0.0000 
     18 CA         11.3375   -9.0710   25.7010 C.3       3 GLC5        0.0000 
     19 CA         11.5110   -9.4980   23.6190 C.3       9 GLL5        0.0000 
     20 CA         11.1640   -8.6440   27.7830 C.3       6 GLP5        0.0000 
     21 CA         12.9105  -12.6820   23.6200 C.3       3 GLC5        0.0000 
     22 CA         12.2280  -13.0550   21.6500 C.3       9 GLL5        0.0000 
     23 CA         13.5930  -12.3090   25.5900 C.3       6 GLP5        0.0000 
     24 CA         10.4410  -13.5490   21.3180 C.3       3 GLC5        0.0000 
     25 CA          8.6540  -14.0430   20.9860 C.3       6 GLP5        0.0000 
     26 CA         10.1420  -10.8830   21.5420 C.3       3 GLC5        0.0000 
     27 CA         11.3210  -10.8380   23.2880 C.3       9 GLL5        0.0000 
     28 CA          8.9630  -10.9280   19.7960 C.3       6 GLP5        0.0000 
     29 CA         19.2897  -10.6025   19.2835 C.3       3 GLC5        0.0000 
     30 CA         19.3720   -9.0120   18.0570 C.3       6 GLP5        0.0000 
     31 CA         18.4368  -13.0805   19.1565 C.3       3 GLC5        0.0000 
     32 CA         17.6660  -13.9680   17.8030 C.3       6 GLP5        0.0000 
     33 CA         19.8937  -11.0775   21.7860 C.3       3 GLC5        0.0000 
     34 CA         20.5800   -9.9620   23.0620 C.3       6 GLP5        0.0000 
     35 CA         13.9770   -9.4337   23.7287 C.3       3 GLC5        0.0000 
     36 CA         12.5050   -8.7710   22.9760 C.3       9 GLL5        0.0000 
     37 CA         12.5045  -11.2385   24.5218 C.3       3 GLC5        0.0000 
     38 CA         12.4897   -7.4481   22.0781 C.3       3 GLC5        0.0000 
     39 CA         12.3130   -5.6620   21.5000 C.3       6 GLP5        0.0000 
     40 CA         14.5868   -9.8710   22.9980 C.3       3 GLC5        0.0000 
     41 CA         13.3250   -9.3340   22.0150 C.3       9 GLL5        0.0000 
     42 CA         13.1128  -11.6767   23.7935 C.3       3 GLC5        0.0000 
     43 CA         13.1300  -10.6840   21.6570 C.3       9 GLL5        0.0000 
     44 CA         10.5723  -11.5790   20.8947 C.3       3 GLC5        0.0000 
     45 CA         12.1350  -11.4050   22.3370 C.3       9 GLL5        0.0000 
     46 CA         10.3897   -8.5731   22.6819 C.3       3 GLC5        0.0000 
     47 CA          9.1150   -7.1600   22.0710 C.3       6 GLP5        0.0000 
@<TRIPOS>BOND
@<TRIPOS>SUBSTRUCTURE
     1 ALC1       15 GROUP        1 X    ALC  0     ROOT ALC X 1
     2 SEC2        7 GROUP        1 X    SEC  0     **** SEC X 2
     3 GLC5        1 GROUP        1 X    GLC  0     **** GLC X 6
     4 ALP1       17 GROUP        1 Y    ALP  0     ROOT ALP Y 8
     5 SEP2        9 GROUP        1 Y    SEP  0     **** SEP Y 9
     6 GLP5        3 GROUP        1 Y    GLP  0     **** GLP Y 13
     7 ALL1       16 GROUP        1 Z    ALL  0     ROOT ALL Z 15
     8 SEL2        8 GROUP        1 Z    SEL  0     **** SEL Z 16
     9 GLL5        2 GROUP        1 Z    GLL  0     **** GLL Z 20
@<TRIPOS>SET

