#    Name: 3po1_MKY_1_ligand
#    Modification time : Tue Mar 25 08:14:18 2014

@<TRIPOS>MOLECULE
3po1_MKY_1_ligand
   35    36     1     0     0
SMALL
NO_CHARGES


@<TRIPOS>ATOM
      1 C1         19.8380  -12.0960   20.0850 C.3       1 MKY1        0.0000 
      2 C2         18.5770  -12.2900   20.9350 C.3       1 MKY1        0.0000 
      3 O3         17.5090  -11.4390   20.4140 O.3       1 MKY1        0.0000 
      4 C4         16.2900  -11.6030   20.9340 C.2       1 MKY1        0.0000 
      5 O5         16.1190  -12.2710   21.9490 O.2       1 MKY1        0.0000 
      6 C6         15.1420  -10.9060   20.2340 C.3       1 MKY1        0.0000 
      7 O7         10.7270   -8.9010   24.5660 O.3       1 MKY1        0.0000 
      8 C8         11.5110   -9.4980   23.6190 C.ar      1 MKY1        0.0000 
      9 C9         12.5050   -8.7710   22.9760 C.ar      1 MKY1        0.0000 
     10 C10        13.3250   -9.3340   22.0150 C.ar      1 MKY1        0.0000 
     11 C11        13.1300  -10.6840   21.6570 C.ar      1 MKY1        0.0000 
     12 N12        13.8930  -11.4370   20.7890 N.pl3     1 MKY1        0.0000 
     13 C13        13.6690  -12.7590   20.6360 C.2       1 MKY1        0.0000 
     14 N14        14.4340  -13.5860   19.9390 N.2       1 MKY1        0.0000 
     15 C15        14.2020  -14.9010   19.9260 C.ar      1 MKY1        0.0000 
     16 N16        13.7690  -15.4820   21.1080 N.pl3     1 MKY1        0.0000 
     17 N17        14.4830  -15.6550   18.8070 N.pl3     1 MKY1        0.0000 
     18 S18        12.2280  -13.0550   21.6500 S.3       1 MKY1        0.0000 
     19 C19        12.1350  -11.4050   22.3370 C.ar      1 MKY1        0.0000 
     20 C20        11.3210  -10.8380   23.2880 C.ar      1 MKY1        0.0000 
     21 H          18.8175  -12.0309   21.9654 H         1 MKY1        0.0000 
     22 H          18.2963  -13.3417   20.8929 H         1 MKY1        0.0000 
     23 H          15.2068  -11.1048   19.1700 H         1 MKY1        0.0000 
     24 H          15.2195   -9.8388   20.4098 H         1 MKY1        0.0000 
     25 H          12.6354   -7.7653   23.2287 H         1 MKY1        0.0000 
     26 H          14.0618   -8.7924   21.5655 H         1 MKY1        0.0000 
     27 H          13.6033  -16.4677   21.0789 H         1 MKY1        0.0000 
     28 H          13.6599  -14.8650   21.8874 H         1 MKY1        0.0000 
     29 H          14.2643  -16.6290   18.8664 H         1 MKY1        0.0000 
     30 H          14.8811  -15.1624   18.0331 H         1 MKY1        0.0000 
     31 H          10.5883  -11.3811   23.7484 H         1 MKY1        0.0000 
     32 H          20.1540  -11.1474   20.1005 H         1 MKY1        0.0000 
     33 H          20.5954  -12.6626   20.4095 H         1 MKY1        0.0000 
     34 H          19.6810  -12.3370   19.1273 H         1 MKY1        0.0000 
     35 H           9.8796   -9.4319   24.5725 H         1 MKY1        0.0000 
@<TRIPOS>BOND
     1    2    1 1    
     2   32    1 1    
     3   33    1 1    
     4   34    1 1    
     5    3    2 1    
     6   21    2 1    
     7   22    2 1    
     8    4    3 1    
     9    5    4 2    
    10    6    4 1    
    11   12    6 1    
    12   23    6 1    
    13   24    6 1    
    14    8    7 1    
    15   35    7 1    
    16    9    8 ar   
    17   20    8 ar   
    18   10    9 ar   
    19   25    9 1    
    20   11   10 ar   
    21   26   10 1    
    22   12   11 1    
    23   19   11 ar   
    24   13   12 1    
    25   14   13 2    
    26   18   13 1    
    27   15   14 1    
    28   16   15 ar   
    29   17   15 ar   
    30   27   16 1    
    31   28   16 1    
    32   29   17 1    
    33   30   17 1    
    34   19   18 1    
    35   20   19 ar   
    36   31   20 1    
@<TRIPOS>SUBSTRUCTURE
     1 MKY1        1 GROUP   
@<TRIPOS>SET

