#    Name: 4e07_ACP_2_INTS_M
#    Modification time : Mon Apr  7 23:13:43 2014

@<TRIPOS>MOLECULE
4e07_ACP_2_INTS_M
   66     0    12     0     0
SMALL
NO_CHARGES


@<TRIPOS>ATOM
      1 N          -6.1660   25.6650   -4.5720 N.am      2 SEC2        0.0000 
      2 N          -6.3670   25.6480   -5.8330 N.am     10 SEL2        0.0000 
      3 N          -5.9650   25.6820   -3.3110 N.am      6 SEP2        0.0000 
      4 NZ         -7.1305   26.7445   -8.4985 N.4       3 LYC4        0.0000 
      5 NZ         -6.6150   27.7440   -7.0450 N.4      11 LYL4        0.0000 
      6 NZ         -7.6460   25.7450   -9.9520 N.4       7 LYP4        0.0000 
      7 NZ         -9.1370   30.1465   -6.7385 N.4       3 LYC4        0.0000 
      8 NZ         -9.8690   28.6690   -6.2880 N.4      11 LYL4        0.0000 
      9 NZ         -8.4050   31.6240   -7.1890 N.4       7 LYP4        0.0000 
     10 N          -9.1370   30.1465   -6.7385 N.am      2 SEC2        0.0000 
     11 N          -9.8690   28.6690   -6.2880 N.am     10 SEL2        0.0000 
     12 N          -8.4050   31.6240   -7.1890 N.am      6 SEP2        0.0000 
     13 N         -10.9740   29.1385   -6.9700 N.am      2 SEC2        0.0000 
     14 N         -12.0790   29.6080   -7.6520 N.am      6 SEP2        0.0000 
     15 N         -11.4725   25.7055   -5.7940 N.am      2 SEC2        0.0000 
     16 N         -10.0480   26.0630   -6.0970 N.am     10 SEL2        0.0000 
     17 N         -12.8970   25.3480   -5.4910 N.am      6 SEP2        0.0000 
     18 N         -10.3525   24.8980   -5.6045 N.am      2 SEC2        0.0000 
     19 N         -10.6570   23.7330   -5.1120 N.am      6 SEP2        0.0000 
     20 CA         -8.3725   25.2805   -5.7140 C.3       4 GLC5        0.0000 
     21 CA         -8.0940   27.3390   -4.9860 C.3      12 GLL5        0.0000 
     22 CA         -8.6510   23.2220   -6.4420 C.3       8 GLP5        0.0000 
     23 CA         -7.3940   26.2955   -3.5750 C.3       4 GLC5        0.0000 
     24 CA         -6.6940   25.2520   -2.1640 C.3       8 GLP5        0.0000 
     25 N          -9.7050   25.1085   -1.6840 N.am      2 SEC2        0.0000 
     26 N         -10.4220   26.2150   -2.5670 N.am     10 SEL2        0.0000 
     27 N          -8.9880   24.0020   -0.8010 N.am      6 SEP2        0.0000 
     28 N         -11.6560   26.5060   -5.0835 N.am      2 SEC2        0.0000 
     29 N         -10.4150   27.6640   -4.6760 N.am     10 SEL2        0.0000 
     30 CA        -12.6755   29.5445   -4.7885 C.3       4 GLC5        0.0000 
     31 CA        -12.2830   29.5490   -2.9870 C.3      12 GLL5        0.0000 
     32 CA        -13.0680   29.5400   -6.5900 C.3       8 GLP5        0.0000 
     33 N         -15.3910   28.8655   -2.3210 N.am      2 SEC2        0.0000 
     34 N         -14.1960   29.2510   -1.5400 N.am     10 SEL2        0.0000 
     35 N         -16.5860   28.4800   -3.1020 N.am      6 SEP2        0.0000 
     36 N         -15.6055   29.9020   -1.8760 N.am      2 SEC2        0.0000 
     37 N         -17.0150   30.5530   -2.2120 N.am      6 SEP2        0.0000 
     38 CA        -11.4855   32.2325   -0.3495 C.3       4 GLC5        0.0000 
     39 CA        -12.3930   30.4530   -0.5490 C.3      12 GLL5        0.0000 
     40 CA        -10.5780   34.0120   -0.1500 C.3       8 GLP5        0.0000 
     41 CA        -11.2645   31.3050    1.0580 C.3       4 GLC5        0.0000 
     42 CA        -10.1360   32.1570    2.6650 C.3       8 GLP5        0.0000 
     43 CA        -13.8050   24.7015    0.9615 C.3       4 GLC5        0.0000 
     44 CA        -15.5590   25.5860    0.4870 C.3      12 GLL5        0.0000 
     45 CA        -12.0510   23.8170    1.4360 C.3       8 GLP5        0.0000 
     46 CA        -18.6875   24.9635    1.5530 C.3       4 GLC5        0.0000 
     47 CA        -16.5910   24.8300    1.1840 C.3      12 GLL5        0.0000 
     48 CA        -20.7840   25.0970    1.9220 C.3       8 GLP5        0.0000 
     49 O         -18.0750   23.1095    1.7280 O.2       1 ALC1        0.0000 
     50 O         -16.6620   23.5000    1.0760 O.2       9 ALL1        0.0000 
     51 O         -19.4880   22.7190    2.3800 O.2       5 ALP1        0.0000 
     52 N         -18.7040   25.3945    3.0610 N.am      2 SEC2        0.0000 
     53 N         -17.5350   25.5060    1.9540 N.am     10 SEL2        0.0000 
     54 N         -19.8730   25.2830    4.1680 N.am      6 SEP2        0.0000 
     55 CA        -19.2735   27.2150    1.7175 C.3       4 GLC5        0.0000 
     56 CA        -17.4750   26.8530    2.0720 C.3      12 GLL5        0.0000 
     57 CA        -21.0720   27.5770    1.3630 C.3       8 GLP5        0.0000 
     58 CA        -18.6775   26.1700    3.8460 C.3       4 GLC5        0.0000 
     59 CA        -19.8800   25.4870    5.6200 C.3       8 GLP5        0.0000 
     60 CA        -16.1975   25.9435    3.3355 C.3       4 GLC5        0.0000 
     61 CA        -14.9200   25.0340    4.5990 C.3       8 GLP5        0.0000 
     62 CA        -16.3360   28.3680    3.1245 C.3       4 GLC5        0.0000 
     63 CA        -15.1970   29.8830    4.1770 C.3       8 GLP5        0.0000 
     64 CA        -16.7175   26.1727   -0.8439 C.3       4 GLC5        0.0000 
     65 CA        -17.5930   26.2610   -2.4530 C.3       8 GLP5        0.0000 
     66 CA        -15.3810   25.5592    2.6821 C.3       4 GLC5        0.0000 
@<TRIPOS>BOND
@<TRIPOS>SUBSTRUCTURE
     1 ALC1       49 GROUP        1 X    ALC  0     ROOT ALC X 1
     2 SEC2        1 GROUP        1 X    SEC  0     **** SEC X 2
     3 LYC4        4 GROUP        1 X    LYC  0     **** LYC X 4
     4 GLC5       20 GROUP        1 X    GLC  0     **** GLC X 6
     5 ALP1       51 GROUP        1 Y    ALP  0     ROOT ALP Y 8
     6 SEP2        3 GROUP        1 Y    SEP  0     **** SEP Y 9
     7 LYP4        6 GROUP        1 Y    LYP  0     **** LYP Y 11
     8 GLP5       22 GROUP        1 Y    GLP  0     **** GLP Y 13
     9 ALL1       50 GROUP        1 Z    ALL  0     ROOT ALL Z 15
    10 SEL2        2 GROUP        1 Z    SEL  0     **** SEL Z 16
    11 LYL4        5 GROUP        1 Z    LYL  0     **** LYL Z 18
    12 GLL5       21 GROUP        1 Z    GLL  0     **** GLL Z 20
@<TRIPOS>SET

