#    Name: 4e07_ACP_2_ligand
#    Modification time : Mon Apr  7 23:13:43 2014

@<TRIPOS>MOLECULE
4e07_ACP_2_ligand
   45    47     1     0     0
SMALL
NO_CHARGES


@<TRIPOS>ATOM
      1 PG         -6.6080   27.0970   -5.6820 P.3       1 ACP501      0.0000 
      2 O1G        -6.3670   25.6480   -5.8330 O.co2     1 ACP501      0.0000 
      3 O2G        -5.6780   27.7820   -4.7860 O.co2     1 ACP501      0.0000 
      4 O3G        -6.6150   27.7440   -7.0450 O.co2     1 ACP501      0.0000 
      5 PB         -9.4580   27.3390   -5.9030 P.3       1 ACP501      0.0000 
      6 O1B        -9.8690   28.6690   -6.2880 O.co2     1 ACP501      0.0000 
      7 O2B       -10.0480   26.0630   -6.0970 O.co2     1 ACP501      0.0000 
      8 C3B        -8.0940   27.3390   -4.9860 C.3       1 ACP501      0.0000 
      9 PA        -10.4260   27.6330   -3.0270 P.3       1 ACP501      0.0000 
     10 O1A       -10.4220   26.2150   -2.5670 O.co2     1 ACP501      0.0000 
     11 O2A        -9.3630   28.5550   -2.4920 O.co2     1 ACP501      0.0000 
     12 O3A       -10.4150   27.6640   -4.6760 O.3       1 ACP501      0.0000 
     13 O5'       -11.8740   28.1780   -2.7050 O.3       1 ACP501      0.0000 
     14 C5'       -12.2830   29.5490   -2.9870 C.3       1 ACP501      0.0000 
     15 C4'       -13.1220   30.1690   -1.8680 C.3       1 ACP501      0.0000 
     16 O4'       -14.1960   29.2510   -1.5400 O.3       1 ACP501      0.0000 
     17 C3'       -12.3930   30.4530   -0.5490 C.3       1 ACP501      0.0000 
     18 O3'       -12.8710   31.7390   -0.1150 O.3       1 ACP501      0.0000 
     19 C2'       -12.7940   29.3100    0.3270 C.3       1 ACP501      0.0000 
     20 O2'       -12.7260   29.5980    1.7340 O.3       1 ACP501      0.0000 
     21 C1'       -14.2200   28.9300   -0.1350 C.3       1 ACP501      0.0000 
     22 N9        -14.5670   27.4760   -0.0370 N.pl3     1 ACP501      0.0000 
     23 C8        -13.9490   26.3830   -0.6160 C.2       1 ACP501      0.0000 
     24 N7        -14.4940   25.2280   -0.3370 N.2       1 ACP501      0.0000 
     25 C5        -15.5590   25.5860    0.4870 C.ar      1 ACP501      0.0000 
     26 C6        -16.5910   24.8300    1.1840 C.ar      1 ACP501      0.0000 
     27 N6        -16.6620   23.5000    1.0760 N.pl3     1 ACP501      0.0000 
     28 N1        -17.5350   25.5060    1.9540 N.ar      1 ACP501      0.0000 
     29 C2        -17.4750   26.8530    2.0720 C.ar      1 ACP501      0.0000 
     30 N3        -16.5630   27.6750    1.4730 N.ar      1 ACP501      0.0000 
     31 C4        -15.6090   26.9610    0.6950 C.ar      1 ACP501      0.0000 
     32 H          -8.0485   28.3097   -4.4532 H         1 ACP501      0.0000 
     33 H          -8.2162   26.5634   -4.2039 H         1 ACP501      0.0000 
     34 H         -12.8756   29.5958   -3.9204 H         1 ACP501      0.0000 
     35 H         -11.3991   30.1956   -3.1457 H         1 ACP501      0.0000 
     36 H         -13.5557   31.0979   -2.2238 H         1 ACP501      0.0000 
     37 H         -11.3623   30.4316   -0.7495 H         1 ACP501      0.0000 
     38 H         -12.1602   28.4546    0.0621 H         1 ACP501      0.0000 
     39 H         -14.9207   29.5376    0.3645 H         1 ACP501      0.0000 
     40 H         -13.1377   26.5079   -1.2056 H         1 ACP501      0.0000 
     41 H         -16.0068   23.0735    0.4525 H         1 ACP501      0.0000 
     42 H         -17.3641   23.0506    1.6284 H         1 ACP501      0.0000 
     43 H         -18.2172   27.3282    2.6988 H         1 ACP501      0.0000 
     44 H         -12.0534   32.3115   -0.0532 H         1 ACP501      0.0000 
     45 H         -12.9551   30.5684    1.8107 H         1 ACP501      0.0000 
@<TRIPOS>BOND
     1    2    1 ar   
     2    3    1 ar   
     3    4    1 ar   
     4    8    1 1    
     5    6    5 ar   
     6    7    5 ar   
     7    8    5 1    
     8   12    5 1    
     9   32    8 1    
    10   33    8 1    
    11   10    9 ar   
    12   11    9 ar   
    13   12    9 1    
    14   13    9 1    
    15   14   13 1    
    16   15   14 1    
    17   34   14 1    
    18   35   14 1    
    19   16   15 1    
    20   17   15 1    
    21   36   15 1    
    22   21   16 1    
    23   18   17 1    
    24   19   17 1    
    25   37   17 1    
    26   44   18 1    
    27   20   19 1    
    28   21   19 1    
    29   38   19 1    
    30   45   20 1    
    31   22   21 1    
    32   39   21 1    
    33   23   22 1    
    34   31   22 1    
    35   24   23 2    
    36   40   23 1    
    37   25   24 1    
    38   26   25 ar   
    39   31   25 ar   
    40   27   26 1    
    41   28   26 ar   
    42   41   27 1    
    43   42   27 1    
    44   29   28 ar   
    45   30   29 ar   
    46   43   29 1    
    47   31   30 ar   
@<TRIPOS>SUBSTRUCTURE
     1 ACP501      1 GROUP   
@<TRIPOS>SET

