#    Name: 1utz_PF3_1_INTS_M
#    Modification time : Tue Mar 25 07:05:11 2014

@<TRIPOS>MOLECULE
1utz_PF3_1_INTS_M
   72     0     6     0     0
SMALL
NO_CHARGES


@<TRIPOS>ATOM
      1 CA         42.9305   55.1045   21.1985 C.3       2 GLC5        0.0000 
      2 CA         42.5820   53.4910   19.9380 C.3       6 GLL5        0.0000 
      3 CA         43.2790   56.7180   22.4590 C.3       4 GLP5        0.0000 
      4 CA         44.6045   53.6285   20.8510 C.3       2 GLC5        0.0000 
      5 CA         46.6270   53.7660   21.7640 C.3       4 GLP5        0.0000 
      6 CA         41.7170   52.4415   22.3955 C.3       2 GLC5        0.0000 
      7 CA         41.2300   52.4950   20.4380 C.3       6 GLL5        0.0000 
      8 CA         42.2040   52.3880   24.3530 C.3       4 GLP5        0.0000 
      9 CA         36.9345   53.5765   17.9975 C.3       2 GLC5        0.0000 
     10 CA         37.7910   52.1620   19.3670 C.3       6 GLL5        0.0000 
     11 CA         36.0780   54.9910   16.6280 C.3       4 GLP5        0.0000 
     12 CA         37.8590   54.0290   21.4650 C.3       2 GLC5        0.0000 
     13 CA         38.3890   52.1710   21.7290 C.3       6 GLL5        0.0000 
     14 CA         37.3290   55.8870   21.2010 C.3       4 GLP5        0.0000 
     15 CA         35.1965   50.9215   24.6085 C.3       2 GLC5        0.0000 
     16 CA         34.2900   50.9980   22.7380 C.3       6 GLL5        0.0000 
     17 CA         36.1030   50.8450   26.4790 C.3       4 GLP5        0.0000 
     18 CA         33.5095   50.0250   24.9970 C.3       2 GLC5        0.0000 
     19 CA         33.0140   50.5000   23.0590 C.3       6 GLL5        0.0000 
     20 CA         34.0050   49.5500   26.9350 C.3       4 GLP5        0.0000 
     21 CA         31.6575   50.3515   24.6755 C.3       2 GLC5        0.0000 
     22 CA         30.3010   50.2030   26.2920 C.3       4 GLP5        0.0000 
     23 CA         31.2245   50.8125   20.8715 C.3       2 GLC5        0.0000 
     24 CA         32.7210   49.6980   20.8960 C.3       6 GLL5        0.0000 
     25 CA         29.7280   51.9270   20.8470 C.3       4 GLP5        0.0000 
     26 N          43.9285   56.8025   19.6985 N.am      1 SEC2        0.0000 
     27 N          43.0770   56.2570   18.7590 N.am      5 SEL2        0.0000 
     28 N          44.7800   57.3480   20.6380 N.am      3 SEP2        0.0000 
     29 N          37.1330   56.5010   18.4890 N.am      1 SEC2        0.0000 
     30 N          37.8640   57.6130   17.9960 N.am      5 SEL2        0.0000 
     31 N          36.4020   55.3890   18.9820 N.am      3 SEP2        0.0000 
     32 CA         43.2325   60.6290   16.8865 C.3       2 GLC5        0.0000 
     33 CA         42.4630   59.3120   15.4420 C.3       6 GLL5        0.0000 
     34 CA         44.0020   61.9460   18.3310 C.3       4 GLP5        0.0000 
     35 CA         40.8438   55.8028   20.6597 C.3       2 GLC5        0.0000 
     36 CA         40.1980   54.2890   19.3660 C.3       6 GLL5        0.0000 
     37 CA         40.8480   57.1340   22.0280 C.3       4 GLP5        0.0000 
     38 CA         38.7250   54.7700   20.4627 C.3       2 GLC5        0.0000 
     39 CA         41.1205   51.1975   19.7353 C.3       2 GLC5        0.0000 
     40 CA         40.0440   53.0170   20.0830 C.3       6 GLL5        0.0000 
     41 CA         41.2660   49.3900   19.3350 C.3       4 GLP5        0.0000 
     42 CA         37.2270   53.7643   20.1440 C.3       2 GLC5        0.0000 
     43 CA         38.7370   52.4390   20.3830 C.3       6 GLL5        0.0000 
     44 CA         36.1900   55.2280   20.4130 C.3       4 GLP5        0.0000 
     45 CA         38.7530   50.4881   19.8627 C.3       2 GLC5        0.0000 
     46 CA         40.1120   49.0080   19.9350 C.3       4 GLP5        0.0000 
     47 CA         39.0273   51.4023   23.4813 C.3       2 GLC5        0.0000 
     48 CA         37.1280   51.6480   22.0560 C.3       6 GLL5        0.0000 
     49 CA         40.2960   50.8950   25.0700 C.3       4 GLP5        0.0000 
     50 CA         38.7933   50.2423   21.6183 C.3       2 GLC5        0.0000 
     51 CA         39.8280   48.5750   21.3440 C.3       4 GLP5        0.0000 
     52 CA         36.4633   53.4021   20.8160 C.3       2 GLC5        0.0000 
     53 CA         35.1842   48.9060   21.9802 C.3       2 GLC5        0.0000 
     54 CA         34.7990   50.8340   21.4270 C.3       6 GLL5        0.0000 
     55 CA         35.8240   46.8960   21.8780 C.3       4 GLP5        0.0000 
     56 CA         32.5636   52.2115   22.0894 C.3       2 GLC5        0.0000 
     57 CA         31.3480   53.7150   21.6080 C.3       4 GLP5        0.0000 
     58 CA         33.9895   48.4235   20.1813 C.3       2 GLC5        0.0000 
     59 CA         34.6240   46.9130   19.6670 C.3       4 GLP5        0.0000 
     60 CA         43.9177   58.5797   17.1803 C.3       2 GLC5        0.0000 
     61 CA         42.1620   58.0270   16.0130 C.3       6 GLL5        0.0000 
     62 CA         45.5230   58.4900   18.6330 C.3       4 GLP5        0.0000 
     63 CA         45.1393   58.4797   15.2310 C.3       2 GLC5        0.0000 
     64 CA         43.3000   59.4390   14.3080 C.3       6 GLL5        0.0000 
     65 CA         46.7000   58.0990   16.4510 C.3       4 GLP5        0.0000 
     66 CA         44.8473   60.3627   13.7305 C.3       2 GLC5        0.0000 
     67 CA         43.8570   58.2820   13.7140 C.3       6 GLL5        0.0000 
     68 CA         46.1160   61.8650   13.4500 C.3       4 GLP5        0.0000 
     69 CA         44.9278   57.5240   15.6368 C.3       2 GLC5        0.0000 
     70 CA         43.5730   57.0120   14.2550 C.3       6 GLL5        0.0000 
     71 CA         42.9169   57.7576   12.3450 C.3       2 GLC5        0.0000 
     72 CA         42.2580   57.5790   10.5570 C.3       4 GLP5        0.0000 
@<TRIPOS>BOND
@<TRIPOS>SUBSTRUCTURE
     1 SEC2       26 GROUP        1 X    SEC  0     ROOT SEC X 2
     2 GLC5        1 GROUP        1 X    GLC  0     **** GLC X 6
     3 SEP2       28 GROUP        1 Y    SEP  0     ROOT SEP Y 9
     4 GLP5        3 GROUP        1 Y    GLP  0     **** GLP Y 13
     5 SEL2       27 GROUP        1 Z    SEL  0     ROOT SEL Z 16
     6 GLL5        2 GROUP        1 Z    GLL  0     **** GLL Z 20
@<TRIPOS>SET

