#    Name: 1utz_PF3_1_ligand
#    Modification time : Tue Mar 25 07:05:11 2014

@<TRIPOS>MOLECULE
1utz_PF3_1_ligand
   50    53     1     0     0
SMALL
NO_CHARGES


@<TRIPOS>ATOM
      1 S1         42.5820   53.4910   19.9380 S.3       1 PF31265     0.0000 
      2 C1         41.4810   54.6540   19.2170 C.2       1 PF31265     0.0000 
      3 C2         40.1980   54.2890   19.3660 C.2       1 PF31265     0.0000 
      4 C3         40.0440   53.0170   20.0830 C.2       1 PF31265     0.0000 
      5 C4         41.2300   52.4950   20.4380 C.2       1 PF31265     0.0000 
      6 C5         38.7370   52.4390   20.3830 C.ar      1 PF31265     0.0000 
      7 C6         37.7910   52.1620   19.3670 C.ar      1 PF31265     0.0000 
      8 C7         36.5240   51.6360   19.7060 C.ar      1 PF31265     0.0000 
      9 C8         36.1660   51.3730   21.0580 C.ar      1 PF31265     0.0000 
     10 C9         37.1280   51.6480   22.0560 C.ar      1 PF31265     0.0000 
     11 C10        38.3890   52.1710   21.7290 C.ar      1 PF31265     0.0000 
     12 C11        34.7990   50.8340   21.4270 C.ar      1 PF31265     0.0000 
     13 C12        34.2900   50.9980   22.7380 C.ar      1 PF31265     0.0000 
     14 C13        33.0140   50.5000   23.0590 C.ar      1 PF31265     0.0000 
     15 N1         32.2270   49.8540   22.1570 N.ar      1 PF31265     0.0000 
     16 C14        32.7210   49.6980   20.8960 C.ar      1 PF31265     0.0000 
     17 C15        33.9890   50.1700   20.4950 C.ar      1 PF31265     0.0000 
     18 C16        41.9130   55.9150   18.5690 C.2       1 PF31265     0.0000 
     19 O1         43.0770   56.2570   18.7590 O.2       1 PF31265     0.0000 
     20 N2         41.0010   56.6360   17.8630 N.am      1 PF31265     0.0000 
     21 C17        41.2460   57.9580   17.2620 C.3       1 PF31265     0.0000 
     22 C18        39.8250   58.4840   16.9140 C.3       1 PF31265     0.0000 
     23 C19        38.8120   58.3910   18.0910 C.2       1 PF31265     0.0000 
     24 O2         38.9940   59.0840   19.0880 O.co2     1 PF31265     0.0000 
     25 O3         37.8640   57.6130   17.9960 O.co2     1 PF31265     0.0000 
     26 C20        42.1620   58.0270   16.0130 C.ar      1 PF31265     0.0000 
     27 C21        42.4630   59.3120   15.4420 C.ar      1 PF31265     0.0000 
     28 C22        43.3000   59.4390   14.3080 C.ar      1 PF31265     0.0000 
     29 C23        43.8570   58.2820   13.7140 C.ar      1 PF31265     0.0000 
     30 C24        43.5730   57.0120   14.2550 C.ar      1 PF31265     0.0000 
     31 C25        42.7380   56.8860   15.3900 C.ar      1 PF31265     0.0000 
     32 H          39.4073   54.7703   19.0558 H         1 PF31265     0.0000 
     33 H          41.5166   51.7248   20.8900 H         1 PF31265     0.0000 
     34 H          38.0250   52.3425   18.3905 H         1 PF31265     0.0000 
     35 H          35.8414   51.4371   18.9611 H         1 PF31265     0.0000 
     36 H          36.8951   51.4593   23.0431 H         1 PF31265     0.0000 
     37 H          39.0721   52.3637   22.4725 H         1 PF31265     0.0000 
     38 H          34.8493   51.4759   23.4440 H         1 PF31265     0.0000 
     39 H          32.6721   50.6428   24.0419 H         1 PF31265     0.0000 
     40 H          32.1415   49.2023   20.1692 H         1 PF31265     0.0000 
     41 H          34.3081   50.0279   19.5392 H         1 PF31265     0.0000 
     42 H          40.0259   56.2550   17.7090 H         1 PF31265     0.0000 
     43 H          41.6280   58.6427   18.0214 H         1 PF31265     0.0000 
     44 H          39.4338   57.9083   16.0670 H         1 PF31265     0.0000 
     45 H          39.9041   59.5314   16.6000 H         1 PF31265     0.0000 
     46 H          42.0567   60.1505   15.8739 H         1 PF31265     0.0000 
     47 H          43.5005   60.3593   13.9212 H         1 PF31265     0.0000 
     48 H          44.4613   58.3692   12.8977 H         1 PF31265     0.0000 
     49 H          43.9730   56.1725   13.8249 H         1 PF31265     0.0000 
     50 H          42.5420   55.9526   15.7742 H         1 PF31265     0.0000 
@<TRIPOS>BOND
     1    2    1 1    
     2    5    1 1    
     3    3    2 2    
     4   18    2 1    
     5    4    3 1    
     6   32    3 1    
     7    5    4 2    
     8    6    4 1    
     9   33    5 1    
    10    7    6 ar   
    11   11    6 ar   
    12    8    7 ar   
    13   34    7 1    
    14    9    8 ar   
    15   35    8 1    
    16   10    9 ar   
    17   12    9 1    
    18   11   10 ar   
    19   36   10 1    
    20   37   11 1    
    21   13   12 ar   
    22   17   12 ar   
    23   14   13 ar   
    24   38   13 1    
    25   15   14 ar   
    26   39   14 1    
    27   16   15 ar   
    28   17   16 ar   
    29   40   16 1    
    30   41   17 1    
    31   19   18 2    
    32   20   18 am   
    33   21   20 1    
    34   42   20 1    
    35   22   21 1    
    36   26   21 1    
    37   43   21 1    
    38   23   22 1    
    39   44   22 1    
    40   45   22 1    
    41   24   23 ar   
    42   25   23 ar   
    43   27   26 ar   
    44   31   26 ar   
    45   28   27 ar   
    46   46   27 1    
    47   29   28 ar   
    48   47   28 1    
    49   30   29 ar   
    50   48   29 1    
    51   31   30 ar   
    52   49   30 1    
    53   50   31 1    
@<TRIPOS>SUBSTRUCTURE
     1 PF31265     1 GROUP   
@<TRIPOS>SET

