#    Name: 1d7x_SPC_1_INTS_M
#    Modification time : Mon Mar 24 21:34:12 2014

@<TRIPOS>MOLECULE
1d7x_SPC_1_INTS_M
   57     0    12     0     0
SMALL
NO_CHARGES


@<TRIPOS>ATOM
      1 CA         -7.3690   18.0870   26.9835 C.3       4 GLC5        0.0000 
      2 CA         -7.6680   18.5440   29.1250 C.3      12 GLL5        0.0000 
      3 CA         -7.0700   17.6300   24.8420 C.3       8 GLP5        0.0000 
      4 CA         -8.7880   17.3620   30.4085 C.3       4 GLC5        0.0000 
      5 CA         -9.9080   16.1800   31.6920 C.3       8 GLP5        0.0000 
      6 CA         -8.2530   16.3185   29.9870 C.3       4 GLC5        0.0000 
      7 CA         -6.7950   17.4910   29.3700 C.3      12 GLL5        0.0000 
      8 CA         -9.7110   15.1460   30.6040 C.3       8 GLP5        0.0000 
      9 CA         -5.7030   17.8050   32.2730 C.3       4 GLC5        0.0000 
     10 CA         -5.6190   17.7980   30.0800 C.3      12 GLL5        0.0000 
     11 CA         -5.7870   17.8120   34.4660 C.3       8 GLP5        0.0000 
     12 N          -8.6920   22.8055   31.3890 N.am      2 SEC2        0.0000 
     13 N          -8.0990   22.1470   30.4020 N.am     10 SEL2        0.0000 
     14 N          -9.2850   23.4640   32.3760 N.am      6 SEP2        0.0000 
     15 N          -7.3605   23.0610   31.6515 N.am      2 SEC2        0.0000 
     16 N          -6.6220   23.9750   32.9010 N.am      6 SEP2        0.0000 
     17 CA         -4.4585   14.1300   31.7460 C.3       4 GLC5        0.0000 
     18 CA         -4.8960   15.5630   30.1320 C.3      12 GLL5        0.0000 
     19 CA         -4.0210   12.6970   33.3600 C.3       8 GLP5        0.0000 
     20 CA         -3.3405   16.4235   30.0120 C.3       4 GLC5        0.0000 
     21 CA         -1.7850   17.2840   29.8920 C.3       8 GLP5        0.0000 
     22 CA         -3.0375   14.3240   30.1560 C.3       4 GLC5        0.0000 
     23 CA         -1.1790   13.0850   30.1800 C.3       8 GLP5        0.0000 
     24 Zn         -6.1695   21.7480   27.2660 Zn        3 ZIC7        0.0000 
     25 Zn         -8.4230   21.9630   27.9720 Zn       11 ZIL7        0.0000 
     26 Zn         -3.9160   21.5330   26.5600 Zn        7 ZIP7        0.0000 
     27 Zn         -4.8065   21.4625   26.6475 Zn        3 ZIC7        0.0000 
     28 Zn         -5.6970   21.3920   26.7350 Zn       11 ZIL7        0.0000 
     29 O          -5.1365   23.6725   29.4375 O.2       1 ALC1        0.0000 
     30 O          -5.0010   22.9310   28.1830 O.2       9 ALL1        0.0000 
     31 O          -5.2720   24.4140   30.6920 O.2       5 ALP1        0.0000 
     32 Zn         -3.8090   21.9345   27.3045 Zn        3 ZIC7        0.0000 
     33 Zn         -3.7020   22.3360   28.0490 Zn       11 ZIL7        0.0000 
     34 O          -2.6730   22.8690   29.2870 O.2       1 ALC1        0.0000 
     35 O          -3.7020   22.3360   28.0490 O.2       9 ALL1        0.0000 
     36 O          -1.6440   23.4020   30.5250 O.2       5 ALP1        0.0000 
     37 O          -3.3580   22.0145   29.3620 O.2       1 ALC1        0.0000 
     38 O          -3.0140   21.6930   30.6750 O.2       5 ALP1        0.0000 
     39 CA         -7.9600   20.0050   25.3310 C.3       4 GLC5        0.0000 
     40 CA         -8.6680   21.2070   26.7480 C.3      12 GLL5        0.0000 
     41 CA         -7.2520   18.8030   23.9140 C.3       8 GLP5        0.0000 
     42 CA         -8.0270   20.4895   23.0195 C.3       4 GLC5        0.0000 
     43 CA         -8.8020   22.1760   22.1250 C.3      12 GLL5        0.0000 
     44 CA        -10.4650   22.4300   20.9945 C.3       4 GLC5        0.0000 
     45 CA        -12.1280   22.6840   19.8640 C.3       8 GLP5        0.0000 
     46 CA         -8.4262   16.9002   28.0808 C.3       4 GLC5        0.0000 
     47 CA         -9.6210   15.7830   26.9140 C.3       8 GLP5        0.0000 
     48 CA         -4.2985   17.8042   29.2060 C.3       4 GLC5        0.0000 
     49 CA         -2.3900   17.9640   28.6870 C.3       8 GLP5        0.0000 
     50 CA         -5.0650   19.6997   32.1760 C.3       4 GLC5        0.0000 
     51 CA         -5.3240   19.0830   30.4720 C.3      12 GLL5        0.0000 
     52 CA         -4.3740   19.7970   34.0040 C.3       8 GLP5        0.0000 
     53 CA         -4.1655   19.4347   29.3805 C.3       4 GLC5        0.0000 
     54 CA         -2.5750   19.2670   28.4130 C.3       8 GLP5        0.0000 
     55 CA         -8.2027   19.4913   31.3840 C.3       4 GLC5        0.0000 
     56 CA         -6.1880   20.1220   30.2240 C.3      12 GLL5        0.0000 
     57 CA         -9.5490   19.3300   32.9750 C.3       8 GLP5        0.0000 
@<TRIPOS>BOND
@<TRIPOS>SUBSTRUCTURE
     1 ALC1       29 GROUP        1 X    ALC  0     ROOT ALC X 1
     2 SEC2       12 GROUP        1 X    SEC  0     **** SEC X 2
     3 ZIC7       24 GROUP        1 X    ZIC  0     **** ZIC X 5
     4 GLC5        1 GROUP        1 X    GLC  0     **** GLC X 6
     5 ALP1       31 GROUP        1 Y    ALP  0     ROOT ALP Y 8
     6 SEP2       14 GROUP        1 Y    SEP  0     **** SEP Y 9
     7 ZIP7       26 GROUP        1 Y    ZIP  0     **** ZIP Y 12
     8 GLP5        3 GROUP        1 Y    GLP  0     **** GLP Y 13
     9 ALL1       30 GROUP        1 Z    ALL  0     ROOT ALL Z 15
    10 SEL2       13 GROUP        1 Z    SEL  0     **** SEL Z 16
    11 ZIL7       25 GROUP        1 Z    ZIL  0     **** ZIL Z 19
    12 GLL5        2 GROUP        1 Z    GLL  0     **** GLL Z 20
@<TRIPOS>SET

