#    Name: 1d7x_SPC_1_ligand
#    Modification time : Mon Mar 24 21:34:12 2014

@<TRIPOS>MOLECULE
1d7x_SPC_1_ligand
   40    41     1     0     0
SMALL
NO_CHARGES


@<TRIPOS>ATOM
      1 C1         -7.3820   19.8220   29.5990 C.ar      1 SPC401      0.0000 
      2 C2         -7.6680   18.5440   29.1250 C.ar      1 SPC401      0.0000 
      3 C3         -6.7950   17.4910   29.3700 C.ar      1 SPC401      0.0000 
      4 C4         -5.6190   17.7980   30.0800 C.ar      1 SPC401      0.0000 
      5 C5         -5.3240   19.0830   30.4720 C.ar      1 SPC401      0.0000 
      6 C6         -6.1880   20.1220   30.2240 C.ar      1 SPC401      0.0000 
      7 S11        -8.5320   21.1450   29.4850 S.o2      1 SPC401      0.0000 
      8 O12        -8.0990   22.1470   30.4020 O.2       1 SPC401      0.0000 
      9 O13        -9.8640   20.6850   29.5540 O.2       1 SPC401      0.0000 
     10 O35        -4.6360   16.9020   30.4630 O.3       1 SPC401      0.0000 
     11 C8         -4.8960   15.5630   30.1320 C.3       1 SPC401      0.0000 
     12 N14        -8.4230   21.9630   27.9720 N.pl3     1 SPC401      0.0000 
     13 C15        -7.4260   22.9860   27.6760 C.3       1 SPC401      0.0000 
     14 C16        -7.8810   23.5690   26.3330 C.3       1 SPC401      0.0000 
     15 C17        -8.4580   22.3190   25.6960 C.2       1 SPC401      0.0000 
     16 C29        -5.9900   22.3400   27.4770 C.2       1 SPC401      0.0000 
     17 O31        -5.6970   21.3920   26.7350 O.2       1 SPC401      0.0000 
     18 N32        -5.0010   22.9310   28.1830 N.am      1 SPC401      0.0000 
     19 O33        -3.7020   22.3360   28.0490 O.3       1 SPC401      0.0000 
     20 C18        -8.6680   21.2070   26.7480 C.3       1 SPC401      0.0000 
     21 N23        -8.8900   22.1590   24.4180 N.2       1 SPC401      0.0000 
     22 O24        -8.7660   22.9420   23.2870 O.3       1 SPC401      0.0000 
     23 C25        -8.8020   22.1760   22.1250 C.3       1 SPC401      0.0000 
     24 H          -8.5333   18.3796   28.5891 H         1 SPC401      0.0000 
     25 H          -6.9852   16.5570   29.0604 H         1 SPC401      0.0000 
     26 H          -4.4260   19.2718   30.9676 H         1 SPC401      0.0000 
     27 H          -5.9601   21.0752   30.4890 H         1 SPC401      0.0000 
     28 H          -7.3833   23.7346   28.3888 H         1 SPC401      0.0000 
     29 H          -7.0496   23.9016   25.7935 H         1 SPC401      0.0000 
     30 H          -8.6339   24.2765   26.4930 H         1 SPC401      0.0000 
     31 H          -5.1233   23.7287   28.7697 H         1 SPC401      0.0000 
     32 H          -9.6638   20.8705   26.6840 H         1 SPC401      0.0000 
     33 H          -7.9425   20.4596   26.5933 H         1 SPC401      0.0000 
     34 H          -4.1594   14.9566   30.4315 H         1 SPC401      0.0000 
     35 H          -5.7388   15.2324   30.5567 H         1 SPC401      0.0000 
     36 H          -4.9962   15.4371   29.1450 H         1 SPC401      0.0000 
     37 H          -8.7097   22.7407   21.3049 H         1 SPC401      0.0000 
     38 H          -8.0636   21.5021   22.1014 H         1 SPC401      0.0000 
     39 H          -9.6615   21.6722   22.0388 H         1 SPC401      0.0000 
     40 H          -3.4508   22.0522   28.9744 H         1 SPC401      0.0000 
@<TRIPOS>BOND
     1    2    1 ar   
     2    6    1 ar   
     3    7    1 1    
     4    3    2 ar   
     5   24    2 1    
     6    4    3 ar   
     7   25    3 1    
     8    5    4 ar   
     9   10    4 1    
    10    6    5 ar   
    11   26    5 1    
    12   27    6 1    
    13    8    7 2    
    14    9    7 2    
    15   12    7 1    
    16   11   10 1    
    17   34   11 1    
    18   35   11 1    
    19   36   11 1    
    20   13   12 1    
    21   20   12 1    
    22   14   13 1    
    23   16   13 1    
    24   28   13 1    
    25   15   14 1    
    26   29   14 1    
    27   30   14 1    
    28   20   15 1    
    29   21   15 2    
    30   17   16 2    
    31   18   16 am   
    32   19   18 1    
    33   31   18 1    
    34   40   19 1    
    35   32   20 1    
    36   33   20 1    
    37   22   21 1    
    38   23   22 1    
    39   37   23 1    
    40   38   23 1    
    41   39   23 1    
@<TRIPOS>SUBSTRUCTURE
     1 SPC401      1 GROUP   
@<TRIPOS>SET

