#    Name: 4lde_P0G_1_INTS_M
#    Modification time : Mon Apr  7 23:58:47 2014

@<TRIPOS>MOLECULE
4lde_P0G_1_INTS_M
   74     0    12     0     0
SMALL
NO_CHARGES


@<TRIPOS>ATOM
      1 CA         -7.7230   -9.9435  -53.9665 C.3       4 GLC5        0.0000 
      2 CA         -6.3930  -10.9150  -54.3170 C.3      12 GLL5        0.0000 
      3 CA         -9.0530   -8.9720  -53.6160 C.3       8 GLP5        0.0000 
      4 CA         -3.6030   -9.0935  -52.0650 C.3       4 GLC5        0.0000 
      5 CA         -4.1990  -10.9320  -51.5830 C.3      12 GLL5        0.0000 
      6 CA         -3.0070   -7.2550  -52.5470 C.3       8 GLP5        0.0000 
      7 CA         -4.8545  -10.0140  -49.8495 C.3       4 GLC5        0.0000 
      8 CA         -5.5100   -9.0960  -48.1160 C.3       8 GLP5        0.0000 
      9 CA         -3.0140  -10.6685  -52.9925 C.3       4 GLC5        0.0000 
     10 CA         -1.8290  -10.4050  -54.4020 C.3       8 GLP5        0.0000 
     11 CA         -3.0175  -15.1290  -53.0800 C.3       4 GLC5        0.0000 
     12 CA         -3.6790  -13.2360  -52.3870 C.3      12 GLL5        0.0000 
     13 CA         -2.3560  -17.0220  -53.7730 C.3       8 GLP5        0.0000 
     14 N           3.3525  -15.0495  -50.4510 N.am      2 SEC2        0.0000 
     15 N           3.3130  -13.7080  -50.6370 N.am     10 SEL2        0.0000 
     16 N           3.3920  -16.3910  -50.2650 N.am      6 SEP2        0.0000 
     17 O           2.5840  -11.6015  -45.0825 O.2       1 ALC1        0.0000 
     18 O           2.3100  -12.0060  -46.3940 O.2       9 ALL1        0.0000 
     19 O           2.8580  -11.1970  -43.7710 O.2       5 ALP1        0.0000 
     20 N          -4.4370  -14.9560  -47.6475 N.am      2 SEC2        0.0000 
     21 N          -3.6560  -13.7040  -47.5430 N.am     10 SEL2        0.0000 
     22 N          -5.2180  -16.2080  -47.7520 N.am      6 SEP2        0.0000 
     23 O          -4.3320  -12.4715  -47.3555 O.2       1 ALC1        0.0000 
     24 O          -3.6560  -13.7040  -47.5430 O.2       9 ALL1        0.0000 
     25 O          -5.0080  -11.2390  -47.1680 O.2       5 ALP1        0.0000 
     26 CA         -7.7960  -16.2670  -55.9540 C.3       4 GLC5        0.0000 
     27 CA         -6.8570  -14.4100  -55.6420 C.3      12 GLL5        0.0000 
     28 CA         -8.7350  -18.1240  -56.2660 C.3       8 GLP5        0.0000 
     29 CA         -7.2390  -16.8700  -54.8455 C.3       4 GLC5        0.0000 
     30 CA         -6.7100  -15.1850  -54.4970 C.3      12 GLL5        0.0000 
     31 CA         -7.7680  -18.5550  -55.1940 C.3       8 GLP5        0.0000 
     32 CA         -6.2655  -12.3480  -57.5040 C.3       4 GLC5        0.0000 
     33 CA         -6.7550  -13.0270  -55.5730 C.3      12 GLL5        0.0000 
     34 CA         -5.7760  -11.6690  -59.4350 C.3       8 GLP5        0.0000 
     35 CA         -1.5035  -10.7020  -46.4410 C.3       4 GLC5        0.0000 
     36 CA         -1.2710  -12.7100  -46.6820 C.3      12 GLL5        0.0000 
     37 CA         -1.7360   -8.6940  -46.2000 C.3       8 GLP5        0.0000 
     38 CA          0.5545  -13.1115  -52.0675 C.3       4 GLC5        0.0000 
     39 CA          0.9630  -14.1150  -50.6270 C.3      12 GLL5        0.0000 
     40 CA          0.1460  -12.1080  -53.5080 C.3       8 GLP5        0.0000 
     41 CA         -0.2450  -15.5045  -50.0955 C.3       4 GLC5        0.0000 
     42 CA         -1.4530  -16.8940  -49.5640 C.3       8 GLP5        0.0000 
     43 CA         -4.3640  -10.7175  -48.7820 C.3       4 GLC5        0.0000 
     44 CA         -3.2180  -12.3390  -49.4480 C.3      12 GLL5        0.0000 
     45 CA         -2.0970  -10.6245  -49.0125 C.3       4 GLC5        0.0000 
     46 CA         -0.9760   -8.9100  -48.5770 C.3       8 GLP5        0.0000 
     47 CA         -7.8085  -11.2985  -52.3555 C.3       4 GLC5        0.0000 
     48 CA         -6.0810  -12.5560  -51.8590 C.3      12 GLL5        0.0000 
     49 CA         -9.5360  -10.0410  -52.8520 C.3       8 GLP5        0.0000 
     50 OD1        -4.7080  -12.0200  -48.6495 O.co2     3 ASC3        0.0000 
     51 OD1        -4.4080  -12.8010  -50.1310 O.co2    11 ASL3        0.0000 
     52 OD1        -5.0080  -11.2390  -47.1680 O.co2     7 ASP3        0.0000 
     53 OD1        -5.3640  -11.9945  -49.5235 O.co2     3 ASC3        0.0000 
     54 OD1        -6.3200  -11.1880  -48.9160 O.co2     7 ASP3        0.0000 
     55 O           3.5270  -12.2005  -48.9390 O.2       1 ALC1        0.0000 
     56 O           2.1330  -12.7220  -49.0170 O.2       9 ALL1        0.0000 
     57 O           4.9210  -11.6790  -48.8610 O.2       5 ALP1        0.0000 
     58 CA         -2.0700  -15.1790  -49.0705 C.3       4 GLC5        0.0000 
     59 CA         -2.6870  -13.4640  -48.5770 C.3      12 GLL5        0.0000 
     60 CA         -2.9810  -12.2705  -53.3863 C.3       4 GLC5        0.0000 
     61 CA         -1.8220  -11.7230  -54.8250 C.3       8 GLP5        0.0000 
     62 CA         -1.2615  -12.9328  -44.7110 C.3       4 GLC5        0.0000 
     63 CA         -0.0430  -12.3510  -46.1340 C.3      12 GLL5        0.0000 
     64 CA         -1.8660  -13.3350  -43.0140 C.3       8 GLP5        0.0000 
     65 CA          1.7860  -12.4350  -44.9098 C.3       4 GLC5        0.0000 
     66 CA          3.0420  -12.5160  -43.2920 C.3       8 GLP5        0.0000 
     67 CA         -4.6771  -12.4956  -54.9146 C.3       4 GLC5        0.0000 
     68 CA         -6.3450  -13.1880  -53.2080 C.3      12 GLL5        0.0000 
     69 CA         -2.8810  -12.2240  -55.7480 C.3       8 GLP5        0.0000 
     70 CA         -0.8790  -10.9955  -48.4928 C.3       4 GLC5        0.0000 
     71 CA         -0.2010  -13.0860  -48.7970 C.3      12 GLL5        0.0000 
     72 CA          0.7452  -10.6807  -47.0714 C.3       4 GLC5        0.0000 
     73 CA          1.0190  -12.7270  -48.2480 C.3      12 GLL5        0.0000 
     74 CA          0.7160   -8.8210  -46.7550 C.3       8 GLP5        0.0000 
@<TRIPOS>BOND
@<TRIPOS>SUBSTRUCTURE
     1 ALC1       17 GROUP        1 X    ALC  0     ROOT ALC X 1
     2 SEC2       14 GROUP        1 X    SEC  0     **** SEC X 2
     3 ASC3       50 GROUP        1 X    ASC  0     **** ASC X 3
     4 GLC5        1 GROUP        1 X    GLC  0     **** GLC X 6
     5 ALP1       19 GROUP        1 Y    ALP  0     ROOT ALP Y 8
     6 SEP2       16 GROUP        1 Y    SEP  0     **** SEP Y 9
     7 ASP3       52 GROUP        1 Y    ASP  0     **** ASP Y 10
     8 GLP5        3 GROUP        1 Y    GLP  0     **** GLP Y 13
     9 ALL1       18 GROUP        1 Z    ALL  0     ROOT ALL Z 15
    10 SEL2       15 GROUP        1 Z    SEL  0     **** SEL Z 16
    11 ASL3       51 GROUP        1 Z    ASL  0     **** ASL Z 17
    12 GLL5        2 GROUP        1 Z    GLL  0     **** GLL Z 20
@<TRIPOS>SET

