#    Name: 4lde_P0G_1_ligand
#    Modification time : Mon Apr  7 23:58:47 2014

@<TRIPOS>MOLECULE
4lde_P0G_1_ligand
   52    54     1     0     0
SMALL
NO_CHARGES


@<TRIPOS>ATOM
      1 CAA        -6.3930  -10.9150  -54.3170 C.3       1 P0G1401     0.0000 
      2 CAB        -4.1990  -10.9320  -51.5830 C.3       1 P0G1401     0.0000 
      3 CAC        -3.6790  -13.2360  -52.3870 C.3       1 P0G1401     0.0000 
      4 OAD         3.3130  -13.7080  -50.6370 O.2       1 P0G1401     0.0000 
      5 OAE         2.3100  -12.0060  -46.3940 O.3       1 P0G1401     0.0000 
      6 OAF        -3.6560  -13.7040  -47.5430 O.3       1 P0G1401     0.0000 
      7 CAG        -6.8570  -14.4100  -55.6420 C.ar      1 P0G1401     0.0000 
      8 CAH        -6.7100  -15.1850  -54.4970 C.ar      1 P0G1401     0.0000 
      9 CAI        -6.7550  -13.0270  -55.5730 C.ar      1 P0G1401     0.0000 
     10 CAJ        -6.4670  -14.5730  -53.2810 C.ar      1 P0G1401     0.0000 
     11 CAK        -0.0430  -12.3510  -46.1340 C.ar      1 P0G1401     0.0000 
     12 CAL        -1.2710  -12.7100  -46.6820 C.ar      1 P0G1401     0.0000 
     13 CAM         0.9630  -14.1150  -50.6270 C.3       1 P0G1401     0.0000 
     14 CAN        -3.2180  -12.3390  -49.4480 C.3       1 P0G1401     0.0000 
     15 CAO        -6.0810  -12.5560  -51.8590 C.3       1 P0G1401     0.0000 
     16 NAP        -4.4080  -12.8010  -50.1310 N.4       1 P0G1401     0.0000 
     17 NAQ         2.1330  -12.7220  -49.0170 N.am      1 P0G1401     0.0000 
     18 OAR        -0.1890  -13.4310  -50.1220 O.3       1 P0G1401     0.0000 
     19 CAS         2.2400  -13.4960  -50.0930 C.2       1 P0G1401     0.0000 
     20 CAT        -6.5020  -12.4160  -54.3540 C.ar      1 P0G1401     0.0000 
     21 CAU         1.1030  -12.3570  -46.9210 C.ar      1 P0G1401     0.0000 
     22 CAV        -6.3450  -13.1880  -53.2080 C.ar      1 P0G1401     0.0000 
     23 CAW        -1.3630  -13.0760  -48.0200 C.ar      1 P0G1401     0.0000 
     24 CAX         1.0190  -12.7270  -48.2480 C.ar      1 P0G1401     0.0000 
     25 CAY        -0.2010  -13.0860  -48.7970 C.ar      1 P0G1401     0.0000 
     26 CAZ        -2.6870  -13.4640  -48.5770 C.3       1 P0G1401     0.0000 
     27 CBA        -4.6010  -12.4000  -51.5080 C.3       1 P0G1401     0.0000 
     28 H          -7.0431  -14.8663  -56.5484 H         1 P0G1401     0.0000 
     29 H          -6.7822  -16.2084  -54.5577 H         1 P0G1401     0.0000 
     30 H          -6.8666  -12.4593  -56.4219 H         1 P0G1401     0.0000 
     31 H          -6.3754  -15.1391  -52.4253 H         1 P0G1401     0.0000 
     32 H           0.0162  -12.0802  -45.1424 H         1 P0G1401     0.0000 
     33 H          -2.1161  -12.7042  -46.0922 H         1 P0G1401     0.0000 
     34 H           1.0015  -14.0774  -51.7277 H         1 P0G1401     0.0000 
     35 H           0.9555  -15.1791  -50.3405 H         1 P0G1401     0.0000 
     36 H          -3.4361  -11.4827  -48.8090 H         1 P0G1401     0.0000 
     37 H          -2.4395  -12.0562  -50.1573 H         1 P0G1401     0.0000 
     38 H          -6.5680  -13.1621  -51.0715 H         1 P0G1401     0.0000 
     39 H          -6.5584  -11.5582  -51.8247 H         1 P0G1401     0.0000 
     40 H           2.9300  -12.0849  -48.7474 H         1 P0G1401     0.0000 
     41 H          -2.5747  -14.3350  -49.2053 H         1 P0G1401     0.0000 
     42 H          -6.2094  -10.5786  -53.3933 H         1 P0G1401     0.0000 
     43 H          -5.6540  -10.5817  -54.9025 H         1 P0G1401     0.0000 
     44 H          -7.2349  -10.4737  -54.6277 H         1 P0G1401     0.0000 
     45 H          -3.2600  -10.7877  -51.2709 H         1 P0G1401     0.0000 
     46 H          -4.2550  -10.5788  -52.5169 H         1 P0G1401     0.0000 
     47 H          -4.7881  -10.3562  -51.0161 H         1 P0G1401     0.0000 
     48 H          -2.7244  -13.1641  -52.0979 H         1 P0G1401     0.0000 
     49 H          -3.9207  -14.2060  -52.3617 H         1 P0G1401     0.0000 
     50 H          -3.7177  -12.9492  -53.3442 H         1 P0G1401     0.0000 
     51 H           2.1236  -11.8043  -45.4325 H         1 P0G1401     0.0000 
     52 H          -4.1461  -12.8382  -47.4418 H         1 P0G1401     0.0000 
@<TRIPOS>BOND
     1   20    1 1    
     2   42    1 1    
     3   43    1 1    
     4   44    1 1    
     5   27    2 1    
     6   45    2 1    
     7   46    2 1    
     8   47    2 1    
     9   27    3 1    
    10   48    3 1    
    11   49    3 1    
    12   50    3 1    
    13   19    4 2    
    14   21    5 1    
    15   51    5 1    
    16   26    6 1    
    17   52    6 1    
    18    8    7 ar   
    19    9    7 ar   
    20   28    7 1    
    21   10    8 ar   
    22   29    8 1    
    23   20    9 ar   
    24   30    9 1    
    25   22   10 ar   
    26   31   10 1    
    27   12   11 ar   
    28   21   11 ar   
    29   32   11 1    
    30   23   12 ar   
    31   33   12 1    
    32   18   13 1    
    33   19   13 1    
    34   34   13 1    
    35   35   13 1    
    36   16   14 1    
    37   26   14 1    
    38   36   14 1    
    39   37   14 1    
    40   22   15 1    
    41   27   15 1    
    42   38   15 1    
    43   39   15 1    
    44   27   16 1    
    45   19   17 am   
    46   24   17 1    
    47   40   17 1    
    48   25   18 1    
    49   22   20 ar   
    50   24   21 ar   
    51   25   23 ar   
    52   26   23 1    
    53   25   24 ar   
    54   41   26 1    
@<TRIPOS>SUBSTRUCTURE
     1 P0G1401     1 GROUP   
@<TRIPOS>SET

