#    Name: 1jq8_LEU_ALA_ILE_TYR_SER_1_INTS_M
#    Modification time : Tue Mar 25 09:14:59 2014

@<TRIPOS>MOLECULE
1jq8_LEU_ALA_ILE_TYR_SER_1_INTS_M
   87     0     9     0     0
SMALL
NO_CHARGES


@<TRIPOS>ATOM
      1 O          10.3615   15.1215   38.5270 O.2       1 ALC1        0.0000 
      2 O           9.9060   15.7700   37.3930 O.2       7 ALL1        0.0000 
      3 O          10.8170   14.4730   39.6610 O.2       4 ALP1        0.0000 
      4 CA         10.0870   15.1200   37.0820 C.3       3 GLC5        0.0000 
      5 CA          9.0230   16.9600   37.4950 C.3       9 GLL5        0.0000 
      6 CA         11.1510   13.2800   36.6690 C.3       6 GLP5        0.0000 
      7 CA          5.2995   19.7540   37.2910 C.3       3 GLC5        0.0000 
      8 CA          6.4390   18.2960   37.2830 C.3       9 GLL5        0.0000 
      9 CA          4.1600   21.2120   37.2990 C.3       6 GLP5        0.0000 
     10 CA          6.7235   19.5805   35.7235 C.3       3 GLC5        0.0000 
     11 CA          7.0080   20.8650   34.1640 C.3       6 GLP5        0.0000 
     12 CA         10.8200   22.2030   38.2585 C.3       3 GLC5        0.0000 
     13 CA          9.9280   20.6050   38.1120 C.3       9 GLL5        0.0000 
     14 CA         11.7120   23.8010   38.4050 C.3       6 GLP5        0.0000 
     15 CA          6.8875   22.5140   38.2875 C.3       3 GLC5        0.0000 
     16 CA          8.9300   21.7390   38.0720 C.3       9 GLL5        0.0000 
     17 CA          4.8450   23.2890   38.5030 C.3       6 GLP5        0.0000 
     18 CA          9.7335   23.1150   37.8885 C.3       3 GLC5        0.0000 
     19 CA         10.5370   24.4910   37.7050 C.3       6 GLP5        0.0000 
     20 CA          7.9690   21.3020   36.1180 C.3       3 GLC5        0.0000 
     21 CA         11.1270   20.7585   43.1060 C.3       3 GLC5        0.0000 
     22 CA         12.2350   20.9540   41.1670 C.3       9 GLL5        0.0000 
     23 CA         10.0190   20.5630   45.0450 C.3       6 GLP5        0.0000 
     24 CA         10.7570   21.3760   41.5095 C.3       3 GLC5        0.0000 
     25 CA          9.2790   21.7980   41.8520 C.3       6 GLP5        0.0000 
     26 CA         11.9735   22.3775   39.7860 C.3       3 GLC5        0.0000 
     27 CA         14.7030   19.1020   40.3890 C.3       3 GLC5        0.0000 
     28 CA         13.4940   20.0800   41.1310 C.3       9 GLL5        0.0000 
     29 CA         15.9120   18.1240   39.6470 C.3       6 GLP5        0.0000 
     30 CA         14.6630   18.3600   41.5515 C.3       3 GLC5        0.0000 
     31 CA         13.9330   19.7280   42.5570 C.3       9 GLL5        0.0000 
     32 CA         15.3930   16.9920   40.5460 C.3       6 GLP5        0.0000 
     33 CA         15.8170   19.9375   40.3035 C.3       3 GLC5        0.0000 
     34 CA         14.6040   20.8460   40.4160 C.3       9 GLL5        0.0000 
     35 CA         17.0300   19.0290   40.1910 C.3       6 GLP5        0.0000 
     36 CA         13.6345   21.9535   38.9490 C.3       3 GLC5        0.0000 
     37 CA         12.6650   23.0610   37.4820 C.3       6 GLP5        0.0000 
     38 CA         16.2195   19.2555   41.4645 C.3       3 GLC5        0.0000 
     39 CA         15.4090   19.4820   42.7380 C.3       9 GLL5        0.0000 
     40 CA         13.3015   25.5725   42.7025 C.3       3 GLC5        0.0000 
     41 CA         13.7030   23.6520   43.3930 C.3       9 GLL5        0.0000 
     42 CA         12.9000   27.4930   42.0120 C.3       6 GLP5        0.0000 
     43 CA         11.5490   24.7775   44.9955 C.3       3 GLC5        0.0000 
     44 CA         13.3650   23.8970   44.8820 C.3       9 GLL5        0.0000 
     45 CA          9.7330   25.6580   45.1090 C.3       6 GLP5        0.0000 
     46 CA         16.4590   26.2180   45.0440 C.3       3 GLC5        0.0000 
     47 CA         15.6310   24.5330   45.9230 C.3       9 GLL5        0.0000 
     48 CA         17.2870   27.9030   44.1650 C.3       6 GLP5        0.0000 
     49 N          17.0605   21.5965   48.8655 N.am      2 SEC2        0.0000 
     50 N          17.4860   23.1350   48.7540 N.am      8 SEL2        0.0000 
     51 N          16.6350   20.0580   48.9770 N.am      5 SEP2        0.0000 
     52 O          18.6840   23.4105   49.0215 O.2       1 ALC1        0.0000 
     53 O          17.4860   23.1350   48.7540 O.2       7 ALL1        0.0000 
     54 O          19.8820   23.6860   49.2890 O.2       4 ALP1        0.0000 
     55 CA         14.7245   25.8760   40.2980 C.3       3 GLC5        0.0000 
     56 CA         16.5780   24.7590   40.0370 C.3       9 GLL5        0.0000 
     57 CA         12.8710   26.9930   40.5590 C.3       6 GLP5        0.0000 
     58 CA         16.6475   25.7295   38.5460 C.3       3 GLC5        0.0000 
     59 CA         16.7170   26.7000   37.0550 C.3       6 GLP5        0.0000 
     60 CA          9.1140   17.3080   39.8563 C.3       3 GLC5        0.0000 
     61 CA          9.7470   17.7810   41.6910 C.3       6 GLP5        0.0000 
     62 CA          6.7654   15.7912   39.8528 C.3       3 GLC5        0.0000 
     63 CA          5.5880   16.0870   38.0710 C.3       9 GLL5        0.0000 
     64 CA          7.1240   15.0490   41.4370 C.3       6 GLP5        0.0000 
     65 CA          4.2934   17.3560   38.6451 C.3       3 GLC5        0.0000 
     66 CA          6.5120   17.2500   38.3840 C.3       9 GLL5        0.0000 
     67 CA          2.5550   17.7820   39.3380 C.3       6 GLP5        0.0000 
     68 CA          9.3540   21.4850   39.9720 C.3       3 GLC5        0.0000 
     69 CA         11.3057   19.1490   41.4200 C.3       3 GLC5        0.0000 
     70 CA         14.2060   19.1550   44.0422 C.3       3 GLC5        0.0000 
     71 CA         13.7410   18.7050   45.4370 C.3       6 GLP5        0.0000 
     72 CA         14.2148   24.9310   47.6128 C.3       3 GLC5        0.0000 
     73 CA         13.3710   25.7270   49.3040 C.3       6 GLP5        0.0000 
     74 CA         14.1195   24.1878   48.3370 C.3       3 GLC5        0.0000 
     75 CA         14.3710   22.7480   46.8990 C.3       9 GLL5        0.0000 
     76 CA         15.4354   26.0147   46.7941 C.3       3 GLC5        0.0000 
     77 CA         14.4860   23.7370   45.9200 C.3       9 GLL5        0.0000 
     78 CA         15.0220   27.7940   47.1930 C.3       6 GLP5        0.0000 
     79 CA         15.7105   24.8787   48.8547 C.3       3 GLC5        0.0000 
     80 CA         16.6390   24.3360   46.8690 C.3       9 GLL5        0.0000 
     81 CA         14.8550   25.9210   50.3660 C.3       6 GLP5        0.0000 
     82 CA         16.0035   21.9465   49.5523 C.3       3 GLC5        0.0000 
     83 CA         16.4930   23.3370   47.8180 C.3       9 GLL5        0.0000 
     84 CA         16.0780   20.9500   51.2750 C.3       6 GLP5        0.0000 
     85 CA         18.5925   25.1217   40.1355 C.3       3 GLC5        0.0000 
     86 CA         16.8960   24.1240   41.3970 C.3       9 GLL5        0.0000 
     87 CA         20.4480   25.8020   39.5540 C.3       6 GLP5        0.0000 
@<TRIPOS>BOND
@<TRIPOS>SUBSTRUCTURE
     1 ALC1        1 GROUP        1 X    ALC  0     ROOT ALC X 1
     2 SEC2       49 GROUP        1 X    SEC  0     **** SEC X 2
     3 GLC5        4 GROUP        1 X    GLC  0     **** GLC X 6
     4 ALP1        3 GROUP        1 Y    ALP  0     ROOT ALP Y 8
     5 SEP2       51 GROUP        1 Y    SEP  0     **** SEP Y 9
     6 GLP5        6 GROUP        1 Y    GLP  0     **** GLP Y 13
     7 ALL1        2 GROUP        1 Z    ALL  0     ROOT ALL Z 15
     8 SEL2       50 GROUP        1 Z    SEL  0     **** SEL Z 16
     9 GLL5        5 GROUP        1 Z    GLL  0     **** GLL Z 20
@<TRIPOS>SET

