#    Name: 1jq8_LEU_ALA_ILE_TYR_SER_1_ligand
#    Modification time : Tue Mar 25 09:14:59 2014

@<TRIPOS>MOLECULE
1jq8_LEU_ALA_ILE_TYR_SER_1_ligand
   84    84     5     0     0
SMALL
NO_CHARGES


@<TRIPOS>ATOM
      1 N           9.9060   15.7700   37.3930 N.4       1 LEU1        0.0000
      2 CA          9.0230   16.9600   37.4950 C.3       1 LEU1        0.0000
      3 C           9.8540   18.1800   37.8930 C.2       1 LEU1        0.0000
      4 O          11.0100   18.0540   38.3070 O.2       1 LEU1        0.0000
      5 CB          7.9390   16.7100   38.5480 C.3       1 LEU1        0.0000
      6 CG          6.5120   17.2500   38.3840 C.3       1 LEU1        0.0000
      7 CD1         6.4390   18.2960   37.2830 C.3       1 LEU1        0.0000
      8 CD2         5.5880   16.0870   38.0710 C.3       1 LEU1        0.0000
      9 HA          8.5518   17.1543   36.5537 H         1 LEU1        0.0000
     10 HB2         8.3351   17.0773   39.5494 H         1 LEU1        0.0000
     11 HB3         7.8671   15.5866   38.7136 H         1 LEU1        0.0000
     12 HG          6.2059   17.6920   39.3179 H         1 LEU1        0.0000
     13 HNCA       10.6247   15.8983   36.7096 H         1 LEU1        0.0000
     14 H          10.3597   15.5686   38.2611 H         1 LEU1        0.0000
     15 H           9.3960   14.9504   37.1318 H         1 LEU1        0.0000
     16 HD11        7.0327   19.0778   37.4735 H         1 LEU1        0.0000
     17 HD12        6.7192   17.9240   36.3981 H         1 LEU1        0.0000
     18 HD13        5.5116   18.6527   37.1705 H         1 LEU1        0.0000
     19 HD21        5.8532   15.6183   37.2284 H         1 LEU1        0.0000
     20 HD22        5.5917   15.4030   38.8005 H         1 LEU1        0.0000
     21 HD23        4.6409   16.3861   37.9544 H         1 LEU1        0.0000
     22 N           9.2600   19.3600   37.7560 N.am      2 ALA2        0.0000
     23 CA          9.9280   20.6050   38.1120 C.3       2 ALA2        0.0000
     24 C          10.4790   20.4350   39.5250 C.2       2 ALA2        0.0000
     25 O           9.8690   19.7440   40.3240 O.2       2 ALA2        0.0000
     26 CB          8.9300   21.7390   38.0720 C.3       2 ALA2        0.0000
     27 H           8.2890   19.4564   37.3882 H         2 ALA2        0.0000
     28 HA         10.7343   20.8065   37.4493 H         2 ALA2        0.0000
     29 HB1         9.3526   22.6142   38.3075 H         2 ALA2        0.0000
     30 HB2         8.5239   21.8445   37.1643 H         2 ALA2        0.0000
     31 HB3         8.1777   21.5945   38.7147 H         2 ALA2        0.0000
     32 N          11.6160   21.0590   39.8340 N.am      3 ILE3        0.0000
     33 CA         12.2350   20.9540   41.1670 C.3       3 ILE3        0.0000
     34 C          12.7110   22.3290   41.6560 C.2       3 ILE3        0.0000
     35 O          12.6620   23.3020   40.9070 O.2       3 ILE3        0.0000
     36 CB         13.4940   20.0800   41.1310 C.3       3 ILE3        0.0000
     37 CG1        13.9330   19.7280   42.5570 C.3       3 ILE3        0.0000
     38 CG2        14.6040   20.8460   40.4160 C.3       3 ILE3        0.0000
     39 CD1        15.4090   19.4820   42.7380 C.3       3 ILE3        0.0000
     40 HNCA       12.1298   21.6552   39.1507 H         3 ILE3        0.0000
     41 HA         11.5658   20.5546   41.8901 H         3 ILE3        0.0000
     42 HB         13.2814   19.1833   40.5928 H         3 ILE3        0.0000
     43 HG12       13.3685   18.8289   42.8834 H         3 ILE3        0.0000
     44 HG13       13.6123   20.5489   43.2329 H         3 ILE3        0.0000
     45 HG21       15.4509   20.3163   40.3704 H         3 ILE3        0.0000
     46 HG22       14.3509   21.0756   39.4762 H         3 ILE3        0.0000
     47 HG23       14.8203   21.7053   40.8795 H         3 ILE3        0.0000
     48 HD11       15.9525   20.2834   42.4881 H         3 ILE3        0.0000
     49 HD12       15.6348   19.2588   43.6863 H         3 ILE3        0.0000
     50 HD13       15.7308   18.7220   42.1734 H         3 ILE3        0.0000
     51 N          13.1440   22.4150   42.9030 N.am      4 TYR4        0.0000
     52 CA         13.7030   23.6520   43.3930 C.3       4 TYR4        0.0000
     53 C          15.1970   23.5630   43.0690 C.2       4 TYR4        0.0000
     54 O          15.9720   22.9800   43.8170 O.2       4 TYR4        0.0000
     55 CB         13.3650   23.8970   44.8820 C.3       4 TYR4        0.0000
     56 CG         14.4860   23.7370   45.9200 C.ar      4 TYR4        0.0000
     57 CD1        15.6310   24.5330   45.9230 C.ar      4 TYR4        0.0000
     58 CD2        14.3710   22.7480   46.8990 C.ar      4 TYR4        0.0000
     59 CE1        16.6390   24.3360   46.8690 C.ar      4 TYR4        0.0000
     60 CE2        15.3650   22.5490   47.8410 C.ar      4 TYR4        0.0000
     61 CZ         16.4930   23.3370   47.8180 C.ar      4 TYR4        0.0000
     62 OH         17.4860   23.1350   48.7540 O.3       4 TYR4        0.0000
     63 HNCA       13.1055   21.6260   43.5692 H         4 TYR4        0.0000
     64 HA         13.2964   24.4811   42.8037 H         4 TYR4        0.0000
     65 HB2        12.5219   23.2162   45.1631 H         4 TYR4        0.0000
     66 HB3        12.9394   24.9281   44.9762 H         4 TYR4        0.0000
     67 HD1        15.7357   25.2789   45.2160 H         4 TYR4        0.0000
     68 HD2        13.5209   22.1530   46.9160 H         4 TYR4        0.0000
     69 HE1        17.4751   24.9260   46.8575 H         4 TYR4        0.0000
     70 HE2        15.2579   21.8142   48.5541 H         4 TYR4        0.0000
     71 HH         18.2803   23.6279   48.3988 H         4 TYR4        0.0000
     72 N          15.5340   24.1240   41.9310 N.am      5 SER5        0.0000
     73 CA         16.8960   24.1240   41.3970 C.3       5 SER5        0.0000
     74 C          17.9590   24.4720   42.4230 C.2       5 SER5        0.0000
     75 O          17.6670   24.6320   43.6050 O.2       5 SER5        0.0000
     76 CB         16.5780   24.7590   40.0370 C.3       5 SER5        0.0000
     77 OG         17.9160   25.1700   39.8350 O.3       5 SER5        0.0000
     78 OXT        19.2190   24.0740   42.0110 O.3       5 SER5        0.0000
     79 HNCA       14.8259   24.6191   41.3210 H         5 SER5        0.0000
     80 HA         17.0270   22.9882   41.1275 H         5 SER5        0.0000
     81 HB2        15.9254   25.5485   40.1916 H         5 SER5        0.0000
     82 HB3        16.2776   24.0079   39.3899 H         5 SER5        0.0000
     83 HG         18.3298   24.4435   39.2863 H         5 SER5        0.0000
     84 H          19.3476   24.5056   41.1182 H         5 SER5        0.0000
@<TRIPOS>BOND
     1    2    1 1
     2   13    1 1
     3   14    1 1
     4   15    1 1
     5    3    2 1
     6    5    2 1
     7    9    2 1
     8    4    3 2
     9    6    5 1
    10   10    5 1
    11   11    5 1
    12    7    6 1
    13    8    6 1
    14   12    6 1
    15   16    7 1
    16   17    7 1
    17   18    7 1
    18   19    8 1
    19   20    8 1
    20   21    8 1
    21   23   22 1
    22   27   22 1
    23   24   23 1
    24   26   23 1
    25   28   23 1
    26   25   24 2
    27   29   26 1
    28   30   26 1
    29   31   26 1
    30   33   32 1
    31   40   32 1
    32   34   33 1
    33   36   33 1
    34   41   33 1
    35   35   34 2
    36   37   36 1
    37   38   36 1
    38   42   36 1
    39   39   37 1
    40   43   37 1
    41   44   37 1
    42   45   38 1
    43   46   38 1
    44   47   38 1
    45   48   39 1
    46   49   39 1
    47   50   39 1
    48   52   51 1
    49   63   51 1
    50   53   52 1
    51   55   52 1
    52   64   52 1
    53   54   53 2
    54   56   55 1
    55   65   55 1
    56   66   55 1
    57   57   56 ar
    58   58   56 ar
    59   59   57 ar
    60   67   57 1
    61   60   58 ar
    62   68   58 1
    63   61   59 ar
    64   69   59 1
    65   61   60 ar
    66   70   60 1
    67   62   61 1
    68   71   62 1
    69   73   72 1
    70   79   72 1
    71   74   73 1
    72   76   73 1
    73   80   73 1
    74   75   74 2
    75   78   74 1
    76   77   76 1
    77   81   76 1
    78   82   76 1
    79   83   77 1
    80   84   78 1
    81   22    3 am
    82   32   24 am
    83   51   34 am
    84   72   53 am
@<TRIPOS>SUBSTRUCTURE
     1 LEU1        1 RESIDUE
     2 ALA2       22 RESIDUE
     3 ILE3       32 RESIDUE
     4 TYR4       51 RESIDUE
     5 SER5       72 RESIDUE
@<TRIPOS>SET

