#    Name: 3koy_Z97_1_INTS_M
#    Modification time : Mon Mar 24 20:00:08 2014

@<TRIPOS>MOLECULE
3koy_Z97_1_INTS_M
   87     0    15     0     0
SMALL
NO_CHARGES


@<TRIPOS>ATOM
      1 OD1        -7.0110   98.8000   30.7050 O.co2     3 ASC3        0.0000 
      2 OD1        -8.2630   98.0780   29.9070 O.co2    13 ASL3        0.0000 
      3 OD1        -5.7590   99.5220   31.5030 O.co2     8 ASP3        0.0000 
      4 O          -7.0110   98.8000   30.7050 O.2       1 ALC1        0.0000 
      5 O          -8.2630   98.0780   29.9070 O.2      11 ALL1        0.0000 
      6 O          -5.7590   99.5220   31.5030 O.2       6 ALP1        0.0000 
      7 NZ         -5.1045   95.8740   30.1145 N.4       4 LYC4        0.0000 
      8 NZ         -6.1130   96.3940   29.1430 N.4      14 LYL4        0.0000 
      9 NZ         -3.9820   94.2400   30.3860 N.4       9 LYP4        0.0000 
     10 N          -5.3550   95.2715   29.1805 N.am      2 SEC2        0.0000 
     11 N          -6.1130   96.3940   29.1430 N.am     12 SEL2        0.0000 
     12 N          -4.5970   94.1490   29.2180 N.am      7 SEP2        0.0000 
     13 N          -5.1045   95.8740   30.1145 N.am      2 SEC2        0.0000 
     14 N          -4.0960   95.3540   31.0860 N.am      7 SEP2        0.0000 
     15 N          -6.3110   96.4500   30.6235 N.am      2 SEC2        0.0000 
     16 N          -6.5090   96.5060   32.1040 N.am      7 SEP2        0.0000 
     17 N          -4.5305   97.6310   19.5285 N.am      2 SEC2        0.0000 
     18 N          -5.4030   98.1070   20.5430 N.am     12 SEL2        0.0000 
     19 N          -3.6580   97.1550   18.5140 N.am      7 SEP2        0.0000 
     20 N          -7.5945   96.3015   24.7810 N.am      2 SEC2        0.0000 
     21 N          -7.2950   97.1010   23.6070 N.am     12 SEL2        0.0000 
     22 N          -7.8940   95.5020   25.9550 N.am      7 SEP2        0.0000 
     23 O          -8.3385   96.3365   23.1320 O.2       1 ALC1        0.0000 
     24 O          -7.2950   97.1010   23.6070 O.2      11 ALL1        0.0000 
     25 O          -9.3820   95.5720   22.6570 O.2       6 ALP1        0.0000 
     26 CA         -4.6685   98.9270   19.1395 C.3       5 GLC5        0.0000 
     27 CA         -5.6870   99.4970   20.5140 C.3      15 GLL5        0.0000 
     28 CA         -3.6500   98.3570   17.7650 C.3      10 GLP5        0.0000 
     29 CA         -8.2840   96.6450   27.5885 C.3       5 GLC5        0.0000 
     30 CA         -7.5130   98.2710   28.6700 C.3      15 GLL5        0.0000 
     31 CA         -9.0550   95.0190   26.5070 C.3      10 GLP5        0.0000 
     32 CA         -8.6685   97.0040   26.1285 C.3       5 GLC5        0.0000 
     33 CA         -8.2820   98.9890   25.7500 C.3      15 GLL5        0.0000 
     34 N          -9.9720   98.1090   23.8985 N.am      2 SEC2        0.0000 
     35 N          -8.8890   99.2880   24.4420 N.am     12 SEL2        0.0000 
     36 N         -11.0550   96.9300   23.3550 N.am      7 SEP2        0.0000 
     37 N         -10.2290   99.8995   23.9010 N.am      2 SEC2        0.0000 
     38 N         -11.5690  100.5110   23.3600 N.am      7 SEP2        0.0000 
     39 CA         -4.6010   95.8170   23.1410 C.3       5 GLC5        0.0000 
     40 CA         -5.6430   95.7980   21.5560 C.3      15 GLL5        0.0000 
     41 CA         -3.5590   95.8360   24.7260 C.3      10 GLP5        0.0000 
     42 CA         -6.6810   95.9280   20.0365 C.3       5 GLC5        0.0000 
     43 CA         -7.7190   96.0580   18.5170 C.3      10 GLP5        0.0000 
     44 CA         -6.3485   93.9705   21.9430 C.3       5 GLC5        0.0000 
     45 CA         -7.0540   92.1430   22.3300 C.3      10 GLP5        0.0000 
     46 CA         -7.6015  100.1255   20.2365 C.3       5 GLC5        0.0000 
     47 CA         -6.7850  101.5720   21.3930 C.3      15 GLL5        0.0000 
     48 CA         -8.4180   98.6790   19.0800 C.3      10 GLP5        0.0000 
     49 CA         -8.8315  101.1510   21.7200 C.3       5 GLC5        0.0000 
     50 CA        -10.8780  100.7300   22.0470 C.3      10 GLP5        0.0000 
     51 NZ         -8.7535  104.4085   19.2355 N.4       4 LYC4        0.0000 
     52 NZ         -7.4350  104.2620   19.8180 N.4      14 LYL4        0.0000 
     53 NZ        -10.4970  103.9350   17.5540 N.4       9 LYP4        0.0000 
     54 N          -7.6285  105.8625   19.2410 N.am      2 SEC2        0.0000 
     55 N          -7.4350  104.2620   19.8180 N.am     12 SEL2        0.0000 
     56 N          -7.8220  107.4630   18.6640 N.am      7 SEP2        0.0000 
     57 N          -8.7535  104.4085   19.2355 N.am      2 SEC2        0.0000 
     58 N         -10.0720  104.5550   18.6530 N.am      7 SEP2        0.0000 
     59 NZ         -8.6610  102.4505   17.8405 N.4       4 LYC4        0.0000 
     60 NZ         -7.2840  102.1710   18.4460 N.4      14 LYL4        0.0000 
     61 N          -6.5240  101.8620   17.4320 N.am      2 SEC2        0.0000 
     62 N          -7.2840  102.1710   18.4460 N.am     12 SEL2        0.0000 
     63 N          -5.7640  101.5530   16.4180 N.am      7 SEP2        0.0000 
     64 N          -8.0195  101.0835   18.9000 N.am      2 SEC2        0.0000 
     65 N          -8.7550   99.9960   19.3540 N.am      7 SEP2        0.0000 
     66 N          -8.6610  102.4505   17.8405 N.am      2 SEC2        0.0000 
     67 N         -10.0380  102.7300   17.2350 N.am      7 SEP2        0.0000 
     68 NZ         -4.3230  102.8625   18.4275 N.4       4 LYC4        0.0000 
     69 NZ         -5.2690  103.6960   18.6920 N.4      14 LYL4        0.0000 
     70 NZ         -2.2420  102.5590   18.6060 N.4       9 LYP4        0.0000 
     71 N          -4.3230  102.8625   18.4275 N.am      2 SEC2        0.0000 
     72 N          -5.2690  103.6960   18.6920 N.am     12 SEL2        0.0000 
     73 N          -3.3770  102.0290   18.1630 N.am      7 SEP2        0.0000 
     74 N          -5.0385  104.0750   17.2920 N.am      2 SEC2        0.0000 
     75 N          -4.8080  104.4540   15.8920 N.am      7 SEP2        0.0000 
     76 N          -4.6385   98.8725   27.1525 N.am      2 SEC2        0.0000 
     77 N          -5.3920   97.7700   27.5260 N.am     12 SEL2        0.0000 
     78 N          -3.8850   99.9750   26.7790 N.am      7 SEP2        0.0000 
     79 N          -4.3860   96.9325   26.7950 N.am      2 SEC2        0.0000 
     80 N          -3.3800   96.0950   26.0640 N.am      7 SEP2        0.0000 
     81 CA         -4.9665   96.7145   23.4045 C.3       5 GLC5        0.0000 
     82 CA         -6.7910   97.8870   22.5900 C.3      15 GLL5        0.0000 
     83 CA         -8.8285  100.1890   22.0315 C.3       5 GLC5        0.0000 
     84 CA         -7.0750   99.2310   22.5640 C.3      15 GLL5        0.0000 
     85 CA         -6.2773  101.2233   27.8427 C.3       5 GLC5        0.0000 
     86 CA         -8.1080  100.0790   26.8050 C.3      15 GLL5        0.0000 
     87 CA         -4.7960  102.5480   28.2000 C.3      10 GLP5        0.0000 
@<TRIPOS>BOND
@<TRIPOS>SUBSTRUCTURE
     1 ALC1        4 GROUP        1 X    ALC  0     ROOT ALC X 1
     2 SEC2       10 GROUP        1 X    SEC  0     **** SEC X 2
     3 ASC3        1 GROUP        1 X    ASC  0     **** ASC X 3
     4 LYC4        7 GROUP        1 X    LYC  0     **** LYC X 4
     5 GLC5       26 GROUP        1 X    GLC  0     **** GLC X 6
     6 ALP1        6 GROUP        1 Y    ALP  0     ROOT ALP Y 8
     7 SEP2       12 GROUP        1 Y    SEP  0     **** SEP Y 9
     8 ASP3        3 GROUP        1 Y    ASP  0     **** ASP Y 10
     9 LYP4        9 GROUP        1 Y    LYP  0     **** LYP Y 11
    10 GLP5       28 GROUP        1 Y    GLP  0     **** GLP Y 13
    11 ALL1        5 GROUP        1 Z    ALL  0     ROOT ALL Z 15
    12 SEL2       11 GROUP        1 Z    SEL  0     **** SEL Z 16
    13 ASL3        2 GROUP        1 Z    ASL  0     **** ASL Z 17
    14 LYL4        8 GROUP        1 Z    LYL  0     **** LYL Z 18
    15 GLL5       27 GROUP        1 Z    GLL  0     **** GLL Z 20
@<TRIPOS>SET

