#    Name: 3koy_Z97_1_ligand
#    Modification time : Mon Mar 24 20:00:08 2014

@<TRIPOS>MOLECULE
3koy_Z97_1_ligand
   42    42     1     0     0
SMALL
NO_CHARGES


@<TRIPOS>ATOM
      1 C          -6.2170   97.4900   28.5990 C.2       1 Z97767      0.0000 
      2 N          -8.2630   98.0780   29.9070 N.4       1 Z97767      0.0000 
      3 O          -6.1130   96.3940   29.1430 O.co2     1 Z97767      0.0000 
      4 P          -6.4750  103.1120   19.4000 P.3       1 Z97767      0.0000 
      5 N1         -5.4030   98.1070   20.5430 N.ar      1 Z97767      0.0000 
      6 C2         -5.9570   97.2990   21.5760 C.ar      1 Z97767      0.0000 
      7 C3         -6.7910   97.8870   22.5900 C.ar      1 Z97767      0.0000 
      8 O3         -7.2950   97.1010   23.6070 O.3       1 Z97767      0.0000 
      9 C4         -7.0750   99.2310   22.5640 C.ar      1 Z97767      0.0000 
     10 C5         -6.4830  100.0650   21.4680 C.ar      1 Z97767      0.0000 
     11 C6         -5.6870   99.4970   20.5140 C.ar      1 Z97767      0.0000 
     12 CA         -7.5130   98.2710   28.6700 C.3       1 Z97767      0.0000 
     13 CB         -7.4090   99.7180   28.1660 C.3       1 Z97767      0.0000 
     14 CD         -8.2820   98.9890   25.7500 C.3       1 Z97767      0.0000 
     15 NE         -8.8890   99.2880   24.4420 N.2       1 Z97767      0.0000 
     16 CG         -8.1080  100.0790   26.8050 C.3       1 Z97767      0.0000 
     17 C2A        -5.6430   95.7980   21.5560 C.3       1 Z97767      0.0000 
     18 C4A        -7.9270   99.9500   23.5990 C.2       1 Z97767      0.0000 
     19 C5A        -6.7850  101.5720   21.3930 C.3       1 Z97767      0.0000 
     20 OP1        -7.4350  104.2620   19.8180 O.co2     1 Z97767      0.0000 
     21 OP2        -7.2840  102.1710   18.4460 O.co2     1 Z97767      0.0000 
     22 OP3        -5.2690  103.6960   18.6920 O.co2     1 Z97767      0.0000 
     23 OP4        -5.9050  102.3520   20.6460 O.3       1 Z97767      0.0000 
     24 OXT        -5.3920   97.7700   27.5260 O.co2     1 Z97767      0.0000 
     25 H          -5.2771  100.0645   19.7553 H         1 Z97767      0.0000 
     26 H          -8.1780   97.7522   27.8347 H         1 Z97767      0.0000 
     27 H          -6.3316   99.9922   28.0733 H         1 Z97767      0.0000 
     28 H          -7.8182  100.4030   28.9458 H         1 Z97767      0.0000 
     29 H          -7.2566   98.5157   25.5862 H         1 Z97767      0.0000 
     30 H          -8.8581   98.1360   26.2427 H         1 Z97767      0.0000 
     31 H          -7.5388  100.9339   26.3555 H         1 Z97767      0.0000 
     32 H          -9.1126  100.5113   27.0517 H         1 Z97767      0.0000 
     33 H          -7.7843  100.9639   23.6763 H         1 Z97767      0.0000 
     34 H          -6.8585  101.9302   22.4621 H         1 Z97767      0.0000 
     35 H          -7.8466  101.6602   21.0162 H         1 Z97767      0.0000 
     36 H          -7.7364   98.3610   30.7086 H         1 Z97767      0.0000 
     37 H          -9.1121   98.6061   29.9127 H         1 Z97767      0.0000 
     38 H          -8.5131   97.1195   30.0440 H         1 Z97767      0.0000 
     39 H          -4.6603   95.6233   21.6179 H         1 Z97767      0.0000 
     40 H          -6.0747   95.3181   22.3197 H         1 Z97767      0.0000 
     41 H          -5.9659   95.3622   20.7159 H         1 Z97767      0.0000 
     42 H          -7.7692   96.3520   23.1442 H         1 Z97767      0.0000 
@<TRIPOS>BOND
     1    3    1 ar   
     2   12    1 1    
     3   24    1 ar   
     4   12    2 1    
     5   36    2 1    
     6   37    2 1    
     7   38    2 1    
     8   20    4 ar   
     9   21    4 ar   
    10   22    4 ar   
    11   23    4 1    
    12    6    5 ar   
    13   11    5 ar   
    14    7    6 ar   
    15   17    6 1    
    16    8    7 1    
    17    9    7 ar   
    18   42    8 1    
    19   10    9 ar   
    20   18    9 1    
    21   11   10 ar   
    22   19   10 1    
    23   25   11 1    
    24   13   12 1    
    25   26   12 1    
    26   16   13 1    
    27   27   13 1    
    28   28   13 1    
    29   15   14 1    
    30   16   14 1    
    31   29   14 1    
    32   30   14 1    
    33   18   15 2    
    34   31   16 1    
    35   32   16 1    
    36   39   17 1    
    37   40   17 1    
    38   41   17 1    
    39   33   18 1    
    40   23   19 1    
    41   34   19 1    
    42   35   19 1    
@<TRIPOS>SUBSTRUCTURE
     1 Z97767      1 GROUP   
@<TRIPOS>SET

