#    Name: 2erz_HFS_1_INTS_M
#    Modification time : Tue Mar 25 11:30:06 2014

@<TRIPOS>MOLECULE
2erz_HFS_1_INTS_M
   46     0     9     0     0
SMALL
NO_CHARGES


@<TRIPOS>ATOM
      1 N           1.8295    9.6215    5.0920 N.am      1 SEC2        0.0000 
      2 N           3.2140   10.1010    5.0010 N.am      7 SEL2        0.0000 
      3 N           0.4450    9.1420    5.1830 N.am      4 SEP2        0.0000 
      4 CA          1.8485   10.6875    4.1620 C.3       3 GLC5        0.0000 
      5 CA          3.9290   10.0530    4.0080 C.3       9 GLL5        0.0000 
      6 CA         -0.2320   11.3220    4.3160 C.3       6 GLP5        0.0000 
      7 CA          2.8635    8.8450    0.3960 C.3       3 GLC5        0.0000 
      8 CA          4.1710    9.7230    1.5130 C.3       9 GLL5        0.0000 
      9 CA          1.5560    7.9670   -0.7210 C.3       6 GLP5        0.0000 
     10 CA          3.2765   10.6980    0.1070 C.3       3 GLC5        0.0000 
     11 CA          2.3820   11.6730   -1.2990 C.3       6 GLP5        0.0000 
     12 CA          7.1550   11.7070    6.6000 C.3       3 GLC5        0.0000 
     13 CA          7.4880   10.0900    5.6350 C.3       9 GLL5        0.0000 
     14 CA          6.8220   13.3240    7.5650 C.3       6 GLP5        0.0000 
     15 CA          5.2185    8.3880    4.7040 C.3       3 GLC5        0.0000 
     16 CA          6.0260   10.1620    5.4880 C.3       9 GLL5        0.0000 
     17 CA          4.4110    6.6140    3.9200 C.3       6 GLP5        0.0000 
     18 N           7.5955    8.0230    0.3920 N.am      1 SEC2        0.0000 
     19 N           8.6930    8.2590    1.0890 N.am      7 SEL2        0.0000 
     20 N           6.4980    7.7870   -0.3050 N.am      4 SEP2        0.0000 
     21 CA         10.3770   11.8075    2.4870 C.3       3 GLC5        0.0000 
     22 CA         11.5000   10.1780    3.1110 C.3       9 GLL5        0.0000 
     23 CA          9.2540   13.4370    1.8630 C.3       6 GLP5        0.0000 
     24 OD1        12.8490    8.1020    0.0260 O.co2     2 ASC3        0.0000 
     25 OD1        13.1750    8.1110    1.5490 O.co2     8 ASL3        0.0000 
     26 OD1        12.5230    8.0930   -1.4970 O.co2     5 ASP3        0.0000 
     27 CA          4.0627   11.4102    2.2348 C.3       3 GLC5        0.0000 
     28 CA          3.2260   13.1160    2.9080 C.3       6 GLP5        0.0000 
     29 CA          4.6553    8.1593    2.7408 C.3       3 GLC5        0.0000 
     30 CA          5.5587    8.0633    0.7822 C.3       3 GLC5        0.0000 
     31 CA          6.2180    6.4220    0.0030 C.3       6 GLP5        0.0000 
     32 CA          7.1300   11.7285    3.1730 C.3       3 GLC5        0.0000 
     33 CA          6.2700    9.8290    2.9300 C.3       9 GLL5        0.0000 
     34 CA          7.2330   13.6670    3.3210 C.3       6 GLP5        0.0000 
     35 CA          4.3472   11.5255    3.2100 C.3       3 GLC5        0.0000 
     36 CA          4.9398    8.2745    3.7160 C.3       3 GLC5        0.0000 
     37 CA          7.0955    7.8720    2.0600 C.3       3 GLC5        0.0000 
     38 CA          7.1640    5.9540    1.0950 C.3       6 GLP5        0.0000 
     39 CA          7.5755   11.8265    4.1883 C.3       3 GLC5        0.0000 
     40 CA          8.3480    9.8820    4.4760 C.3       9 GLL5        0.0000 
     41 CA          4.9642   11.7968    5.6955 C.3       3 GLC5        0.0000 
     42 CA          4.5820   13.4920    6.6000 C.3       6 GLP5        0.0000 
     43 CA          6.4742   11.8812    4.0775 C.3       3 GLC5        0.0000 
     44 CA         14.5835   11.4445    1.9998 C.3       3 GLC5        0.0000 
     45 CA         12.7050   10.4750    2.2230 C.3       9 GLL5        0.0000 
     46 CA         15.9620   12.9940    1.7740 C.3       6 GLP5        0.0000 
@<TRIPOS>BOND
@<TRIPOS>SUBSTRUCTURE
     1 SEC2        1 GROUP        1 X    SEC  0     ROOT SEC X 2
     2 ASC3       24 GROUP        1 X    ASC  0     **** ASC X 3
     3 GLC5        4 GROUP        1 X    GLC  0     **** GLC X 6
     4 SEP2        3 GROUP        1 Y    SEP  0     ROOT SEP Y 9
     5 ASP3       26 GROUP        1 Y    ASP  0     **** ASP Y 10
     6 GLP5        6 GROUP        1 Y    GLP  0     **** GLP Y 13
     7 SEL2        2 GROUP        1 Z    SEL  0     ROOT SEL Z 16
     8 ASL3       25 GROUP        1 Z    ASL  0     **** ASL Z 17
     9 GLL5        5 GROUP        1 Z    GLL  0     **** GLL Z 20
@<TRIPOS>SET

