#    Name: 2erz_HFS_1_ligand
#    Modification time : Tue Mar 25 11:30:06 2014

@<TRIPOS>MOLECULE
2erz_HFS_1_ligand
   37    39     1     0     0
SMALL
NO_CHARGES


@<TRIPOS>ATOM
      1 O1          3.2140   10.1010    5.0010 O.3       1 HFS351      0.0000 
      2 C1          3.9290   10.0530    4.0080 C.ar      1 HFS351      0.0000 
      3 N1          3.4180    9.8960    2.6910 N.ar      1 HFS351      0.0000 
      4 C2          4.1710    9.7230    1.5130 C.ar      1 HFS351      0.0000 
      5 C3          5.6280    9.6860    1.6100 C.ar      1 HFS351      0.0000 
      6 C4          6.2700    9.8290    2.9300 C.ar      1 HFS351      0.0000 
      7 C5          7.7840    9.7510    3.1200 C.ar      1 HFS351      0.0000 
      8 C6          8.3480    9.8820    4.4760 C.ar      1 HFS351      0.0000 
      9 C7          7.4880   10.0900    5.6350 C.ar      1 HFS351      0.0000 
     10 C8          6.0260   10.1620    5.4880 C.ar      1 HFS351      0.0000 
     11 C9          5.4050   10.0290    4.1800 C.ar      1 HFS351      0.0000 
     12 S1          8.9840    9.4800    1.7980 S.o2      1 HFS351      0.0000 
     13 O2          8.6930    8.2590    1.0890 O.2       1 HFS351      0.0000 
     14 O3          9.0520   10.6840    1.0040 O.2       1 HFS351      0.0000 
     15 N2         10.6270    9.1530    2.4630 N.pl3     1 HFS351      0.0000 
     16 C10        11.5000   10.1780    3.1110 C.3       1 HFS351      0.0000 
     17 C11        12.7050   10.4750    2.2230 C.3       1 HFS351      0.0000 
     18 C12        13.7050    9.3150    2.2280 C.3       1 HFS351      0.0000 
     19 N3         13.1750    8.1110    1.5490 N.4       1 HFS351      0.0000 
     20 C13        12.4060    7.2950    2.5170 C.3       1 HFS351      0.0000 
     21 C14        10.9790    7.7520    2.8260 C.3       1 HFS351      0.0000 
     22 H           3.7366    9.6248    0.6124 H         1 HFS351      0.0000 
     23 H           6.1898    9.5653    0.7937 H         1 HFS351      0.0000 
     24 H           9.3511    9.8255    4.5973 H         1 HFS351      0.0000 
     25 H           7.8964   10.1867    6.5541 H         1 HFS351      0.0000 
     26 H           5.4549   10.3053    6.3075 H         1 HFS351      0.0000 
     27 H          11.8543    9.8135    4.0745 H         1 HFS351      0.0000 
     28 H          10.9422   11.1006    3.2673 H         1 HFS351      0.0000 
     29 H          13.2035   11.3772    2.5814 H         1 HFS351      0.0000 
     30 H          12.3654   10.6488    1.2005 H         1 HFS351      0.0000 
     31 H          13.9581    9.0829    3.2734 H         1 HFS351      0.0000 
     32 H          14.6290    9.6546    1.7362 H         1 HFS351      0.0000 
     33 H          12.9634    7.2371    3.4871 H         1 HFS351      0.0000 
     34 H          12.3548    6.2348    2.1586 H         1 HFS351      0.0000 
     35 H          10.2745    7.0468    2.3163 H         1 HFS351      0.0000 
     36 H          10.7966    7.5932    3.9191 H         1 HFS351      0.0000 
     37 H           3.7779    9.7394    5.7435 H         1 HFS351      0.0000 
@<TRIPOS>BOND
     1    2    1 1    
     2   37    1 1    
     3    3    2 ar   
     4   11    2 ar   
     5    4    3 ar   
     6    5    4 ar   
     7   22    4 1    
     8    6    5 ar   
     9   23    5 1    
    10    7    6 ar   
    11   11    6 ar   
    12    8    7 ar   
    13   12    7 1    
    14    9    8 ar   
    15   24    8 1    
    16   10    9 ar   
    17   25    9 1    
    18   11   10 ar   
    19   26   10 1    
    20   13   12 2    
    21   14   12 2    
    22   15   12 1    
    23   16   15 1    
    24   21   15 1    
    25   17   16 1    
    26   27   16 1    
    27   28   16 1    
    28   18   17 1    
    29   29   17 1    
    30   30   17 1    
    31   19   18 1    
    32   31   18 1    
    33   32   18 1    
    34   20   19 1    
    35   21   20 1    
    36   33   20 1    
    37   34   20 1    
    38   35   21 1    
    39   36   21 1    
@<TRIPOS>SUBSTRUCTURE
     1 HFS351      1 GROUP   
@<TRIPOS>SET

