#    Name: 2c9e_PID_3_INTS_M
#    Modification time : Mon Mar 24 23:22:10 2014

@<TRIPOS>MOLECULE
2c9e_PID_3_INTS_M
  109     0     9     0     0
SMALL
NO_CHARGES


@<TRIPOS>ATOM
      1 CA          9.1285   22.0310   21.9200 C.3       3 GLC5        0.0000 
      2 CA         10.8220   22.0550   20.9640 C.3       9 GLL5        0.0000 
      3 CA          7.4350   22.0070   22.8760 C.3       6 GLP5        0.0000 
      4 CA         10.3395   24.0530   20.8135 C.3       3 GLC5        0.0000 
      5 CA          9.8570   26.0510   20.6630 C.3       6 GLP5        0.0000 
      6 CA         11.7320   18.4805   19.5895 C.3       3 GLC5        0.0000 
      7 CA         12.1980   20.6480   19.2970 C.3       9 GLL5        0.0000 
      8 CA         11.2660   16.3130   19.8820 C.3       6 GLP5        0.0000 
      9 CA         14.2570   16.0440    9.1765 C.3       3 GLC5        0.0000 
     10 CA         13.2450   14.4570   10.3350 C.3       9 GLL5        0.0000 
     11 CA         15.2690   17.6310    8.0180 C.3       6 GLP5        0.0000 
     12 CA         13.9140   10.7935    3.0125 C.3       3 GLC5        0.0000 
     13 CA         13.5590    8.9490    3.9160 C.3       9 GLL5        0.0000 
     14 CA         14.2690   12.6380    2.1090 C.3       6 GLP5        0.0000 
     15 CA         16.9390    5.3230    3.0395 C.3       3 GLC5        0.0000 
     16 CA         14.7180    5.0990    3.1110 C.3       9 GLL5        0.0000 
     17 CA         19.1600    5.5470    2.9680 C.3       6 GLP5        0.0000 
     18 CA         17.3080    6.3770    3.5290 C.3       3 GLC5        0.0000 
     19 CA         15.6660    6.3010    3.0010 C.3       9 GLL5        0.0000 
     20 CA         18.9500    6.4530    4.0570 C.3       6 GLP5        0.0000 
     21 CA         17.4670    2.8745    3.6540 C.3       3 GLC5        0.0000 
     22 CA         15.8400    1.6700    4.2880 C.3       9 GLL5        0.0000 
     23 CA         19.0940    4.0790    3.0200 C.3       6 GLP5        0.0000 
     24 CA         16.4570    0.9670    2.7470 C.3       3 GLC5        0.0000 
     25 CA         17.0740    0.2640    1.2060 C.3       6 GLP5        0.0000 
     26 CA         14.5285   22.0790   17.6585 C.3       3 GLC5        0.0000 
     27 CA         14.7670   21.3100   19.2620 C.3       9 GLL5        0.0000 
     28 CA         14.2900   22.8480   16.0550 C.3       6 GLP5        0.0000 
     29 CA          9.3665   19.6950   17.9385 C.3       3 GLC5        0.0000 
     30 CA          9.9190   21.6090   18.7270 C.3       9 GLL5        0.0000 
     31 CA          8.8140   17.7810   17.1500 C.3       6 GLP5        0.0000 
     32 CA          8.9770   21.5810   17.2475 C.3       3 GLC5        0.0000 
     33 CA          8.0350   21.5530   15.7680 C.3       6 GLP5        0.0000 
     34 CA          9.2610   23.3690   18.6545 C.3       3 GLC5        0.0000 
     35 CA          8.6030   25.1290   18.5820 C.3       6 GLP5        0.0000 
     36 CA          9.4565   18.7795   18.7685 C.3       3 GLC5        0.0000 
     37 CA         10.0990   19.7780   20.3870 C.3       9 GLL5        0.0000 
     38 CA          9.0670   19.7915   22.2325 C.3       3 GLC5        0.0000 
     39 CA          8.0350   19.8050   24.0780 C.3       6 GLP5        0.0000 
     40 CA         10.6825   18.0455   20.1345 C.3       3 GLC5        0.0000 
     41 CA         12.4900   18.8410   10.7560 C.3       3 GLC5        0.0000 
     42 CA         12.2820   17.0400   11.4950 C.3       9 GLL5        0.0000 
     43 CA         12.6980   20.6420   10.0170 C.3       6 GLP5        0.0000 
     44 CA         16.4905    8.2390    6.3930 C.3       3 GLC5        0.0000 
     45 CA         14.5430    9.0600    6.5890 C.3       9 GLL5        0.0000 
     46 CA         18.4380    7.4180    6.1970 C.3       6 GLP5        0.0000 
     47 CA         10.5650    7.4000    5.8940 C.3       3 GLC5        0.0000 
     48 CA         11.6070    6.9810    4.4050 C.3       9 GLL5        0.0000 
     49 CA          9.5230    7.8190    7.3830 C.3       6 GLP5        0.0000 
     50 CA         10.2260    7.7120    2.8260 C.3       3 GLC5        0.0000 
     51 CA          8.8450    8.4430    1.2470 C.3       6 GLP5        0.0000 
     52 CA         10.4530    7.4140    1.6430 C.3       3 GLC5        0.0000 
     53 CA         12.0610    6.3850    2.0390 C.3       9 GLL5        0.0000 
     54 CA         12.4060    5.5045    0.4595 C.3       3 GLC5        0.0000 
     55 CA         12.7510    4.6240   -1.1200 C.3       6 GLP5        0.0000 
     56 CA         12.1495    7.6850    0.5910 C.3       3 GLC5        0.0000 
     57 CA         12.2380    8.9850   -0.8570 C.3       6 GLP5        0.0000 
     58 CA         16.5245    9.6805    0.7930 C.3       3 GLC5        0.0000 
     59 CA         15.9170    8.7410    2.4690 C.3       9 GLL5        0.0000 
     60 CA         17.1320   10.6200   -0.8830 C.3       6 GLP5        0.0000 
     61 CA         15.6020   10.7770    2.7760 C.3       3 GLC5        0.0000 
     62 CA         15.2870   12.8130    3.0830 C.3       6 GLP5        0.0000 
     63 N          14.4125    7.6060   -0.3220 N.am      2 SEC2        0.0000 
     64 N          14.5140    7.2780    1.0990 N.am      8 SEL2        0.0000 
     65 N          14.3110    7.9340   -1.7430 N.am      5 SEP2        0.0000 
     66 O          15.2055    6.1340    0.4795 O.2       1 ALC1        0.0000 
     67 O          14.5140    7.2780    1.0990 O.2       7 ALL1        0.0000 
     68 O          15.8970    4.9900   -0.1400 O.2       4 ALP1        0.0000 
     69 CA         13.1570   20.3433   22.5981 C.3       3 GLC5        0.0000 
     70 CA         13.4470   21.1600   20.0210 C.3       9 GLL5        0.0000 
     71 CA         13.6370   18.9310   23.9250 C.3       6 GLP5        0.0000 
     72 CA         10.6640   18.6917   17.4465 C.3       3 GLC5        0.0000 
     73 CA         12.2190   20.1920   17.9740 C.3       9 GLL5        0.0000 
     74 CA         12.1035   17.7458   18.1805 C.3       3 GLC5        0.0000 
     75 CA         12.8090   19.0130   17.5120 C.3       9 GLL5        0.0000 
     76 CA         11.6930   15.8890   18.6180 C.3       6 GLP5        0.0000 
     77 CA         13.4054   21.6980   17.4357 C.3       3 GLC5        0.0000 
     78 CA         13.8918   20.2025   16.1555 C.3       3 GLC5        0.0000 
     79 CA         14.9860   21.6140   15.4620 C.3       6 GLP5        0.0000 
     80 CA         11.4653   16.9775   15.4402 C.3       3 GLC5        0.0000 
     81 CA         12.7860   18.5690   16.1860 C.3       9 GLL5        0.0000 
     82 CA          9.9050   15.9670   14.9190 C.3       6 GLP5        0.0000 
     83 CA         12.3592   16.9385   17.2897 C.3       3 GLC5        0.0000 
     84 CA         13.2650   17.4070   15.7370 C.3       9 GLL5        0.0000 
     85 CA         14.9088   18.2530   15.3223 C.3       3 GLC5        0.0000 
     86 CA         16.7920   18.5180   14.6830 C.3       6 GLP5        0.0000 
     87 CA         11.5305   16.3435   14.4808 C.3       3 GLC5        0.0000 
     88 CA         12.9860   17.2710   14.4360 C.3       9 GLL5        0.0000 
     89 CA         11.2850   16.2385   13.4065 C.3       3 GLC5        0.0000 
     90 CA         13.0480   15.9800   12.2930 C.3       9 GLL5        0.0000 
     91 CA         14.6720   17.3880   13.3034 C.3       3 GLC5        0.0000 
     92 CA         16.2420   18.4260   13.4390 C.3       6 GLP5        0.0000 
     93 CA         11.8027   13.6305   10.4800 C.3       3 GLC5        0.0000 
     94 CA         13.4640   14.8010   11.6690 C.3       9 GLL5        0.0000 
     95 CA         10.2510   12.6320    9.9580 C.3       6 GLP5        0.0000 
     96 CA         11.7030   11.5615    6.7230 C.3       3 GLC5        0.0000 
     97 CA         13.8360   11.6690    7.9170 C.3       9 GLL5        0.0000 
     98 CA          9.7420   11.5960    6.1910 C.3       6 GLP5        0.0000 
     99 CA         11.9749   12.4984    9.2446 C.3       3 GLC5        0.0000 
    100 CA         11.6523   10.8603    5.7207 C.3       3 GLC5        0.0000 
    101 CA         13.3430   10.0450    4.5930 C.3       9 GLL5        0.0000 
    102 CA         14.3885   11.6164    4.2524 C.3       3 GLC5        0.0000 
    103 CA         13.4920   11.3850    6.5930 C.3       9 GLL5        0.0000 
    104 CA         17.3358    7.9482    3.0135 C.3       3 GLC5        0.0000 
    105 CA         14.9640    7.5420    2.4350 C.3       9 GLL5        0.0000 
    106 CA         19.2310    7.7550    3.5750 C.3       6 GLP5        0.0000 
    107 CA         11.6743    4.4915    2.8090 C.3       3 GLC5        0.0000 
    108 CA         12.7130    6.6590    3.3960 C.3       9 GLL5        0.0000 
    109 CA         10.7760    2.7700    2.7700 C.3       6 GLP5        0.0000 
@<TRIPOS>BOND
@<TRIPOS>SUBSTRUCTURE
     1 ALC1       66 GROUP        1 X    ALC  0     ROOT ALC X 1
     2 SEC2       63 GROUP        1 X    SEC  0     **** SEC X 2
     3 GLC5        1 GROUP        1 X    GLC  0     **** GLC X 6
     4 ALP1       68 GROUP        1 Y    ALP  0     ROOT ALP Y 8
     5 SEP2       65 GROUP        1 Y    SEP  0     **** SEP Y 9
     6 GLP5        3 GROUP        1 Y    GLP  0     **** GLP Y 13
     7 ALL1       67 GROUP        1 Z    ALL  0     ROOT ALL Z 15
     8 SEL2       64 GROUP        1 Z    SEL  0     **** SEL Z 16
     9 GLL5        2 GROUP        1 Z    GLL  0     **** GLL Z 20
@<TRIPOS>SET

