#    Name: 2c9e_PID_3_ligand
#    Modification time : Mon Mar 24 23:22:10 2014

@<TRIPOS>MOLECULE
2c9e_PID_3_ligand
   96    99     1     0     0
SMALL
NO_CHARGES


@<TRIPOS>ATOM
      1 C1         13.4470   21.1600   20.0210 C.3       1 PID1331     0.0000 
      2 C2         13.2890   22.1440   21.1860 C.3       1 PID1331     0.0000 
      3 C3         11.9860   21.8590   21.9390 C.3       1 PID1331     0.0000 
      4 C4         10.8220   22.0550   20.9640 C.3       1 PID1331     0.0000 
      5 C5         10.8010   21.0200   19.8330 C.3       1 PID1331     0.0000 
      6 C6         12.1980   20.6480   19.2970 C.3       1 PID1331     0.0000 
      7 C7         12.2190   20.1920   17.9740 C.2       1 PID1331     0.0000 
      8 C8         12.8090   19.0130   17.5120 C.2       1 PID1331     0.0000 
      9 C9         12.7860   18.5690   16.1860 C.2       1 PID1331     0.0000 
     10 C10        12.1880   19.1820   15.0900 C.2       1 PID1331     0.0000 
     11 C11        13.2650   17.4070   15.7370 C.2       1 PID1331     0.0000 
     12 C12        12.9860   17.2710   14.4360 C.2       1 PID1331     0.0000 
     13 C13        13.3260   16.1690   13.6490 C.2       1 PID1331     0.0000 
     14 C14        13.0480   15.9800   12.2930 C.2       1 PID1331     0.0000 
     15 C15        13.4640   14.8010   11.6690 C.2       1 PID1331     0.0000 
     16 C16        13.2450   14.4570   10.3350 C.2       1 PID1331     0.0000 
     17 C17        13.6860   13.2430    9.8070 C.2       1 PID1331     0.0000 
     18 C18        13.4370   12.8780    8.4840 C.2       1 PID1331     0.0000 
     19 C19        13.8360   11.6690    7.9170 C.2       1 PID1331     0.0000 
     20 C20        13.4920   11.3850    6.5930 C.2       1 PID1331     0.0000 
     21 C21        13.7820   10.2040    5.9080 C.2       1 PID1331     0.0000 
     22 C22        13.3430   10.0450    4.5930 C.2       1 PID1331     0.0000 
     23 C23        13.5590    8.9490    3.9160 C.1       1 PID1331     0.0000 
     24 C24        13.7220    7.8130    3.2870 C.2       1 PID1331     0.0000 
     25 C25        12.7130    6.6590    3.3960 C.3       1 PID1331     0.0000 
     26 C26        13.4550    5.4230    3.9180 C.3       1 PID1331     0.0000 
     27 C27        14.7180    5.0990    3.1110 C.3       1 PID1331     0.0000 
     28 C28        15.6660    6.3010    3.0010 C.3       1 PID1331     0.0000 
     29 C29        14.9640    7.5420    2.4350 C.3       1 PID1331     0.0000 
     30 C30        15.0420    2.8010    3.6360 C.2       1 PID1331     0.0000 
     31 C31        15.8400    1.6700    4.2880 C.3       1 PID1331     0.0000 
     32 CM1        14.7670   21.3100   19.2620 C.3       1 PID1331     0.0000 
     33 CM2         9.9190   21.6090   18.7270 C.3       1 PID1331     0.0000 
     34 CM3        10.0990   19.7780   20.3870 C.3       1 PID1331     0.0000 
     35 CM4        12.2820   17.0400   11.4950 C.3       1 PID1331     0.0000 
     36 CM5        14.5430    9.0600    6.5890 C.3       1 PID1331     0.0000 
     37 CM6        11.6070    6.9810    4.4050 C.3       1 PID1331     0.0000 
     38 CM7        12.0610    6.3850    2.0390 C.3       1 PID1331     0.0000 
     39 CM8        15.9170    8.7410    2.4690 C.3       1 PID1331     0.0000 
     40 O1         12.9560   19.8290   20.2070 O.3       1 PID1331     0.0000 
     41 O2         11.8280   22.7700   23.0320 O.3       1 PID1331     0.0000 
     42 O3         11.6070   20.2650   15.0960 O.2       1 PID1331     0.0000 
     43 O4         12.3110   18.3740   13.9940 O.3       1 PID1331     0.0000 
     44 O5         14.5140    7.2780    1.0990 O.3       1 PID1331     0.0000 
     45 O6         15.4380    4.0880    3.8350 O.3       1 PID1331     0.0000 
     46 O7         14.1010    2.5370    2.8900 O.2       1 PID1331     0.0000 
     47 H          13.2658   23.1564   20.7988 H         1 PID1331     0.0000 
     48 H          14.1273   22.0330   21.8645 H         1 PID1331     0.0000 
     49 H          11.9890   20.8415   22.2571 H         1 PID1331     0.0000 
     50 H          10.8872   23.0598   20.5262 H         1 PID1331     0.0000 
     51 H           9.8764   21.9955   21.5189 H         1 PID1331     0.0000 
     52 H          11.7343   20.8090   17.2439 H         1 PID1331     0.0000 
     53 H          13.3143   18.4064   18.2223 H         1 PID1331     0.0000 
     54 H          13.7498   16.7494   16.2792 H         1 PID1331     0.0000 
     55 H          13.8631   15.3750   14.1426 H         1 PID1331     0.0000 
     56 H          13.9999   14.0977   12.2707 H         1 PID1331     0.0000 
     57 H          12.7396   15.1229    9.7174 H         1 PID1331     0.0000 
     58 H          14.2171   12.5899   10.4194 H         1 PID1331     0.0000 
     59 H          12.9123   13.5621    7.8730 H         1 PID1331     0.0000 
     60 H          14.3760   10.9945    8.4641 H         1 PID1331     0.0000 
     61 H          12.9591   12.1400    6.0572 H         1 PID1331     0.0000 
     62 H          12.8227   10.8594    4.1652 H         1 PID1331     0.0000 
     63 H          12.7790    4.5601    3.8846 H         1 PID1331     0.0000 
     64 H          13.7337    5.5898    4.9654 H         1 PID1331     0.0000 
     65 H          14.4535    4.7664    2.1451 H         1 PID1331     0.0000 
     66 H          16.5038    6.0365    2.3507 H         1 PID1331     0.0000 
     67 H          16.0618    6.5353    3.9926 H         1 PID1331     0.0000 
     68 H          16.7926    1.6644    3.9839 H         1 PID1331     0.0000 
     69 H          15.8509    1.7499    5.2847 H         1 PID1331     0.0000 
     70 H          15.4575    0.7721    4.0701 H         1 PID1331     0.0000 
     71 H          15.5567   21.1646   19.8580 H         1 PID1331     0.0000 
     72 H          14.8409   20.6528   18.5119 H         1 PID1331     0.0000 
     73 H          14.8646   22.2219   18.8633 H         1 PID1331     0.0000 
     74 H          10.2806   22.4768   18.3862 H         1 PID1331     0.0000 
     75 H           9.8465   20.9933   17.9423 H         1 PID1331     0.0000 
     76 H           8.9885   21.7851   19.0483 H         1 PID1331     0.0000 
     77 H          10.0438   19.0478   19.7060 H         1 PID1331     0.0000 
     78 H          10.5786   19.4032   21.1804 H         1 PID1331     0.0000 
     79 H           9.1636   19.9788   20.6779 H         1 PID1331     0.0000 
     80 H          12.7596   17.9186   11.4906 H         1 PID1331     0.0000 
     81 H          12.1583   16.7688   10.5405 H         1 PID1331     0.0000 
     82 H          11.3710   17.2035   11.8736 H         1 PID1331     0.0000 
     83 H          15.4499    9.3483    6.8963 H         1 PID1331     0.0000 
     84 H          14.0566    8.7170    7.3926 H         1 PID1331     0.0000 
     85 H          14.6754    8.2835    5.9729 H         1 PID1331     0.0000 
     86 H          11.9755    7.1459    5.3199 H         1 PID1331     0.0000 
     87 H          11.0930    7.7982    4.1444 H         1 PID1331     0.0000 
     88 H          10.9479    6.2332    4.4848 H         1 PID1331     0.0000 
     89 H          12.7368    6.1325    1.3465 H         1 PID1331     0.0000 
     90 H          11.3992    5.6370    2.0892 H         1 PID1331     0.0000 
     91 H          11.5723    7.1860    1.6933 H         1 PID1331     0.0000 
     92 H          16.2278    8.9421    3.3979 H         1 PID1331     0.0000 
     93 H          16.7339    8.5820    1.9146 H         1 PID1331     0.0000 
     94 H          15.4824    9.5709    2.1192 H         1 PID1331     0.0000 
     95 H          11.8953   22.2031   23.8530 H         1 PID1331     0.0000 
     96 H          15.0524    6.4919    0.7953 H         1 PID1331     0.0000 
@<TRIPOS>BOND
     1    2    1 1    
     2    6    1 1    
     3   32    1 1    
     4   40    1 1    
     5    3    2 1    
     6   47    2 1    
     7   48    2 1    
     8    4    3 1    
     9   41    3 1    
    10   49    3 1    
    11    5    4 1    
    12   50    4 1    
    13   51    4 1    
    14    6    5 1    
    15   33    5 1    
    16   34    5 1    
    17    7    6 1    
    18   40    6 1    
    19    8    7 2    
    20   52    7 1    
    21    9    8 1    
    22   53    8 1    
    23   10    9 1    
    24   11    9 2    
    25   42   10 2    
    26   43   10 1    
    27   12   11 1    
    28   54   11 1    
    29   13   12 2    
    30   43   12 1    
    31   14   13 1    
    32   55   13 1    
    33   15   14 2    
    34   35   14 1    
    35   16   15 1    
    36   56   15 1    
    37   17   16 2    
    38   57   16 1    
    39   18   17 1    
    40   58   17 1    
    41   19   18 2    
    42   59   18 1    
    43   20   19 1    
    44   60   19 1    
    45   21   20 2    
    46   61   20 1    
    47   22   21 1    
    48   36   21 1    
    49   23   22 2    
    50   62   22 1    
    51   24   23 2    
    52   25   24 1    
    53   29   24 1    
    54   26   25 1    
    55   37   25 1    
    56   38   25 1    
    57   27   26 1    
    58   63   26 1    
    59   64   26 1    
    60   28   27 1    
    61   45   27 1    
    62   65   27 1    
    63   29   28 1    
    64   66   28 1    
    65   67   28 1    
    66   39   29 1    
    67   44   29 1    
    68   31   30 1    
    69   45   30 1    
    70   46   30 2    
    71   68   31 1    
    72   69   31 1    
    73   70   31 1    
    74   71   32 1    
    75   72   32 1    
    76   73   32 1    
    77   74   33 1    
    78   75   33 1    
    79   76   33 1    
    80   77   34 1    
    81   78   34 1    
    82   79   34 1    
    83   80   35 1    
    84   81   35 1    
    85   82   35 1    
    86   83   36 1    
    87   84   36 1    
    88   85   36 1    
    89   86   37 1    
    90   87   37 1    
    91   88   37 1    
    92   89   38 1    
    93   90   38 1    
    94   91   38 1    
    95   92   39 1    
    96   93   39 1    
    97   94   39 1    
    98   95   41 1    
    99   96   44 1    
@<TRIPOS>SUBSTRUCTURE
     1 PID1331     1 GROUP   
@<TRIPOS>SET

