#    Name: 2gfx_PMN_1_INTS_M
#    Modification time : Tue Mar 25 14:05:18 2014

@<TRIPOS>MOLECULE
2gfx_PMN_1_INTS_M
   54     0     9     0     0
SMALL
NO_CHARGES


@<TRIPOS>ATOM
      1 N          24.3430   27.8180   55.8045 N.am      2 SEC2        0.0000 
      2 N          24.1250   28.3820   54.5470 N.am      8 SEL2        0.0000 
      3 N          24.5610   27.2540   57.0620 N.am      5 SEP2        0.0000 
      4 N          19.7480   28.0225   48.7820 N.am      2 SEC2        0.0000 
      5 N          20.4730   28.8990   49.7860 N.am      8 SEL2        0.0000 
      6 N          19.0230   27.1460   47.7780 N.am      5 SEP2        0.0000 
      7 N          17.4405   27.5665   51.9545 N.am      2 SEC2        0.0000 
      8 N          18.2830   26.8910   52.8500 N.am      8 SEL2        0.0000 
      9 N          16.5980   28.2420   51.0590 N.am      5 SEP2        0.0000 
     10 N          13.7600   29.3795   57.5910 N.am      2 SEC2        0.0000 
     11 N          15.2100   29.1180   56.9520 N.am      8 SEL2        0.0000 
     12 N          12.3100   29.6410   58.2300 N.am      5 SEP2        0.0000 
     13 N          13.1100   26.6895   57.6450 N.am      2 SEC2        0.0000 
     14 N          14.0870   27.4500   58.0170 N.am      8 SEL2        0.0000 
     15 N          12.1330   25.9290   57.2730 N.am      5 SEP2        0.0000 
     16 N          13.1985   28.5455   58.1235 N.am      2 SEC2        0.0000 
     17 O          20.6135   26.5195   55.3400 O.2       1 ALC1        0.0000 
     18 O          19.2370   26.6440   54.8890 O.2       7 ALL1        0.0000 
     19 O          21.9900   26.3950   55.7910 O.2       4 ALP1        0.0000 
     20 CA         21.7410   25.7815   53.2640 C.3       3 GLC5        0.0000 
     21 CA         20.5280   27.2740   52.8250 C.3       9 GLL5        0.0000 
     22 CA         22.9540   24.2890   53.7030 C.3       6 GLP5        0.0000 
     23 CA         20.2000   25.1760   52.8750 C.3       3 GLC5        0.0000 
     24 CA         19.8720   23.0780   52.9250 C.3       6 GLP5        0.0000 
     25 CA         20.5820   26.4435   50.8210 C.3       3 GLC5        0.0000 
     26 CA         20.6360   25.6130   48.8170 C.3       6 GLP5        0.0000 
     27 CA         18.7180   29.2015   51.9325 C.3       3 GLC5        0.0000 
     28 CA         20.4630   28.7710   52.9060 C.3       9 GLL5        0.0000 
     29 CA         16.9730   29.6320   50.9590 C.3       6 GLP5        0.0000 
     30 CA         21.6650   27.2530   49.3540 C.3       3 GLC5        0.0000 
     31 CA         22.6940   28.8930   49.8910 C.3       9 GLL5        0.0000 
     32 CA         23.2160   28.1815   56.0660 C.3       3 GLC5        0.0000 
     33 CA         22.9760   29.2170   54.1420 C.3       9 GLL5        0.0000 
     34 CA         23.4560   27.1460   57.9900 C.3       6 GLP5        0.0000 
     35 CA         23.7165   32.0475   56.1145 C.3       3 GLC5        0.0000 
     36 CA         23.5240   30.6230   54.4510 C.3       9 GLL5        0.0000 
     37 CA         23.9090   33.4720   57.7780 C.3       6 GLP5        0.0000 
     38 CA         21.8765   31.9035   55.0045 C.3       3 GLC5        0.0000 
     39 CA         20.2290   33.1840   55.5580 C.3       6 GLP5        0.0000 
     40 CA         24.6900   33.0445   52.3910 C.3       3 GLC5        0.0000 
     41 CA         24.5800   30.8360   52.1600 C.3       9 GLL5        0.0000 
     42 CA         24.8000   35.2530   52.6220 C.3       6 GLP5        0.0000 
     43 CA         20.8365   32.5310   53.1650 C.3       3 GLC5        0.0000 
     44 CA         21.3170   31.0770   52.0590 C.3       9 GLL5        0.0000 
     45 CA         20.3560   33.9850   54.2710 C.3       6 GLP5        0.0000 
     46 CA         19.9750   24.4430   55.5990 C.3       3 GLC5        0.0000 
     47 CA         18.0490   24.9990   56.4460 C.3       9 GLL5        0.0000 
     48 CA         21.9010   23.8870   54.7520 C.3       6 GLP5        0.0000 
     49 CA         18.9605   24.0385   54.6855 C.3       3 GLC5        0.0000 
     50 CA         13.9720   25.4130   56.8680 C.3       3 GLC5        0.0000 
     51 CA         16.0460   25.6090   57.6090 C.3       9 GLL5        0.0000 
     52 CA         11.8980   25.2170   56.1270 C.3       6 GLP5        0.0000 
     53 CA         16.0630   24.5055   59.0990 C.3       3 GLC5        0.0000 
     54 CA         15.6060   23.8750   60.7240 C.3       6 GLP5        0.0000 
@<TRIPOS>BOND
@<TRIPOS>SUBSTRUCTURE
     1 ALC1       17 GROUP        1 X    ALC  0     ROOT ALC X 1
     2 SEC2        1 GROUP        1 X    SEC  0     **** SEC X 2
     3 GLC5       20 GROUP        1 X    GLC  0     **** GLC X 6
     4 ALP1       19 GROUP        1 Y    ALP  0     ROOT ALP Y 8
     5 SEP2        3 GROUP        1 Y    SEP  0     **** SEP Y 9
     6 GLP5       22 GROUP        1 Y    GLP  0     **** GLP Y 13
     7 ALL1       18 GROUP        1 Z    ALL  0     ROOT ALL Z 15
     8 SEL2        2 GROUP        1 Z    SEL  0     **** SEL Z 16
     9 GLL5       21 GROUP        1 Z    GLL  0     **** GLL Z 20
@<TRIPOS>SET

