#    Name: 2gfx_PMN_1_ligand
#    Modification time : Tue Mar 25 14:05:19 2014

@<TRIPOS>MOLECULE
2gfx_PMN_1_ligand
   58    62     1     0     0
SMALL
NO_CHARGES


@<TRIPOS>ATOM
      1 O16        24.1250   28.3820   54.5470 O.3       1 PMN1001     0.0000 
      2 O19        20.4730   28.8990   49.7860 O.2       1 PMN1001     0.0000 
      3 O20        18.2830   26.8910   52.8500 O.2       1 PMN1001     0.0000 
      4 O30        18.9760   24.0760   56.1760 O.3       1 PMN1001     0.0000 
      5 O31        17.3750   28.4860   55.5000 O.3       1 PMN1001     0.0000 
      6 O32        15.2100   29.1180   56.9520 O.co2     1 PMN1001     0.0000 
      7 O33        14.0870   27.4500   58.0170 O.co2     1 PMN1001     0.0000 
      8 N28        19.2370   26.6440   54.8890 N.am      1 PMN1001     0.0000 
      9 C1         19.2660   26.9170   53.5430 C.2       1 PMN1001     0.0000 
     10 C2         20.5280   27.2740   52.8250 C.3       1 PMN1001     0.0000 
     11 C3         20.4630   28.7710   52.9060 C.3       1 PMN1001     0.0000 
     12 C4         21.4660   29.5040   52.0400 C.3       1 PMN1001     0.0000 
     13 C5         21.4430   29.0790   50.5160 C.2       1 PMN1001     0.0000 
     14 C6         22.6940   28.8930   49.8910 C.2       1 PMN1001     0.0000 
     15 C7         23.8460   29.0400   50.4800 C.2       1 PMN1001     0.0000 
     16 C8         24.0580   29.3940   51.8640 C.3       1 PMN1001     0.0000 
     17 C9         22.7770   29.0010   52.6570 C.3       1 PMN1001     0.0000 
     18 C10        22.9760   29.2170   54.1420 C.3       1 PMN1001     0.0000 
     19 C11        23.5240   30.6230   54.4510 C.3       1 PMN1001     0.0000 
     20 C12        24.8900   30.5470   53.6980 C.3       1 PMN1001     0.0000 
     21 C13        24.5800   30.8360   52.1600 C.3       1 PMN1001     0.0000 
     22 C14        25.2170   28.5030   52.4250 C.3       1 PMN1001     0.0000 
     23 C15        25.2790   29.0290   53.8730 C.3       1 PMN1001     0.0000 
     24 C17        26.5200   28.7030   54.6600 C.3       1 PMN1001     0.0000 
     25 C18        21.3170   31.0770   52.0590 C.3       1 PMN1001     0.0000 
     26 C21        15.0890   27.9610   57.3510 C.2       1 PMN1001     0.0000 
     27 C22        16.1410   26.9080   57.0270 C.ar      1 PMN1001     0.0000 
     28 C23        17.2020   27.2480   56.1240 C.ar      1 PMN1001     0.0000 
     29 C24        18.1600   26.2550   55.8280 C.ar      1 PMN1001     0.0000 
     30 C25        18.0490   24.9990   56.4460 C.ar      1 PMN1001     0.0000 
     31 C26        16.9940   24.6630   57.3390 C.ar      1 PMN1001     0.0000 
     32 C27        16.0460   25.6090   57.6090 C.ar      1 PMN1001     0.0000 
     33 H          20.2180   26.7232   55.4179 H         1 PMN1001     0.0000 
     34 H          20.4804   26.9616   51.8201 H         1 PMN1001     0.0000 
     35 H          21.3659   26.9170   53.3543 H         1 PMN1001     0.0000 
     36 H          20.6076   29.0864   53.9620 H         1 PMN1001     0.0000 
     37 H          19.4406   29.1079   52.6287 H         1 PMN1001     0.0000 
     38 H          22.6464   28.6109   48.8567 H         1 PMN1001     0.0000 
     39 H          24.7624   28.8954   49.9280 H         1 PMN1001     0.0000 
     40 H          22.7428   27.8418   52.5324 H         1 PMN1001     0.0000 
     41 H          22.1496   29.0169   54.7020 H         1 PMN1001     0.0000 
     42 H          23.6994   30.7231   55.4714 H         1 PMN1001     0.0000 
     43 H          22.9255   31.3471   54.0045 H         1 PMN1001     0.0000 
     44 H          25.5647   31.1583   54.0840 H         1 PMN1001     0.0000 
     45 H          23.8153   31.5025   52.1016 H         1 PMN1001     0.0000 
     46 H          25.4586   30.9952   51.6750 H         1 PMN1001     0.0000 
     47 H          26.0981   28.7318   51.9222 H         1 PMN1001     0.0000 
     48 H          24.9170   27.5073   52.4176 H         1 PMN1001     0.0000 
     49 H          16.9692   23.7353   57.7524 H         1 PMN1001     0.0000 
     50 H          15.2510   25.4103   58.2304 H         1 PMN1001     0.0000 
     51 H          27.3367   29.1104   54.2513 H         1 PMN1001     0.0000 
     52 H          26.4631   29.0403   55.5997 H         1 PMN1001     0.0000 
     53 H          26.6788   27.7170   54.7116 H         1 PMN1001     0.0000 
     54 H          21.4292   31.4496   52.9802 H         1 PMN1001     0.0000 
     55 H          21.9986   31.5217   51.4779 H         1 PMN1001     0.0000 
     56 H          20.4181   31.3689   51.7323 H         1 PMN1001     0.0000 
     57 H          18.7300   23.2891   56.7419 H         1 PMN1001     0.0000 
     58 H          16.6093   29.0451   55.8179 H         1 PMN1001     0.0000 
@<TRIPOS>BOND
     1   18    1 1    
     2   23    1 1    
     3   13    2 2    
     4    9    3 2    
     5   30    4 1    
     6   57    4 1    
     7   28    5 1    
     8   58    5 1    
     9   26    6 ar   
    10   26    7 ar   
    11    9    8 am   
    12   29    8 1    
    13   33    8 1    
    14   10    9 1    
    15   11   10 1    
    16   34   10 1    
    17   35   10 1    
    18   12   11 1    
    19   36   11 1    
    20   37   11 1    
    21   13   12 1    
    22   17   12 1    
    23   25   12 1    
    24   14   13 1    
    25   15   14 2    
    26   38   14 1    
    27   16   15 1    
    28   39   15 1    
    29   17   16 1    
    30   21   16 1    
    31   22   16 1    
    32   18   17 1    
    33   40   17 1    
    34   19   18 1    
    35   41   18 1    
    36   20   19 1    
    37   42   19 1    
    38   43   19 1    
    39   21   20 1    
    40   23   20 1    
    41   44   20 1    
    42   45   21 1    
    43   46   21 1    
    44   23   22 1    
    45   47   22 1    
    46   48   22 1    
    47   24   23 1    
    48   51   24 1    
    49   52   24 1    
    50   53   24 1    
    51   54   25 1    
    52   55   25 1    
    53   56   25 1    
    54   27   26 1    
    55   28   27 ar   
    56   32   27 ar   
    57   29   28 ar   
    58   30   29 ar   
    59   31   30 ar   
    60   32   31 ar   
    61   49   31 1    
    62   50   32 1    
@<TRIPOS>SUBSTRUCTURE
     1 PMN1001     1 GROUP   
@<TRIPOS>SET

