#    Name: 1tou_B1V_1_INTS_M
#    Modification time : Tue Mar 25 05:33:51 2014

@<TRIPOS>MOLECULE
1tou_B1V_1_INTS_M
   51     0     6     0     0
SMALL
NO_CHARGES


@<TRIPOS>ATOM
      1 CA         21.8665    7.0870    3.4725 C.3       2 GLC5        0.0000 
      2 CA         21.4910    5.6460    4.6240 C.3       6 GLL5        0.0000 
      3 CA         22.2420    8.5280    2.3210 C.3       4 GLP5        0.0000 
      4 CA         22.8175    6.5465    5.3425 C.3       2 GLC5        0.0000 
      5 CA         24.1440    7.4470    6.0610 C.3       4 GLP5        0.0000 
      6 CA         17.8150    6.6215    5.9135 C.3       2 GLC5        0.0000 
      7 CA         19.6730    5.4360    5.6480 C.3       6 GLL5        0.0000 
      8 CA         15.9570    7.8070    6.1790 C.3       4 GLP5        0.0000 
      9 CA         17.2670    7.0955    4.8195 C.3       2 GLC5        0.0000 
     10 CA         18.5770    6.3840    3.4600 C.3       6 GLL5        0.0000 
     11 N          17.7810    8.4630    1.6310 N.am      1 SEC2        0.0000 
     12 N          16.9360    7.6350    2.2460 N.am      5 SEL2        0.0000 
     13 N          18.6260    9.2910    1.0160 N.am      3 SEP2        0.0000 
     14 N          16.1775    7.2355    1.2105 N.am      1 SEC2        0.0000 
     15 N          15.4190    6.8360    0.1750 N.am      3 SEP2        0.0000 
     16 N          18.4630    7.7050    1.0705 N.am      1 SEC2        0.0000 
     17 N          18.3000    6.1190    1.1250 N.am      5 SEL2        0.0000 
     18 N          18.5715    7.2550    0.0220 N.am      1 SEC2        0.0000 
     19 N          18.8430    8.3910   -1.0810 N.am      3 SEP2        0.0000 
     20 CA         18.2965    5.2960   -1.7225 C.3       2 GLC5        0.0000 
     21 CA         19.7160    4.4530   -0.4020 C.3       6 GLL5        0.0000 
     22 CA         16.8770    6.1390   -3.0430 C.3       4 GLP5        0.0000 
     23 CA         22.2320    1.8565   -0.2280 C.3       2 GLC5        0.0000 
     24 CA         21.0660    3.3370    0.0700 C.3       6 GLL5        0.0000 
     25 CA         23.3980    0.3760   -0.5260 C.3       4 GLP5        0.0000 
     26 CA         22.7395    5.8000    1.6745 C.3       2 GLC5        0.0000 
     27 CA         23.0240    3.8540    2.1660 C.3       6 GLL5        0.0000 
     28 CA         22.4550    7.7460    1.1830 C.3       4 GLP5        0.0000 
     29 CA         23.2110    2.1150    0.8200 C.3       2 GLC5        0.0000 
     30 CA         23.5025    6.2710    0.8655 C.3       2 GLC5        0.0000 
     31 CA         24.5500    4.7960    0.5480 C.3       6 GLL5        0.0000 
     32 CA         25.5110    6.2990    0.1055 C.3       2 GLC5        0.0000 
     33 CA         26.4720    7.8020   -0.3370 C.3       4 GLP5        0.0000 
     34 CA         24.8815    5.4140   -1.3765 C.3       2 GLC5        0.0000 
     35 CA         25.2130    6.0320   -3.3010 C.3       4 GLP5        0.0000 
     36 CA         19.9601    6.9709    5.7655 C.3       2 GLC5        0.0000 
     37 CA         19.6330    8.5480    6.3920 C.3       4 GLP5        0.0000 
     38 CA         20.4018    4.1659    6.6860 C.3       2 GLC5        0.0000 
     39 CA         20.4200    3.7620    8.4630 C.3       4 GLP5        0.0000 
     40 CA         19.3575    7.2255    4.9185 C.3       2 GLC5        0.0000 
     41 CA         19.5870    5.4220    3.4300 C.3       6 GLL5        0.0000 
     42 CA         18.5445    8.4037    2.4875 C.3       2 GLC5        0.0000 
     43 CA         18.8340   10.2600    2.1100 C.3       4 GLP5        0.0000 
     44 CA         26.1040    6.1870    1.7515 C.3       2 GLC5        0.0000 
     45 CA         25.4890    4.0960    2.8100 C.3       6 GLL5        0.0000 
     46 CA         26.5700    8.1370    1.4320 C.3       4 GLP5        0.0000 
     47 CA         27.5190    4.6235    2.2645 C.3       2 GLC5        0.0000 
     48 CA         25.7870    4.3780    1.3320 C.3       6 GLL5        0.0000 
     49 CA         29.4000    5.0100    2.4580 C.3       4 GLP5        0.0000 
     50 CA         27.0185    2.8170    1.6515 C.3       2 GLC5        0.0000 
     51 CA         28.3990    1.3970    1.2320 C.3       4 GLP5        0.0000 
@<TRIPOS>BOND
@<TRIPOS>SUBSTRUCTURE
     1 SEC2       11 GROUP        1 X    SEC  0     ROOT SEC X 2
     2 GLC5        1 GROUP        1 X    GLC  0     **** GLC X 6
     3 SEP2       13 GROUP        1 Y    SEP  0     ROOT SEP Y 9
     4 GLP5        3 GROUP        1 Y    GLP  0     **** GLP Y 13
     5 SEL2       12 GROUP        1 Z    SEL  0     ROOT SEL Z 16
     6 GLL5        2 GROUP        1 Z    GLL  0     **** GLL Z 20
@<TRIPOS>SET

