#    Name: 1tou_B1V_1_ligand
#    Modification time : Tue Mar 25 05:33:51 2014

@<TRIPOS>MOLECULE
1tou_B1V_1_ligand
   35    36     1     0     0
SMALL
NO_CHARGES


@<TRIPOS>ATOM
      1 F27        21.4910    5.6460    4.6240 F         1 B1V501      0.0000 
      2 C24        20.3120    5.0570    4.6360 C.3       1 B1V501      0.0000 
      3 F25        19.6730    5.4360    5.6480 F         1 B1V501      0.0000 
      4 F26        20.4800    3.7460    4.6790 F         1 B1V501      0.0000 
      5 C9         19.5870    5.4220    3.4300 C.ar      1 B1V501      0.0000 
      6 N11        19.9250    4.8530    2.2500 N.ar      1 B1V501      0.0000 
      7 C7         18.5770    6.3840    3.4600 C.ar      1 B1V501      0.0000 
      8 C5         17.9330    6.7110    2.2700 C.ar      1 B1V501      0.0000 
      9 O13        16.9360    7.6350    2.2460 O.3       1 B1V501      0.0000 
     10 N3         18.3000    6.1190    1.1250 N.ar      1 B1V501      0.0000 
     11 C1         19.2910    5.1970    1.1210 C.ar      1 B1V501      0.0000 
     12 S14        19.7160    4.4530   -0.4020 S.3       1 B1V501      0.0000 
     13 C15        21.0660    3.3370    0.0700 C.3       1 B1V501      0.0000 
     14 C16        22.4160    3.9900   -0.1690 C.2       1 B1V501      0.0000 
     15 O23        22.6210    4.6460   -1.1830 O.2       1 B1V501      0.0000 
     16 N17        23.4750    3.8060    0.7610 N.am      1 B1V501      0.0000 
     17 C18        23.0240    3.8540    2.1660 C.3       1 B1V501      0.0000 
     18 C19        24.1510    3.3950    3.0960 C.3       1 B1V501      0.0000 
     19 C20        25.4890    4.0960    2.8100 C.3       1 B1V501      0.0000 
     20 C21        25.7870    4.3780    1.3320 C.3       1 B1V501      0.0000 
     21 C22        24.5500    4.7960    0.5480 C.3       1 B1V501      0.0000 
     22 H          18.3177    6.8361    4.3338 H         1 B1V501      0.0000 
     23 H          20.8827    2.4866   -0.5464 H         1 B1V501      0.0000 
     24 H          20.8541    3.1474    1.0976 H         1 B1V501      0.0000 
     25 H          22.1645    3.1989    2.3166 H         1 B1V501      0.0000 
     26 H          22.7398    4.8701    2.4441 H         1 B1V501      0.0000 
     27 H          24.2875    2.3123    2.9871 H         1 B1V501      0.0000 
     28 H          23.8618    3.5932    4.1352 H         1 B1V501      0.0000 
     29 H          26.3083    3.4770    3.2263 H         1 B1V501      0.0000 
     30 H          25.5122    5.0538    3.3667 H         1 B1V501      0.0000 
     31 H          26.2149    3.4749    0.8784 H         1 B1V501      0.0000 
     32 H          26.5415    5.1724    1.2682 H         1 B1V501      0.0000 
     33 H          24.2360    5.7812    0.8905 H         1 B1V501      0.0000 
     34 H          24.8101    4.8569   -0.5081 H         1 B1V501      0.0000 
     35 H          16.8346    7.9308    3.1958 H         1 B1V501      0.0000 
@<TRIPOS>BOND
     1    2    1 1    
     2    3    2 1    
     3    4    2 1    
     4    5    2 1    
     5    6    5 ar   
     6    7    5 ar   
     7   11    6 ar   
     8    8    7 ar   
     9   22    7 1    
    10    9    8 1    
    11   10    8 ar   
    12   35    9 1    
    13   11   10 ar   
    14   12   11 1    
    15   13   12 1    
    16   14   13 1    
    17   23   13 1    
    18   24   13 1    
    19   15   14 2    
    20   16   14 am   
    21   17   16 1    
    22   21   16 1    
    23   18   17 1    
    24   25   17 1    
    25   26   17 1    
    26   19   18 1    
    27   27   18 1    
    28   28   18 1    
    29   20   19 1    
    30   29   19 1    
    31   30   19 1    
    32   21   20 1    
    33   31   20 1    
    34   32   20 1    
    35   33   21 1    
    36   34   21 1    
@<TRIPOS>SUBSTRUCTURE
     1 B1V501      1 GROUP   
@<TRIPOS>SET

