#    Name: 4jal_SAH_2_INTS_M
#    Modification time : Tue Mar 25 05:39:49 2014

@<TRIPOS>MOLECULE
4jal_SAH_2_INTS_M
   58     0     9     0     0
SMALL
NO_CHARGES


@<TRIPOS>ATOM
      1 CA        -19.2380    1.2225   12.6105 C.3       3 GLC5        0.0000 
      2 CA        -17.7300    0.7760   14.1070 C.3       9 GLL5        0.0000 
      3 CA        -20.7460    1.6690   11.1140 C.3       6 GLP5        0.0000 
      4 CA        -16.8925    4.3180   13.6410 C.3       3 GLC5        0.0000 
      5 CA        -16.0410    2.6120   12.8740 C.3       9 GLL5        0.0000 
      6 CA        -17.7440    6.0240   14.4080 C.3       6 GLP5        0.0000 
      7 N         -16.9960    1.9930    9.1385 N.am      2 SEC2        0.0000 
      8 N         -17.3380    1.1990   10.3770 N.am      8 SEL2        0.0000 
      9 N         -16.6540    2.7870    7.9000 N.am      5 SEP2        0.0000 
     10 CA        -14.0115   -0.9485    8.6910 C.3       3 GLC5        0.0000 
     11 CA        -15.2130   -0.0560   10.3580 C.3       9 GLL5        0.0000 
     12 CA        -12.8100   -1.8410    7.0240 C.3       6 GLP5        0.0000 
     13 N         -15.8145    1.6075    8.4975 N.am      2 SEC2        0.0000 
     14 N         -14.9750    0.4280    9.0950 N.am      8 SEL2        0.0000 
     15 O         -15.3365   -0.7095    8.4290 O.2       1 ALC1        0.0000 
     16 O         -14.9750    0.4280    9.0950 O.2       7 ALL1        0.0000 
     17 O         -15.6980   -1.8470    7.7630 O.2       4 ALP1        0.0000 
     18 CA        -12.8295    0.8785    9.5660 C.3       3 GLC5        0.0000 
     19 CA        -13.9860    0.1930   11.1460 C.3       9 GLL5        0.0000 
     20 CA        -11.6730    1.5640    7.9860 C.3       6 GLP5        0.0000 
     21 CA        -11.9275    0.4070   11.5630 C.3       3 GLC5        0.0000 
     22 CA         -9.8690    0.6210   11.9800 C.3       6 GLP5        0.0000 
     23 CA        -11.8705   -1.8585   14.3130 C.3       3 GLC5        0.0000 
     24 CA        -12.9960   -2.8600   12.7940 C.3       9 GLL5        0.0000 
     25 CA        -10.7450   -0.8570   15.8320 C.3       6 GLP5        0.0000 
     26 CA        -10.8660   -4.8035   12.2015 C.3       3 GLC5        0.0000 
     27 CA        -12.6140   -4.2630   12.5960 C.3       9 GLL5        0.0000 
     28 CA         -9.1180   -5.3440   11.8070 C.3       6 GLP5        0.0000 
     29 O         -11.4405   -6.2630   13.5025 O.2       1 ALC1        0.0000 
     30 O         -12.2920   -5.0750   13.5990 O.2       7 ALL1        0.0000 
     31 O         -10.5890   -7.4510   13.4060 O.2       4 ALP1        0.0000 
     32 N         -11.6735   -5.7515   10.9905 N.am      2 SEC2        0.0000 
     33 N         -12.6200   -4.7000   11.3410 N.am      8 SEL2        0.0000 
     34 N         -10.7270   -6.8030   10.6400 N.am      5 SEP2        0.0000 
     35 CA        -11.8860   -3.6700    8.7430 C.3       3 GLC5        0.0000 
     36 CA        -12.9550   -3.9250   10.3220 C.3       9 GLL5        0.0000 
     37 CA        -10.8170   -3.4150    7.1640 C.3       6 GLP5        0.0000 
     38 CA        -14.6800   -4.0620    9.6445 C.3       3 GLC5        0.0000 
     39 CA        -16.4050   -4.1990    8.9670 C.3       6 GLP5        0.0000 
     40 CA        -12.7255   -5.8975    9.8405 C.3       3 GLC5        0.0000 
     41 CA        -12.4960   -7.8700    9.3590 C.3       6 GLP5        0.0000 
     42 CA        -10.9500   -4.1930   10.4430 C.3       3 GLC5        0.0000 
     43 CA         -8.9450   -4.4610   10.5640 C.3       6 GLP5        0.0000 
     44 CA        -11.6005   -0.7365   11.7980 C.3       3 GLC5        0.0000 
     45 CA        -13.3320   -2.0940   11.6160 C.3       9 GLL5        0.0000 
     46 CA        -17.2620   -0.3177   16.4710 C.3       3 GLC5        0.0000 
     47 CA        -18.8400    0.8430   15.1590 C.3       9 GLL5        0.0000 
     48 CA        -15.7640   -1.0330   17.1740 C.3       6 GLP5        0.0000 
     49 CA        -16.3620    0.0843   15.6857 C.3       3 GLC5        0.0000 
     50 CA        -14.3502    3.4488   11.4345 C.3       3 GLC5        0.0000 
     51 CA        -12.9560    4.6390   10.6070 C.3       6 GLP5        0.0000 
     52 CA        -16.8667    2.3875    9.8500 C.3       3 GLC5        0.0000 
     53 CA        -15.4480    1.9050   11.6500 C.3       9 GLL5        0.0000 
     54 CA        -17.8890    3.4470    8.3210 C.3       6 GLP5        0.0000 
     55 CA        -11.0750   -2.7265   11.5435 C.3       3 GLC5        0.0000 
     56 CA         -8.9860   -2.9760   10.8820 C.3       6 GLP5        0.0000 
     57 CA        -14.5408   -3.7024   13.1253 C.3       3 GLC5        0.0000 
     58 CA        -16.0130   -4.5770   14.0950 C.3       6 GLP5        0.0000 
@<TRIPOS>BOND
@<TRIPOS>SUBSTRUCTURE
     1 ALC1       15 GROUP        1 X    ALC  0     ROOT ALC X 1
     2 SEC2        7 GROUP        1 X    SEC  0     **** SEC X 2
     3 GLC5        1 GROUP        1 X    GLC  0     **** GLC X 6
     4 ALP1       17 GROUP        1 Y    ALP  0     ROOT ALP Y 8
     5 SEP2        9 GROUP        1 Y    SEP  0     **** SEP Y 9
     6 GLP5        3 GROUP        1 Y    GLP  0     **** GLP Y 13
     7 ALL1       16 GROUP        1 Z    ALL  0     ROOT ALL Z 15
     8 SEL2        8 GROUP        1 Z    SEL  0     **** SEL Z 16
     9 GLL5        2 GROUP        1 Z    GLL  0     **** GLL Z 20
@<TRIPOS>SET

