#    Name: 4jal_SAH_2_ligand
#    Modification time : Tue Mar 25 05:39:49 2014

@<TRIPOS>MOLECULE
4jal_SAH_2_ligand
   46    48     1     0     0
SMALL
NO_CHARGES


@<TRIPOS>ATOM
      1 N         -19.9310   -0.6610   16.8240 N.4       1 SAH203      0.0000 
      2 CA        -18.6800   -0.0480   16.3770 C.3       1 SAH203      0.0000 
      3 CB        -18.8400    0.8430   15.1590 C.3       1 SAH203      0.0000 
      4 CG        -17.7300    0.7760   14.1070 C.3       1 SAH203      0.0000 
      5 SD        -16.1900    1.6270   14.2880 S.3       1 SAH203      0.0000 
      6 C         -18.2000    0.7640   17.5250 C.2       1 SAH203      0.0000 
      7 O         -17.6230    1.8470   17.3150 O.co2     1 SAH203      0.0000 
      8 OXT       -18.4000    0.2690   18.6420 O.co2     1 SAH203      0.0000 
      9 C5'       -16.0410    2.6120   12.8740 C.3       1 SAH203      0.0000 
     10 C4'       -15.4480    1.9050   11.6500 C.3       1 SAH203      0.0000 
     11 O4'       -14.1870    1.3600   11.8740 O.3       1 SAH203      0.0000 
     12 C3'       -16.2410    0.7510   11.1080 C.3       1 SAH203      0.0000 
     13 O3'       -17.3380    1.1990   10.3770 O.3       1 SAH203      0.0000 
     14 C2'       -15.2130   -0.0560   10.3580 C.3       1 SAH203      0.0000 
     15 O2'       -14.9750    0.4280    9.0950 O.3       1 SAH203      0.0000 
     16 C1'       -13.9860    0.1930   11.1460 C.3       1 SAH203      0.0000 
     17 N9        -13.6310   -0.9160   12.0210 N.pl3     1 SAH203      0.0000 
     18 C8        -13.4850   -0.8670   13.3110 C.2       1 SAH203      0.0000 
     19 N7        -13.1210   -2.0350   13.7980 N.2       1 SAH203      0.0000 
     20 C5        -12.9960   -2.8600   12.7940 C.ar      1 SAH203      0.0000 
     21 C6        -12.6140   -4.2630   12.5960 C.ar      1 SAH203      0.0000 
     22 N6        -12.2920   -5.0750   13.5990 N.pl3     1 SAH203      0.0000 
     23 N1        -12.6200   -4.7000   11.3410 N.ar      1 SAH203      0.0000 
     24 C2        -12.9550   -3.9250   10.3220 C.ar      1 SAH203      0.0000 
     25 N3        -13.3060   -2.6690   10.4300 N.ar      1 SAH203      0.0000 
     26 C4        -13.3320   -2.0940   11.6160 C.ar      1 SAH203      0.0000 
     27 H         -17.9466   -0.8091   16.1708 H         1 SAH203      0.0000 
     28 H         -18.9394    1.9014   15.4973 H         1 SAH203      0.0000 
     29 H         -19.8094    0.6032   14.6619 H         1 SAH203      0.0000 
     30 H         -18.0906    1.1338   13.1057 H         1 SAH203      0.0000 
     31 H         -17.4039   -0.2821   13.9204 H         1 SAH203      0.0000 
     32 H         -15.4260    3.4503   13.1957 H         1 SAH203      0.0000 
     33 H         -17.0529    2.9663   12.6871 H         1 SAH203      0.0000 
     34 H         -15.3778    2.6482   10.8281 H         1 SAH203      0.0000 
     35 H         -16.5326    0.1551   11.9856 H         1 SAH203      0.0000 
     36 H         -15.4545   -1.0742   10.4184 H         1 SAH203      0.0000 
     37 H         -13.1627    0.3512   10.4234 H         1 SAH203      0.0000 
     38 H         -13.6284   -0.0509   13.8717 H         1 SAH203      0.0000 
     39 H         -12.7001   -4.8613   14.4865 H         1 SAH203      0.0000 
     40 H         -11.6707   -5.8260   13.3751 H         1 SAH203      0.0000 
     41 H         -12.9354   -4.3663    9.3328 H         1 SAH203      0.0000 
     42 H         -19.7945   -1.2395   17.6282 H         1 SAH203      0.0000 
     43 H         -20.6143    0.0264   17.0700 H         1 SAH203      0.0000 
     44 H         -20.3368   -1.2368   16.1142 H         1 SAH203      0.0000 
     45 H         -17.6462    0.4016    9.8581 H         1 SAH203      0.0000 
     46 H         -15.6006   -0.0786    8.5017 H         1 SAH203      0.0000 
@<TRIPOS>BOND
     1    2    1 1    
     2   42    1 1    
     3   43    1 1    
     4   44    1 1    
     5    3    2 1    
     6    6    2 1    
     7   27    2 1    
     8    4    3 1    
     9   28    3 1    
    10   29    3 1    
    11    5    4 1    
    12   30    4 1    
    13   31    4 1    
    14    9    5 1    
    15    7    6 ar   
    16    8    6 ar   
    17   10    9 1    
    18   32    9 1    
    19   33    9 1    
    20   11   10 1    
    21   12   10 1    
    22   34   10 1    
    23   16   11 1    
    24   13   12 1    
    25   14   12 1    
    26   35   12 1    
    27   45   13 1    
    28   15   14 1    
    29   16   14 1    
    30   36   14 1    
    31   46   15 1    
    32   17   16 1    
    33   37   16 1    
    34   18   17 1    
    35   26   17 1    
    36   19   18 2    
    37   38   18 1    
    38   20   19 1    
    39   21   20 ar   
    40   26   20 ar   
    41   22   21 1    
    42   23   21 ar   
    43   39   22 1    
    44   40   22 1    
    45   24   23 ar   
    46   25   24 ar   
    47   41   24 1    
    48   26   25 ar   
@<TRIPOS>SUBSTRUCTURE
     1 SAH203      1 GROUP   
@<TRIPOS>SET

