#    Name: 3koo_24D_1_INTS_M
#    Modification time : Mon Mar 24 19:58:29 2014

@<TRIPOS>MOLECULE
3koo_24D_1_INTS_M
   77     0     9     0     0
SMALL
NO_CHARGES


@<TRIPOS>ATOM
      1 CA         76.6430   -7.8540   72.9705 C.3       3 GLC5        0.0000 
      2 CA         75.8010   -8.4220   71.5040 C.3       9 GLL5        0.0000 
      3 CA         77.4850   -7.2860   74.4370 C.3       6 GLP5        0.0000 
      4 CA         74.6220   -7.0500   71.8195 C.3       3 GLC5        0.0000 
      5 CA         73.4430   -5.6780   72.1350 C.3       6 GLP5        0.0000 
      6 CA         76.8515   -7.2465   68.6340 C.3       3 GLC5        0.0000 
      7 CA         75.2180   -7.8830   68.8990 C.3       9 GLL5        0.0000 
      8 CA         78.4850   -6.6100   68.3690 C.3       6 GLP5        0.0000 
      9 CA         76.4240   -7.3145   67.2755 C.3       3 GLC5        0.0000 
     10 CA         74.6840   -8.1720   67.6470 C.3       9 GLL5        0.0000 
     11 CA         78.1640   -6.4570   66.9040 C.3       6 GLP5        0.0000 
     12 CA         72.4435  -11.2900   65.6040 C.3       3 GLC5        0.0000 
     13 CA         73.4590   -9.7490   66.0710 C.3       9 GLL5        0.0000 
     14 CA         71.4280  -12.8310   65.1370 C.3       6 GLP5        0.0000 
     15 CA         73.7710  -11.0375   64.3880 C.3       3 GLC5        0.0000 
     16 CA         74.0830  -12.3260   62.7050 C.3       6 GLP5        0.0000 
     17 O          72.0705   -8.5620   65.2845 O.2       1 ALC1        0.0000 
     18 O          73.5580   -8.6370   65.1250 O.2       7 ALL1        0.0000 
     19 O          70.5830   -8.4870   65.4440 O.2       4 ALP1        0.0000 
     20 O          72.7880   -7.7695   65.4865 O.2       1 ALC1        0.0000 
     21 O          72.0180   -6.9020   65.8480 O.2       4 ALP1        0.0000 
     22 N          76.8830   -9.5640   65.1120 N.am      2 SEC2        0.0000 
     23 N          75.5840   -9.2840   64.5770 N.am      8 SEL2        0.0000 
     24 N          78.1820   -9.8440   65.6470 N.am      5 SEP2        0.0000 
     25 N          74.7345  -10.5660   64.2785 N.am      2 SEC2        0.0000 
     26 N          73.8850  -11.8480   63.9800 N.am      5 SEP2        0.0000 
     27 CA         74.8195   -8.4135   60.3120 C.3       3 GLC5        0.0000 
     28 CA         75.7920   -7.1070   61.3060 C.3       9 GLL5        0.0000 
     29 CA         73.8470   -9.7200   59.3180 C.3       6 GLP5        0.0000 
     30 CA         73.8070   -7.6735   60.6845 C.3       3 GLC5        0.0000 
     31 CA         74.8260   -5.9140   61.1870 C.3       9 GLL5        0.0000 
     32 CA         72.7880   -9.4330   60.1820 C.3       6 GLP5        0.0000 
     33 CA         74.5050   -4.5830   59.5455 C.3       3 GLC5        0.0000 
     34 CA         74.1840   -3.2520   57.9040 C.3       6 GLP5        0.0000 
     35 CA         73.5430   -3.4350   62.2445 C.3       3 GLC5        0.0000 
     36 CA         74.3760   -5.3700   62.5470 C.3       9 GLL5        0.0000 
     37 CA         72.7100   -1.5000   61.9420 C.3       6 GLP5        0.0000 
     38 CA         75.4480   -4.4165   63.7480 C.3       3 GLC5        0.0000 
     39 CA         76.5200   -3.4630   64.9490 C.3       6 GLP5        0.0000 
     40 CA         72.0035   -5.7410   64.0850 C.3       3 GLC5        0.0000 
     41 CA         73.7690   -6.5550   63.3010 C.3       9 GLL5        0.0000 
     42 CA         70.2380   -4.9270   64.8690 C.3       6 GLP5        0.0000 
     43 CA         72.5790   -7.9200   62.6085 C.3       3 GLC5        0.0000 
     44 CA         71.3890   -9.2850   61.9160 C.3       6 GLP5        0.0000 
     45 CA         74.0225   -4.9980   64.6725 C.3       3 GLC5        0.0000 
     46 CA         74.2760   -3.4410   66.0440 C.3       6 GLP5        0.0000 
     47 CA         75.3355   -3.7000   59.3820 C.3       3 GLC5        0.0000 
     48 CA         76.4870   -4.1480   60.8600 C.3       9 GLL5        0.0000 
     49 CA         76.5035   -3.8055   62.9045 C.3       3 GLC5        0.0000 
     50 CA         72.2875  -12.3050   66.5890 C.3       3 GLC5        0.0000 
     51 CA         73.1470  -11.7790   68.0410 C.3       9 GLL5        0.0000 
     52 CA         71.7330  -11.1500   69.5910 C.3       3 GLC5        0.0000 
     53 CA         70.3190  -10.5210   71.1410 C.3       6 GLP5        0.0000 
     54 CA         76.2645  -11.3055   70.1020 C.3       3 GLC5        0.0000 
     55 CA         74.4900  -10.0200   69.6910 C.3       9 GLL5        0.0000 
     56 CA         78.0390  -12.5910   70.5130 C.3       6 GLP5        0.0000 
     57 CA         77.0528   -9.7988   70.8813 C.3       3 GLC5        0.0000 
     58 CA         75.1260   -8.8050   69.9350 C.3       9 GLL5        0.0000 
     59 CA         78.6420  -10.9840   71.0430 C.3       6 GLP5        0.0000 
     60 CA         77.2188   -8.3098   69.6988 C.3       3 GLC5        0.0000 
     61 CA         78.9740   -8.0060   68.6780 C.3       6 GLP5        0.0000 
     62 CA         74.0205   -7.2135   70.1145 C.3       3 GLC5        0.0000 
     63 CA         72.8690   -6.0830   70.8120 C.3       6 GLP5        0.0000 
     64 CA         73.1595   -7.9023   69.0097 C.3       3 GLC5        0.0000 
     65 CA         71.9530   -7.0290   70.4910 C.3       6 GLP5        0.0000 
     66 CA         77.4660   -3.3795   63.4582 C.3       3 GLC5        0.0000 
     67 CA         78.2700   -3.8970   62.2820 C.3       9 GLL5        0.0000 
     68 CA         77.5343   -0.8142   61.8627 C.3       3 GLC5        0.0000 
     69 CA         78.5540   -2.6950   61.6530 C.3       9 GLL5        0.0000 
     70 CA         76.9130    0.8470   62.5960 C.3       6 GLP5        0.0000 
     71 CA         78.5853   -0.7517   60.1528 C.3       3 GLC5        0.0000 
     72 CA         77.7570   -2.2560   60.6060 C.3       9 GLL5        0.0000 
     73 CA         79.0150    0.9720   59.1760 C.3       6 GLP5        0.0000 
     74 CA         79.5832   -2.2575   62.2519 C.3       3 GLC5        0.0000 
     75 CA         81.0820   -1.7390   63.2170 C.3       6 GLP5        0.0000 
     76 CA         73.0880   -8.5927   69.7755 C.3       3 GLC5        0.0000 
     77 CA         73.9560  -10.2930   68.4290 C.3       9 GLL5        0.0000 
@<TRIPOS>BOND
@<TRIPOS>SUBSTRUCTURE
     1 ALC1       17 GROUP        1 X    ALC  0     ROOT ALC X 1
     2 SEC2       22 GROUP        1 X    SEC  0     **** SEC X 2
     3 GLC5        1 GROUP        1 X    GLC  0     **** GLC X 6
     4 ALP1       19 GROUP        1 Y    ALP  0     ROOT ALP Y 8
     5 SEP2       24 GROUP        1 Y    SEP  0     **** SEP Y 9
     6 GLP5        3 GROUP        1 Y    GLP  0     **** GLP Y 13
     7 ALL1       18 GROUP        1 Z    ALL  0     ROOT ALL Z 15
     8 SEL2       23 GROUP        1 Z    SEL  0     **** SEL Z 16
     9 GLL5        2 GROUP        1 Z    GLL  0     **** GLL Z 20
@<TRIPOS>SET

