#    Name: 3koo_24D_1_ligand
#    Modification time : Mon Mar 24 19:58:29 2014

@<TRIPOS>MOLECULE
3koo_24D_1_ligand
   43    45     1     0     0
SMALL
NO_CHARGES


@<TRIPOS>ATOM
      1 CL1        75.8010   -8.4220   71.5040 Cl        1 24D556      0.0000 
      2 C2         75.1260   -8.8050   69.9350 C.ar      1 24D556      0.0000 
      3 C3         75.2180   -7.8830   68.8990 C.ar      1 24D556      0.0000 
      4 C4         74.6840   -8.1720   67.6470 C.ar      1 24D556      0.0000 
      5 C5         74.0480   -9.3790   67.4100 C.ar      1 24D556      0.0000 
      6 C6         73.4590   -9.7490   66.0710 C.3       1 24D556      0.0000 
      7 N7         73.5580   -8.6370   65.1250 N.am      1 24D556      0.0000 
      8 C8         74.6880   -8.5020   64.4160 C.2       1 24D556      0.0000 
      9 O9         75.5840   -9.2840   64.5770 O.2       1 24D556      0.0000 
     10 N10        74.8410   -7.5270   63.5200 N.am      1 24D556      0.0000 
     11 C11        76.1050   -7.4060   62.7770 C.3       1 24D556      0.0000 
     12 C12        75.7920   -7.1070   61.3060 C.3       1 24D556      0.0000 
     13 C13        74.8260   -5.9140   61.1870 C.3       1 24D556      0.0000 
     14 C14        74.3760   -5.3700   62.5470 C.3       1 24D556      0.0000 
     15 C15        73.7690   -6.5550   63.3010 C.3       1 24D556      0.0000 
     16 O16        75.4260   -4.8660   60.4150 O.3       1 24D556      0.0000 
     17 C17        76.4870   -4.1480   60.8600 C.ar      1 24D556      0.0000 
     18 N18        77.2350   -4.5940   61.8570 N.ar      1 24D556      0.0000 
     19 C19        78.2700   -3.8970   62.2820 C.ar      1 24D556      0.0000 
     20 C20        78.5540   -2.6950   61.6530 C.ar      1 24D556      0.0000 
     21 C21        77.7570   -2.2560   60.6060 C.ar      1 24D556      0.0000 
     22 N22        76.7400   -3.0090   60.2370 N.ar      1 24D556      0.0000 
     23 C23        73.9560  -10.2930   68.4290 C.ar      1 24D556      0.0000 
     24 CL24       73.1470  -11.7790   68.0410 Cl        1 24D556      0.0000 
     25 C25        74.4900  -10.0200   69.6910 C.ar      1 24D556      0.0000 
     26 H          75.6856   -6.9773   69.0588 H         1 24D556      0.0000 
     27 H          74.7645   -7.4754   66.8866 H         1 24D556      0.0000 
     28 H          72.4080  -10.0371   66.2170 H         1 24D556      0.0000 
     29 H          73.9905  -10.6307   65.6848 H         1 24D556      0.0000 
     30 H          72.7605   -8.0145   65.0487 H         1 24D556      0.0000 
     31 H          76.6735   -8.3312   62.8255 H         1 24D556      0.0000 
     32 H          76.7102   -6.5935   63.1709 H         1 24D556      0.0000 
     33 H          75.3348   -7.9809   60.8508 H         1 24D556      0.0000 
     34 H          76.7142   -6.8707   60.7829 H         1 24D556      0.0000 
     35 H          73.9248   -6.2798   60.6691 H         1 24D556      0.0000 
     36 H          73.6322   -4.6160   62.4029 H         1 24D556      0.0000 
     37 H          75.2233   -4.9987   63.0825 H         1 24D556      0.0000 
     38 H          73.3688   -6.1960   64.2394 H         1 24D556      0.0000 
     39 H          72.9765   -6.9761   62.6975 H         1 24D556      0.0000 
     40 H          78.8707   -4.2094   63.0576 H         1 24D556      0.0000 
     41 H          79.3556   -2.1282   61.9622 H         1 24D556      0.0000 
     42 H          77.9809   -1.3604   60.1498 H         1 24D556      0.0000 
     43 H          74.4122  -10.7195   70.4407 H         1 24D556      0.0000 
@<TRIPOS>BOND
     1    2    1 1    
     2    3    2 ar   
     3   25    2 ar   
     4    4    3 ar   
     5   26    3 1    
     6    5    4 ar   
     7   27    4 1    
     8    6    5 1    
     9   23    5 ar   
    10    7    6 1    
    11   28    6 1    
    12   29    6 1    
    13    8    7 am   
    14   30    7 1    
    15    9    8 2    
    16   10    8 am   
    17   11   10 1    
    18   15   10 1    
    19   12   11 1    
    20   31   11 1    
    21   32   11 1    
    22   13   12 1    
    23   33   12 1    
    24   34   12 1    
    25   14   13 1    
    26   16   13 1    
    27   35   13 1    
    28   15   14 1    
    29   36   14 1    
    30   37   14 1    
    31   38   15 1    
    32   39   15 1    
    33   17   16 1    
    34   18   17 ar   
    35   22   17 ar   
    36   19   18 ar   
    37   20   19 ar   
    38   40   19 1    
    39   21   20 ar   
    40   41   20 1    
    41   22   21 ar   
    42   42   21 1    
    43   24   23 1    
    44   25   23 ar   
    45   43   25 1    
@<TRIPOS>SUBSTRUCTURE
     1 24D556      1 GROUP   
@<TRIPOS>SET

