#    Name: 3kjs_DQ1_4_INTS_M
#    Modification time : Mon Mar 24 19:42:59 2014

@<TRIPOS>MOLECULE
3kjs_DQ1_4_INTS_M
   72     0     9     0     0
SMALL
NO_CHARGES


@<TRIPOS>ATOM
      1 CA         63.9415  -28.5380   27.6430 C.3       3 GLC5        0.0000 
      2 CA         63.4990  -30.3060   26.4550 C.3       9 GLL5        0.0000 
      3 CA         64.3840  -26.7700   28.8310 C.3       6 GLP5        0.0000 
      4 CA         62.3695  -28.6805   26.0040 C.3       3 GLC5        0.0000 
      5 CA         61.2400  -27.0550   25.5530 C.3       6 GLP5        0.0000 
      6 O          61.6965  -29.4670   27.6170 O.2       1 ALC1        0.0000 
      7 O          62.4380  -30.5880   27.2100 O.2       7 ALL1        0.0000 
      8 O          60.9550  -28.3460   28.0240 O.2       4 ALP1        0.0000 
      9 O          61.3870  -31.6825   27.5450 O.2       1 ALC1        0.0000 
     10 O          60.3360  -32.7770   27.8800 O.2       4 ALP1        0.0000 
     11 O          63.9725  -26.4290   24.9065 O.2       1 ALC1        0.0000 
     12 O          65.2920  -27.4500   25.3240 O.2       7 ALL1        0.0000 
     13 O          62.6530  -25.4080   24.4890 O.2       4 ALP1        0.0000 
     14 O          66.3285  -27.1260   24.4305 O.2       1 ALC1        0.0000 
     15 O          67.3650  -26.8020   23.5370 O.2       4 ALP1        0.0000 
     16 CA         62.6155  -36.0755   26.2495 C.3       3 GLC5        0.0000 
     17 CA         64.2460  -35.1380   25.6190 C.3       9 GLL5        0.0000 
     18 CA         60.9850  -37.0130   26.8800 C.3       6 GLP5        0.0000 
     19 CA         62.2735  -34.5150   25.2595 C.3       3 GLC5        0.0000 
     20 CA         60.3010  -33.8920   24.9000 C.3       6 GLP5        0.0000 
     21 CA         70.4115  -35.5330   25.4960 C.3       3 GLC5        0.0000 
     22 CA         71.0090  -36.8330   26.7910 C.3       9 GLL5        0.0000 
     23 CA         69.8140  -34.2330   24.2010 C.3       6 GLP5        0.0000 
     24 CA         69.7145  -37.2190   28.5800 C.3       3 GLC5        0.0000 
     25 CA         68.4200  -37.6050   30.3690 C.3       6 GLP5        0.0000 
     26 N          66.6020  -29.2755   23.8470 N.am      2 SEC2        0.0000 
     27 N          65.6730  -29.6850   24.9170 N.am      8 SEL2        0.0000 
     28 N          67.5310  -28.8660   22.7770 N.am      5 SEP2        0.0000 
     29 CA         68.5205  -40.0300   23.0030 C.3       3 GLC5        0.0000 
     30 CA         68.5160  -38.2960   22.1810 C.3       9 GLL5        0.0000 
     31 CA         68.5250  -41.7640   23.8250 C.3       6 GLP5        0.0000 
     32 CA         69.7580  -35.2455   22.7145 C.3       3 GLC5        0.0000 
     33 CA         69.7020  -36.2580   21.2280 C.3       9 GLL5        0.0000 
     34 CA         67.9100  -30.9295   18.3390 C.3       3 GLC5        0.0000 
     35 CA         69.2410  -31.9180   19.5340 C.3       9 GLL5        0.0000 
     36 CA         66.5790  -29.9410   17.1440 C.3       6 GLP5        0.0000 
     37 CA         70.3945  -30.5420   18.7780 C.3       3 GLC5        0.0000 
     38 CA         71.5480  -29.1660   18.0220 C.3       6 GLP5        0.0000 
     39 CA         64.6640  -27.7450   27.1660 C.3       3 GLC5        0.0000 
     40 CA         64.9440  -28.7200   25.5010 C.3       9 GLL5        0.0000 
     41 CA         63.0920  -27.8875   25.5270 C.3       3 GLC5        0.0000 
     42 CA         64.4945  -28.2245   23.6170 C.3       3 GLC5        0.0000 
     43 CA         64.0450  -27.7290   21.7330 C.3       6 GLP5        0.0000 
     44 CA         66.6010  -29.1180   26.5630 C.3       3 GLC5        0.0000 
     45 CA         68.2580  -29.5160   27.6250 C.3       6 GLP5        0.0000 
     46 CA         68.4360  -39.6655   24.1385 C.3       3 GLC5        0.0000 
     47 CA         68.3470  -37.5670   24.4520 C.3       9 GLL5        0.0000 
     48 CA         68.2960  -37.0785   28.5060 C.3       3 GLC5        0.0000 
     49 CA         68.1720  -36.5520   26.6430 C.3       9 GLL5        0.0000 
     50 CA         66.8005  -30.2475   26.3510 C.3       3 GLC5        0.0000 
     51 CA         65.3430  -30.9790   25.0770 C.3       9 GLL5        0.0000 
     52 CA         64.1647  -33.9112   23.5097 C.3       3 GLC5        0.0000 
     53 CA         64.6490  -33.6650   25.4160 C.3       9 GLL5        0.0000 
     54 CA         63.8820  -33.4210   21.5020 C.3       6 GLP5        0.0000 
     55 CA         69.6322  -32.3647   17.7747 C.3       3 GLC5        0.0000 
     56 CA         68.4700  -33.2270   19.6790 C.3       9 GLL5        0.0000 
     57 CA         70.4090  -32.1570   15.9430 C.3       6 GLP5        0.0000 
     58 CA         69.1663  -32.7077   21.3618 C.3       3 GLC5        0.0000 
     59 CA         69.4770  -32.8430   23.1170 C.3       6 GLP5        0.0000 
     60 CA         68.2430  -35.5110   24.4245 C.3       3 GLC5        0.0000 
     61 CA         67.0430  -37.1450   24.1770 C.3       9 GLL5        0.0000 
     62 CA         66.0055  -38.1835   25.8305 C.3       3 GLC5        0.0000 
     63 CA         65.3390  -39.5780   27.0130 C.3       6 GLP5        0.0000 
     64 CA         69.2227  -35.8242   24.6370 C.3       3 GLC5        0.0000 
     65 CA         68.0763  -39.0832   26.2390 C.3       3 GLC5        0.0000 
     66 CA         68.9160  -37.2640   25.6940 C.3       9 GLL5        0.0000 
     67 CA         67.5210  -40.7510   27.4050 C.3       6 GLP5        0.0000 
     68 CA         68.6680  -35.2888   25.3507 C.3       3 GLC5        0.0000 
     69 CA         66.4305  -37.9612   26.7568 C.3       3 GLC5        0.0000 
     70 CA         64.9045  -33.0323   23.0242 C.3       3 GLC5        0.0000 
     71 CA         65.7520  -33.3140   24.6320 C.3       9 GLL5        0.0000 
     72 CA         67.7020  -32.7433   23.8317 C.3       3 GLC5        0.0000 
@<TRIPOS>BOND
@<TRIPOS>SUBSTRUCTURE
     1 ALC1        6 GROUP        1 X    ALC  0     ROOT ALC X 1
     2 SEC2       26 GROUP        1 X    SEC  0     **** SEC X 2
     3 GLC5        1 GROUP        1 X    GLC  0     **** GLC X 6
     4 ALP1        8 GROUP        1 Y    ALP  0     ROOT ALP Y 8
     5 SEP2       28 GROUP        1 Y    SEP  0     **** SEP Y 9
     6 GLP5        3 GROUP        1 Y    GLP  0     **** GLP Y 13
     7 ALL1        7 GROUP        1 Z    ALL  0     ROOT ALL Z 15
     8 SEL2       27 GROUP        1 Z    SEL  0     **** SEL Z 16
     9 GLL5        2 GROUP        1 Z    GLL  0     **** GLL Z 20
@<TRIPOS>SET

