#    Name: 3kjs_DQ1_4_ligand
#    Modification time : Mon Mar 24 19:43:00 2014

@<TRIPOS>MOLECULE
3kjs_DQ1_4_ligand
   58    60     1     0     0
SMALL
NO_CHARGES


@<TRIPOS>ATOM
      1 C1         63.4990  -30.3060   26.4550 C.ar      1 DQ1602      0.0000 
      2 N1         63.8740  -29.0290   26.2600 N.ar      1 DQ1602      0.0000 
      3 O1         70.1940  -37.6850   25.9570 O.3       1 DQ1602      0.0000 
      4 C2         64.2380  -31.3240   25.8590 C.ar      1 DQ1602      0.0000 
      5 N2         62.4380  -30.5880   27.2100 N.pl3     1 DQ1602      0.0000 
      6 O2         69.0820  -38.2680   23.5240 O.3       1 DQ1602      0.0000 
      7 C3         64.6490  -33.6650   25.4160 C.ar      1 DQ1602      0.0000 
      8 N3         65.2920  -27.4500   25.3240 N.pl3     1 DQ1602      0.0000 
      9 O3         67.6110  -35.7430   20.1350 O.2       1 DQ1602      0.0000 
     10 C4         64.2460  -35.1380   25.6190 C.3       1 DQ1602      0.0000 
     11 N4         65.0570  -36.0540   24.7970 N.pl3     1 DQ1602      0.0000 
     12 O4         69.3460  -34.3930   19.5900 O.3       1 DQ1602      0.0000 
     13 C5         71.0090  -36.8330   26.7910 C.3       1 DQ1602      0.0000 
     14 N5         65.6730  -29.6850   24.9170 N.ar      1 DQ1602      0.0000 
     15 C6         68.5160  -38.2960   22.1810 C.3       1 DQ1602      0.0000 
     16 C7         69.4960  -37.7760   21.1200 C.3       1 DQ1602      0.0000 
     17 C8         69.7020  -36.2580   21.2280 C.3       1 DQ1602      0.0000 
     18 C9         68.8060  -35.4570   20.2710 C.2       1 DQ1602      0.0000 
     19 C10        69.2410  -31.9180   19.5340 C.3       1 DQ1602      0.0000 
     20 C11        68.4700  -33.2270   19.6790 C.3       1 DQ1602      0.0000 
     21 C12        64.9440  -28.7200   25.5010 C.ar      1 DQ1602      0.0000 
     22 C13        66.3010  -36.4330   25.1190 C.ar      1 DQ1602      0.0000 
     23 C14        67.0430  -37.1450   24.1770 C.ar      1 DQ1602      0.0000 
     24 C15        68.3470  -37.5670   24.4520 C.ar      1 DQ1602      0.0000 
     25 C16        68.9160  -37.2640   25.6940 C.ar      1 DQ1602      0.0000 
     26 C17        68.1720  -36.5520   26.6430 C.ar      1 DQ1602      0.0000 
     27 C18        66.8720  -36.1370   26.3580 C.ar      1 DQ1602      0.0000 
     28 C19        65.7520  -33.3140   24.6320 C.ar      1 DQ1602      0.0000 
     29 C20        65.3430  -30.9790   25.0770 C.ar      1 DQ1602      0.0000 
     30 C21        66.1020  -31.9730   24.4610 C.ar      1 DQ1602      0.0000 
     31 C22        63.8940  -32.6660   26.0300 C.ar      1 DQ1602      0.0000 
     32 H          62.2344  -29.9388   27.9429 H         1 DQ1602      0.0000 
     33 H          61.9409  -31.4234   26.9759 H         1 DQ1602      0.0000 
     34 H          66.0816  -27.2885   24.7319 H         1 DQ1602      0.0000 
     35 H          64.7329  -26.7703   25.7988 H         1 DQ1602      0.0000 
     36 H          63.1800  -35.2351   25.3691 H         1 DQ1602      0.0000 
     37 H          64.3567  -35.3755   26.6865 H         1 DQ1602      0.0000 
     38 H          64.5861  -36.3976   23.9238 H         1 DQ1602      0.0000 
     39 H          67.6026  -37.6796   22.1267 H         1 DQ1602      0.0000 
     40 H          68.2266  -39.3223   21.8980 H         1 DQ1602      0.0000 
     41 H          69.1080  -38.0138   20.1280 H         1 DQ1602      0.0000 
     42 H          70.4576  -38.2765   21.2459 H         1 DQ1602      0.0000 
     43 H          70.7519  -36.0244   21.0121 H         1 DQ1602      0.0000 
     44 H          69.4945  -35.9424   22.2580 H         1 DQ1602      0.0000 
     45 H          67.9436  -33.2086   20.6469 H         1 DQ1602      0.0000 
     46 H          67.6987  -33.2587   18.8926 H         1 DQ1602      0.0000 
     47 H          66.6222  -37.3655   23.2579 H         1 DQ1602      0.0000 
     48 H          68.5912  -36.3345   27.5583 H         1 DQ1602      0.0000 
     49 H          66.3340  -35.6138   27.0586 H         1 DQ1602      0.0000 
     50 H          66.3100  -34.0503   24.1776 H         1 DQ1602      0.0000 
     51 H          66.9116  -31.7223   23.8863 H         1 DQ1602      0.0000 
     52 H          63.0835  -32.9175   26.6090 H         1 DQ1602      0.0000 
     53 H          71.9213  -37.2165   26.9344 H         1 DQ1602      0.0000 
     54 H          71.1323  -35.9264   26.3874 H         1 DQ1602      0.0000 
     55 H          70.6021  -36.6988   27.6946 H         1 DQ1602      0.0000 
     56 H          69.9325  -31.8131   20.2488 H         1 DQ1602      0.0000 
     57 H          69.7163  -31.8622   18.6559 H         1 DQ1602      0.0000 
     58 H          68.6371  -31.1230   19.5914 H         1 DQ1602      0.0000 
@<TRIPOS>BOND
     1    2    1 ar   
     2    4    1 ar   
     3    5    1 1    
     4   21    2 ar   
     5   13    3 1    
     6   25    3 1    
     7   29    4 ar   
     8   31    4 ar   
     9   32    5 1    
    10   33    5 1    
    11   15    6 1    
    12   24    6 1    
    13   10    7 1    
    14   28    7 ar   
    15   31    7 ar   
    16   21    8 1    
    17   34    8 1    
    18   35    8 1    
    19   18    9 2    
    20   11   10 1    
    21   36   10 1    
    22   37   10 1    
    23   22   11 1    
    24   38   11 1    
    25   18   12 1    
    26   20   12 1    
    27   53   13 1    
    28   54   13 1    
    29   55   13 1    
    30   21   14 ar   
    31   29   14 ar   
    32   16   15 1    
    33   39   15 1    
    34   40   15 1    
    35   17   16 1    
    36   41   16 1    
    37   42   16 1    
    38   18   17 1    
    39   43   17 1    
    40   44   17 1    
    41   20   19 1    
    42   56   19 1    
    43   57   19 1    
    44   58   19 1    
    45   45   20 1    
    46   46   20 1    
    47   23   22 ar   
    48   27   22 ar   
    49   24   23 ar   
    50   47   23 1    
    51   25   24 ar   
    52   26   25 ar   
    53   27   26 ar   
    54   48   26 1    
    55   49   27 1    
    56   30   28 ar   
    57   50   28 1    
    58   30   29 ar   
    59   51   30 1    
    60   52   31 1    
@<TRIPOS>SUBSTRUCTURE
     1 DQ1602      1 GROUP   
@<TRIPOS>SET

