#    Name: 3GBB_2_CAVITY_N1_6.mol2
#    Modification time : Mon Mar 10 18:43:01 2014

@<TRIPOS>MOLECULE
3GBB_2_CAVITY_N1_6.mol2
   42     0     6     0     0
SMALL
NO_CHARGES


@<TRIPOS>ATOM
      1 CA        -20.7077   31.6421   31.5891 C.3       5 GLY6        0.0000 
      2 OG        -21.7780   32.1085   30.6473 O.2       1 SER1        0.0000 
      3 OG        -20.7412   32.3567   29.5920 O.2       1 SER1        0.0000 
      4 OG        -21.8114   32.8231   28.6502 O.2       1 SER1        0.0000 
      5 CA        -21.5722   32.7977   33.1438 C.3       5 GLY6        0.0000 
      6 CZ        -20.5355   33.0459   32.0886 C.ar      4 PHE5        0.0000 
      7 CA        -19.4987   33.2942   31.0333 C.3       5 GLY6        0.0000 
      8 OG        -22.6425   33.2641   32.2020 O.2       1 SER1        0.0000 
      9 DU        -21.6057   33.5124   31.1467 H         6 CUB7        0.0000 
     10 DU        -20.5689   33.7606   30.0915 H         6 CUB7        0.0000 
     11 CA        -19.5322   34.0088   29.0363 C.3       5 GLY6        0.0000 
     12 CA        -18.4954   34.2570   27.9811 C.3       5 GLY6        0.0000 
     13 CA        -22.6760   33.9788   30.2049 C.3       5 GLY6        0.0000 
     14 CA        -21.6392   34.2270   29.1497 C.3       5 GLY6        0.0000 
     15 CA        -20.6024   34.4752   28.0945 C.3       5 GLY6        0.0000 
     16 CZ        -22.4367   33.9534   34.6985 C.ar      4 PHE5        0.0000 
     17 CZ        -21.4000   34.2016   33.6433 C.ar      4 PHE5        0.0000 
     18 CZ        -20.3632   34.4498   32.5880 C.ar      4 PHE5        0.0000 
     19 CZ        -19.3264   34.6980   31.5328 C.ar      4 PHE5        0.0000 
     20 NZ        -18.2897   34.9462   30.4776 N.2       3 LYS4        0.0000 
     21 NZ        -22.4702   34.6680   32.7014 N.2       3 LYS4        0.0000 
     22 NZ        -21.4334   34.9162   31.6462 N.2       3 LYS4        0.0000 
     23 NZ        -20.3967   35.1644   30.5910 N.2       3 LYS4        0.0000 
     24 DU        -19.3599   35.4127   29.5358 H         6 CUB7        0.0000 
     25 CA        -18.3231   35.6609   28.4805 C.3       5 GLY6        0.0000 
     26 NZ        -21.4669   35.6309   29.6492 N.2       3 LYS4        0.0000 
     27 O         -20.4302   35.8791   28.5940 O.2       2 ALA2        0.0000 
     28 CA        -19.3934   36.1273   27.5387 C.3       5 GLY6        0.0000 
     29 CA        -18.3566   36.3755   26.4835 C.3       5 GLY6        0.0000 
     30 NZ        -21.2612   36.3201   32.1457 N.2       3 LYS4        0.0000 
     31 OG        -20.2244   36.5683   31.0905 O.2       1 SER1        0.0000 
     32 NZ        -19.1876   36.8165   30.0353 N.2       3 LYS4        0.0000 
     33 NZ        -18.1509   37.0647   28.9800 N.2       3 LYS4        0.0000 
     34 NZ        -17.1141   37.3130   27.9248 N.2       3 LYS4        0.0000 
     35 NZ        -21.2947   37.0347   30.1487 N.2       3 LYS4        0.0000 
     36 OG        -20.2579   37.2829   29.0934 O.2       1 SER1        0.0000 
     37 OG        -19.2211   37.5312   28.0382 O.2       1 SER1        0.0000 
     38 OG        -21.3281   37.7494   28.1516 O.2       1 SER1        0.0000 
     39 OG        -20.0522   37.9722   31.5900 O.2       1 SER1        0.0000 
     40 CA        -19.0154   38.2204   30.5347 C.3       5 GLY6        0.0000 
     41 OG        -21.1224   38.4386   30.6481 O.2       1 SER1        0.0000 
     42 OG        -20.0856   38.6868   29.5929 O.2       1 SER1        0.0000 
@<TRIPOS>BOND
@<TRIPOS>SUBSTRUCTURE
     1 SER1        2 GROUP   
     2 ALA2       27 GROUP   
     3 LYS4       20 GROUP   
     4 PHE5        6 GROUP   
     5 GLY6        1 GROUP   
     6 CUB7        9 GROUP   
@<TRIPOS>SET

