#    Name: 3gbb_MS8_2_INTS_M
#    Modification time : Tue Mar 25 07:25:33 2014

@<TRIPOS>MOLECULE
3gbb_MS8_2_INTS_M
   68     0    15     0     0
SMALL
NO_CHARGES


@<TRIPOS>ATOM
      1 NZ        -24.5335   33.5820   36.0375 N.4       4 LYC4        0.0000 
      2 NZ        -23.2750   33.1830   35.0540 N.4      14 LYL4        0.0000 
      3 NZ        -25.5540   32.8070   37.5970 N.4       9 LYP4        0.0000 
      4 N         -24.5335   33.5820   36.0375 N.am      2 SEC2        0.0000 
      5 N         -23.2750   33.1830   35.0540 N.am     12 SEL2        0.0000 
      6 N         -25.7920   33.9810   37.0210 N.am      7 SEP2        0.0000 
      7 N         -23.8615   32.6570   36.1740 N.am      2 SEC2        0.0000 
      8 N         -24.4480   32.1310   37.2940 N.am      7 SEP2        0.0000 
      9 N         -23.7140   32.0200   34.3985 N.am      2 SEC2        0.0000 
     10 N         -24.1530   30.8570   33.7430 N.am      7 SEP2        0.0000 
     11 NZ        -23.9870   35.2770   35.3040 N.4      14 LYL4        0.0000 
     12 N         -24.9835   36.2535   35.3665 N.am      2 SEC2        0.0000 
     13 N         -23.9870   35.2770   35.3040 N.am     12 SEL2        0.0000 
     14 N         -25.9800   37.2300   35.4290 N.am      7 SEP2        0.0000 
     15 N         -24.8895   34.6290   36.1625 N.am      2 SEC2        0.0000 
     16 CA        -21.8275   35.1130   34.6370 C.3       5 GLC5        0.0000 
     17 CA        -23.1040   34.6300   33.1860 C.3      15 GLL5        0.0000 
     18 CA        -20.5510   35.5960   36.0880 C.3      10 GLP5        0.0000 
     19 CA        -25.1095   35.1950   33.5015 C.3       5 GLC5        0.0000 
     20 CA        -27.1150   35.7600   33.8170 C.3      10 GLP5        0.0000 
     21 CA        -24.7150   33.3080   33.3410 C.3       5 GLC5        0.0000 
     22 CA        -26.3260   31.9860   33.4960 C.3      10 GLP5        0.0000 
     23 OD1       -23.6700   36.4400   31.6030 O.co2     3 ASC3        0.0000 
     24 OD1       -23.3760   36.0330   32.8430 O.co2    13 ASL3        0.0000 
     25 OD1       -23.9640   36.8470   30.3630 O.co2     8 ASP3        0.0000 
     26 OD1       -24.5355   35.7590   31.5865 O.co2     3 ASC3        0.0000 
     27 OD1       -25.6950   35.4850   30.3300 O.co2     8 ASP3        0.0000 
     28 O         -22.9810   37.2860   33.6275 O.2       1 ALC1        0.0000 
     29 O         -23.3760   36.0330   32.8430 O.2      11 ALL1        0.0000 
     30 O         -22.5860   38.5390   34.4120 O.2       6 ALP1        0.0000 
     31 O         -24.7185   36.0570   32.8735 O.2       1 ALC1        0.0000 
     32 O         -26.0610   36.0810   32.9040 O.2       6 ALP1        0.0000 
     33 O         -23.6700   36.4400   31.6030 O.2       1 ALC1        0.0000 
     34 O         -23.9640   36.8470   30.3630 O.2       6 ALP1        0.0000 
     35 CA        -20.8115   34.3175   34.5225 C.3       5 GLC5        0.0000 
     36 CA        -21.6190   34.3210   32.9850 C.3      15 GLL5        0.0000 
     37 CA        -20.0040   34.3140   36.0600 C.3      10 GLP5        0.0000 
     38 CA        -21.7555   32.2285   33.6390 C.3       5 GLC5        0.0000 
     39 CA        -21.8920   30.1360   34.2930 C.3      10 GLP5        0.0000 
     40 CA        -18.7315   32.2865   30.9540 C.3       5 GLC5        0.0000 
     41 CA        -19.7810   33.9450   31.3480 C.3      15 GLL5        0.0000 
     42 CA        -17.6820   30.6280   30.5600 C.3      10 GLP5        0.0000 
     43 N         -23.3800   32.5995   29.1280 N.am      2 SEC2        0.0000 
     44 N         -22.6020   33.5100   29.6770 N.am     12 SEL2        0.0000 
     45 N         -24.1580   31.6890   28.5790 N.am      7 SEP2        0.0000 
     46 N         -23.5540   31.2045   31.2565 N.am      2 SEC2        0.0000 
     47 N         -22.3230   32.1330   31.4040 N.am     12 SEL2        0.0000 
     48 N         -24.7850   30.2760   31.1090 N.am      7 SEP2        0.0000 
     49 N         -22.0610   30.8230   31.3855 N.am      2 SEC2        0.0000 
     50 N         -21.7990   29.5130   31.3670 N.am      7 SEP2        0.0000 
     51 CA        -18.1550   33.4080   30.1640 C.3       5 GLC5        0.0000 
     52 CA        -19.1880   35.2620   30.8430 C.3      15 GLL5        0.0000 
     53 CA        -17.1220   31.5540   29.4850 C.3      10 GLP5        0.0000 
     54 CA        -18.4160   38.4550   31.2270 C.3       5 GLC5        0.0000 
     55 CA        -20.1380   37.5860   30.5730 C.3      15 GLL5        0.0000 
     56 CA        -16.6940   39.3240   31.8810 C.3      10 GLP5        0.0000 
     57 CA        -20.1135   38.9715   32.1975 C.3       5 GLC5        0.0000 
     58 CA        -20.0890   40.3570   33.8220 C.3      10 GLP5        0.0000 
     59 CA        -17.0130   35.8795   28.6770 C.3       5 GLC5        0.0000 
     60 CA        -18.7720   36.4460   28.8220 C.3      15 GLL5        0.0000 
     61 CA        -15.2540   35.3130   28.5320 C.3      10 GLP5        0.0000 
     62 CA        -19.5135   36.6625   32.7810 C.3       5 GLC5        0.0000 
     63 CA        -20.2600   36.2420   31.2950 C.3      15 GLL5        0.0000 
     64 CA        -18.8280   36.4110   34.6280 C.3      10 GLP5        0.0000 
     65 CA        -19.0628   34.9149   32.8566 C.3       5 GLC5        0.0000 
     66 CA        -18.2680   35.1470   34.5810 C.3      10 GLP5        0.0000 
     67 CA        -19.4082   38.2577   27.5413 C.3       5 GLC5        0.0000 
     68 CA        -19.4550   39.5990   26.1370 C.3      10 GLP5        0.0000 
@<TRIPOS>BOND
@<TRIPOS>SUBSTRUCTURE
     1 ALC1       28 GROUP        1 X    ALC  0     ROOT ALC X 1
     2 SEC2        4 GROUP        1 X    SEC  0     **** SEC X 2
     3 ASC3       23 GROUP        1 X    ASC  0     **** ASC X 3
     4 LYC4        1 GROUP        1 X    LYC  0     **** LYC X 4
     5 GLC5       16 GROUP        1 X    GLC  0     **** GLC X 6
     6 ALP1       30 GROUP        1 Y    ALP  0     ROOT ALP Y 8
     7 SEP2        6 GROUP        1 Y    SEP  0     **** SEP Y 9
     8 ASP3       25 GROUP        1 Y    ASP  0     **** ASP Y 10
     9 LYP4        3 GROUP        1 Y    LYP  0     **** LYP Y 11
    10 GLP5       18 GROUP        1 Y    GLP  0     **** GLP Y 13
    11 ALL1       29 GROUP        1 Z    ALL  0     ROOT ALL Z 15
    12 SEL2        5 GROUP        1 Z    SEL  0     **** SEL Z 16
    13 ASL3       24 GROUP        1 Z    ASL  0     **** ASL Z 17
    14 LYL4        2 GROUP        1 Z    LYL  0     **** LYL Z 18
    15 GLL5       17 GROUP        1 Z    GLL  0     **** GLL Z 20
@<TRIPOS>SET

