#    Name: 3gbb_MS8_2_ligand
#    Modification time : Tue Mar 25 07:25:33 2014

@<TRIPOS>MOLECULE
3gbb_MS8_2_ligand
   34    35     1     0     0
SMALL
NO_CHARGES


@<TRIPOS>ATOM
      1 O         -23.2750   33.1830   35.0540 O.co2     1 MS8258      0.0000 
      2 C         -23.4870   34.3430   34.6390 C.2       1 MS8258      0.0000 
      3 OXT       -23.9870   35.2770   35.3040 O.co2     1 MS8258      0.0000 
      4 CA        -23.1040   34.6300   33.1860 C.3       1 MS8258      0.0000 
      5 N         -23.3760   36.0330   32.8430 N.4       1 MS8258      0.0000 
      6 CB        -21.6190   34.3210   32.9850 C.3       1 MS8258      0.0000 
      7 CAS       -21.2730   34.2620   31.4950 C.3       1 MS8258      0.0000 
      8 CAJ       -19.7810   33.9450   31.3480 C.3       1 MS8258      0.0000 
      9 CAN       -22.1350   33.2090   30.7960 C.2       1 MS8258      0.0000 
     10 OAC       -22.6020   33.5100   29.6770 O.co2     1 MS8258      0.0000 
     11 OAE       -22.3230   32.1330   31.4040 O.co2     1 MS8258      0.0000 
     12 OAL       -21.4460   35.5470   30.8860 O.3       1 MS8258      0.0000 
     13 CAR       -20.2600   36.2420   31.2950 C.3       1 MS8258      0.0000 
     14 CAQ       -19.1880   35.2620   30.8430 C.3       1 MS8258      0.0000 
     15 CAH       -20.1380   37.5860   30.5730 C.3       1 MS8258      0.0000 
     16 CAP       -19.9510   37.3870   29.0690 C.3       1 MS8258      0.0000 
     17 CAG       -18.7720   36.4460   28.8220 C.3       1 MS8258      0.0000 
     18 OAK       -19.0850   35.1760   29.4130 O.3       1 MS8258      0.0000 
     19 H         -23.6726   33.9697   32.5491 H         1 MS8258      0.0000 
     20 H         -21.3863   33.3629   33.4451 H         1 MS8258      0.0000 
     21 H         -21.0233   35.0973   33.4608 H         1 MS8258      0.0000 
     22 H         -19.6461   33.1883   30.6212 H         1 MS8258      0.0000 
     23 H         -19.3714   33.7059   32.2935 H         1 MS8258      0.0000 
     24 H         -20.2106   36.3525   32.3319 H         1 MS8258      0.0000 
     25 H         -18.3038   35.4412   31.3461 H         1 MS8258      0.0000 
     26 H         -19.2833   38.1307   30.9725 H         1 MS8258      0.0000 
     27 H         -21.0407   38.1701   30.7487 H         1 MS8258      0.0000 
     28 H         -19.7515   38.3434   28.6019 H         1 MS8258      0.0000 
     29 H         -20.8504   36.9541   28.6491 H         1 MS8258      0.0000 
     30 H         -17.8858   36.8923   29.2689 H         1 MS8258      0.0000 
     31 H         -18.6247   36.3660   27.7467 H         1 MS8258      0.0000 
     32 H         -24.3430   36.2619   32.9548 H         1 MS8258      0.0000 
     33 H         -22.8569   36.6637   33.4198 H         1 MS8258      0.0000 
     34 H         -23.1343   36.2370   31.8943 H         1 MS8258      0.0000 
@<TRIPOS>BOND
     1    2    1 ar   
     2    3    2 ar   
     3    4    2 1    
     4    5    4 1    
     5    6    4 1    
     6   19    4 1    
     7   32    5 1    
     8   33    5 1    
     9   34    5 1    
    10    7    6 1    
    11   20    6 1    
    12   21    6 1    
    13    8    7 1    
    14    9    7 1    
    15   12    7 1    
    16   14    8 1    
    17   22    8 1    
    18   23    8 1    
    19   10    9 ar   
    20   11    9 ar   
    21   13   12 1    
    22   14   13 1    
    23   15   13 1    
    24   24   13 1    
    25   18   14 1    
    26   25   14 1    
    27   16   15 1    
    28   26   15 1    
    29   27   15 1    
    30   17   16 1    
    31   28   16 1    
    32   29   16 1    
    33   18   17 1    
    34   30   17 1    
    35   31   17 1    
@<TRIPOS>SUBSTRUCTURE
     1 MS8258      1 GROUP   
@<TRIPOS>SET

