#    Name: 1l3i_SAH_2_INTS_M
#    Modification time : Tue Mar 25 10:54:43 2014

@<TRIPOS>MOLECULE
1l3i_SAH_2_INTS_M
   72     0     9     0     0
SMALL
NO_CHARGES


@<TRIPOS>ATOM
      1 O          -6.0385   20.0435   68.9990 O.2       1 ALC1        0.0000 
      2 O          -5.1720   20.9170   69.8930 O.2       7 ALL1        0.0000 
      3 O          -6.9050   19.1700   68.1050 O.2       4 ALP1        0.0000 
      4 O          -4.0985   21.7500   69.7010 O.2       1 ALC1        0.0000 
      5 O          -3.0250   22.5830   69.5090 O.2       4 ALP1        0.0000 
      6 CA         -8.0965   19.7645   72.2660 C.3       3 GLC5        0.0000 
      7 CA         -6.7840   21.2590   71.6770 C.3       9 GLL5        0.0000 
      8 CA         -9.4090   18.2700   72.8550 C.3       6 GLP5        0.0000 
      9 CA         -9.5850   23.5400   72.9670 C.3       3 GLC5        0.0000 
     10 CA         -8.0630   23.7120   72.1090 C.3       9 GLL5        0.0000 
     11 CA        -11.1070   23.3680   73.8250 C.3       6 GLP5        0.0000 
     12 N          -6.4505   17.5850   70.1395 N.am      2 SEC2        0.0000 
     13 N          -5.3480   18.3470   70.5190 N.am      8 SEL2        0.0000 
     14 N          -7.5530   16.8230   69.7600 N.am      5 SEP2        0.0000 
     15 N          -6.1265   18.7585   69.3120 N.am      2 SEC2        0.0000 
     16 N          -6.9050   19.1700   68.1050 N.am      5 SEP2        0.0000 
     17 N          -4.7045   18.6095   73.7995 N.am      2 SEC2        0.0000 
     18 N          -5.7610   18.6820   72.6530 N.am      8 SEL2        0.0000 
     19 N          -3.6480   18.5370   74.9460 N.am      5 SEP2        0.0000 
     20 N          -4.5185   17.8075   72.6785 N.am      2 SEC2        0.0000 
     21 N          -3.2760   16.9330   72.7040 N.am      5 SEP2        0.0000 
     22 CA         -4.9705   26.2835   72.6560 C.3       3 GLC5        0.0000 
     23 CA         -6.7290   25.9910   72.9240 C.3       9 GLL5        0.0000 
     24 CA         -3.2120   26.5760   72.3880 C.3       6 GLP5        0.0000 
     25 O          -5.7445   25.4790   75.6100 O.2       1 ALC1        0.0000 
     26 O          -6.9690   25.3030   75.4540 O.2       7 ALL1        0.0000 
     27 O          -4.5200   25.6550   75.7660 O.2       4 ALP1        0.0000 
     28 O          -6.2985   27.6910   76.4980 O.2       1 ALC1        0.0000 
     29 O          -7.4280   28.1400   75.8960 O.2       7 ALL1        0.0000 
     30 O          -5.1690   27.2420   77.1000 O.2       4 ALP1        0.0000 
     31 CA         -4.6890   27.2865   73.0710 C.3       3 GLC5        0.0000 
     32 CA         -6.1660   27.9970   73.7540 C.3       9 GLL5        0.0000 
     33 CA         -5.9195   32.2745   74.5155 C.3       3 GLC5        0.0000 
     34 CA         -5.2380   31.4260   72.9140 C.3       9 GLL5        0.0000 
     35 CA         -6.6010   33.1230   76.1170 C.3       6 GLP5        0.0000 
     36 CA         -5.6835   31.5860   70.7440 C.3       3 GLC5        0.0000 
     37 CA         -6.1290   31.7460   68.5740 C.3       6 GLP5        0.0000 
     38 CA         -4.8040   32.5815   74.8610 C.3       3 GLC5        0.0000 
     39 CA         -4.3310   32.4960   73.0330 C.3       9 GLL5        0.0000 
     40 CA         -5.2770   32.6670   76.6890 C.3       6 GLP5        0.0000 
     41 CA         -2.4900   32.6445   72.4595 C.3       3 GLC5        0.0000 
     42 CA         -0.6490   32.7930   71.8860 C.3       6 GLP5        0.0000 
     43 O          -5.3940   33.7300   71.0970 O.2       1 ALC1        0.0000 
     44 O          -4.5150   33.6550   72.4030 O.2       7 ALL1        0.0000 
     45 O          -6.2730   33.8050   69.7910 O.2       4 ALP1        0.0000 
     46 O          -4.2015   35.1005   72.2485 O.2       1 ALC1        0.0000 
     47 O          -3.8880   36.5460   72.0940 O.2       4 ALP1        0.0000 
     48 N          -2.0540   33.0490   73.9600 N.am      2 SEC2        0.0000 
     49 N          -3.2120   32.3360   73.7790 N.am      8 SEL2        0.0000 
     50 N          -0.8960   33.7620   74.1410 N.am      5 SEP2        0.0000 
     51 CA         -1.0905   30.5780   74.6400 C.3       3 GLC5        0.0000 
     52 CA         -3.0410   31.1600   74.3950 C.3       9 GLL5        0.0000 
     53 CA          0.8600   29.9960   74.8850 C.3       6 GLP5        0.0000 
     54 CA         -2.6575   29.6000   75.5480 C.3       3 GLC5        0.0000 
     55 CA         -2.2740   28.0400   76.7010 C.3       6 GLP5        0.0000 
     56 CA         -4.1590   31.9135   75.5420 C.3       3 GLC5        0.0000 
     57 CA         -2.3735   32.8835   75.3330 C.3       3 GLC5        0.0000 
     58 CA         -1.7060   34.6070   76.2710 C.3       6 GLP5        0.0000 
     59 CA         -1.8450   31.9765   73.1405 C.3       3 GLC5        0.0000 
     60 N          -3.7825   29.9610   75.8875 N.am      2 SEC2        0.0000 
     61 N          -3.8200   30.0830   74.3740 N.am      8 SEL2        0.0000 
     62 N          -3.7450   29.8390   77.4010 N.am      5 SEP2        0.0000 
     63 CA         -4.0665   28.4225   72.9925 C.3       3 GLC5        0.0000 
     64 CA         -4.9210   30.2690   73.5970 C.3       9 GLL5        0.0000 
     65 CA         -5.0990   31.4680   75.1430 C.3       3 GLC5        0.0000 
     66 CA         -5.8487   21.6420   73.3000 C.3       3 GLC5        0.0000 
     67 CA         -5.5730   22.3520   75.1170 C.3       6 GLP5        0.0000 
     68 CA         -6.4693   22.7978   73.4638 C.3       3 GLC5        0.0000 
     69 CA         -6.6680   22.7750   71.5120 C.3       9 GLL5        0.0000 
     70 CA         -6.7472   26.8377   70.7575 C.3       3 GLC5        0.0000 
     71 CA         -6.3720   27.9780   69.1570 C.3       6 GLP5        0.0000 
     72 CA         -6.3407   24.2025   74.3743 C.3       3 GLC5        0.0000 
@<TRIPOS>BOND
@<TRIPOS>SUBSTRUCTURE
     1 ALC1        1 GROUP        1 X    ALC  0     ROOT ALC X 1
     2 SEC2       12 GROUP        1 X    SEC  0     **** SEC X 2
     3 GLC5        6 GROUP        1 X    GLC  0     **** GLC X 6
     4 ALP1        3 GROUP        1 Y    ALP  0     ROOT ALP Y 8
     5 SEP2       14 GROUP        1 Y    SEP  0     **** SEP Y 9
     6 GLP5        8 GROUP        1 Y    GLP  0     **** GLP Y 13
     7 ALL1        2 GROUP        1 Z    ALL  0     ROOT ALL Z 15
     8 SEL2       13 GROUP        1 Z    SEL  0     **** SEL Z 16
     9 GLL5        7 GROUP        1 Z    GLL  0     **** GLL Z 20
@<TRIPOS>SET

