#    Name: 1l3i_SAH_2_ligand
#    Modification time : Tue Mar 25 10:54:43 2014

@<TRIPOS>MOLECULE
1l3i_SAH_2_ligand
   46    48     1     0     0
SMALL
NO_CHARGES


@<TRIPOS>ATOM
      1 N          -5.1720   20.9170   69.8930 N.4       1 SAH802      0.0000 
      2 CA         -5.4650   20.6050   71.2890 C.3       1 SAH802      0.0000 
      3 CB         -6.7840   21.2590   71.6770 C.3       1 SAH802      0.0000 
      4 CG         -6.6680   22.7750   71.5120 C.3       1 SAH802      0.0000 
      5 SD         -8.0630   23.7120   72.1090 S.3       1 SAH802      0.0000 
      6 C          -5.5340   19.0980   71.5010 C.2       1 SAH802      0.0000 
      7 O          -5.3480   18.3470   70.5190 O.co2     1 SAH802      0.0000 
      8 OXT        -5.7610   18.6820   72.6530 O.co2     1 SAH802      0.0000 
      9 C5'        -7.5160   25.4040   71.7920 C.3       1 SAH802      0.0000 
     10 C4'        -6.7290   25.9910   72.9240 C.3       1 SAH802      0.0000 
     11 O4'        -6.4030   27.3250   72.5340 O.3       1 SAH802      0.0000 
     12 C3'        -7.4880   26.1150   74.3390 C.3       1 SAH802      0.0000 
     13 O3'        -6.9690   25.3030   75.4540 O.3       1 SAH802      0.0000 
     14 C2'        -7.4060   27.6430   74.5540 C.3       1 SAH802      0.0000 
     15 O2'        -7.4280   28.1400   75.8960 O.3       1 SAH802      0.0000 
     16 C1'        -6.1660   27.9970   73.7540 C.3       1 SAH802      0.0000 
     17 N9         -5.9900   29.3880   73.3160 N.pl3     1 SAH802      0.0000 
     18 C8         -6.8720   30.0840   72.4780 C.2       1 SAH802      0.0000 
     19 N7         -6.4570   31.2780   72.2310 N.2       1 SAH802      0.0000 
     20 C5         -5.2380   31.4260   72.9140 C.ar      1 SAH802      0.0000 
     21 C6         -4.3310   32.4960   73.0330 C.ar      1 SAH802      0.0000 
     22 N6         -4.5150   33.6550   72.4030 N.pl3     1 SAH802      0.0000 
     23 N1         -3.2120   32.3360   73.7790 N.ar      1 SAH802      0.0000 
     24 C2         -3.0410   31.1600   74.3950 C.ar      1 SAH802      0.0000 
     25 N3         -3.8200   30.0830   74.3740 N.ar      1 SAH802      0.0000 
     26 C4         -4.9210   30.2690   73.5970 C.ar      1 SAH802      0.0000 
     27 H          -4.6904   21.0063   71.9297 H         1 SAH802      0.0000 
     28 H          -7.0129   21.0283   72.7104 H         1 SAH802      0.0000 
     29 H          -7.5746   20.8890   71.0355 H         1 SAH802      0.0000 
     30 H          -6.5973   23.0805   70.4726 H         1 SAH802      0.0000 
     31 H          -5.8365   23.1960   72.0688 H         1 SAH802      0.0000 
     32 H          -8.4500   25.9094   71.5970 H         1 SAH802      0.0000 
     33 H          -6.9535   25.2908   70.8774 H         1 SAH802      0.0000 
     34 H          -5.8319   25.4293   73.0957 H         1 SAH802      0.0000 
     35 H          -8.5335   25.9053   74.1067 H         1 SAH802      0.0000 
     36 H          -8.2547   28.0545   73.9489 H         1 SAH802      0.0000 
     37 H          -5.3050   27.6078   74.2133 H         1 SAH802      0.0000 
     38 H          -7.7012   29.6538   72.1473 H         1 SAH802      0.0000 
     39 H          -5.3242   33.7145   71.8185 H         1 SAH802      0.0000 
     40 H          -3.8274   34.3614   72.5713 H         1 SAH802      0.0000 
     41 H          -2.1201   31.0756   75.0074 H         1 SAH802      0.0000 
     42 H          -5.8852   21.4846   69.4817 H         1 SAH802      0.0000 
     43 H          -4.3097   21.4143   69.7966 H         1 SAH802      0.0000 
     44 H          -5.0975   20.0902   69.3354 H         1 SAH802      0.0000 
     45 H          -6.0128   25.1256   75.2216 H         1 SAH802      0.0000 
     46 H          -6.5712   27.8235   76.3031 H         1 SAH802      0.0000 
@<TRIPOS>BOND
     1    2    1 1    
     2   42    1 1    
     3   43    1 1    
     4   44    1 1    
     5    3    2 1    
     6    6    2 1    
     7   27    2 1    
     8    4    3 1    
     9   28    3 1    
    10   29    3 1    
    11    5    4 1    
    12   30    4 1    
    13   31    4 1    
    14    9    5 1    
    15    7    6 ar   
    16    8    6 ar   
    17   10    9 1    
    18   32    9 1    
    19   33    9 1    
    20   11   10 1    
    21   12   10 1    
    22   34   10 1    
    23   16   11 1    
    24   13   12 1    
    25   14   12 1    
    26   35   12 1    
    27   45   13 1    
    28   15   14 1    
    29   16   14 1    
    30   36   14 1    
    31   46   15 1    
    32   17   16 1    
    33   37   16 1    
    34   18   17 1    
    35   26   17 1    
    36   19   18 2    
    37   38   18 1    
    38   20   19 1    
    39   21   20 ar   
    40   26   20 ar   
    41   22   21 1    
    42   23   21 ar   
    43   39   22 1    
    44   40   22 1    
    45   24   23 ar   
    46   25   24 ar   
    47   41   24 1    
    48   26   25 ar   
@<TRIPOS>SUBSTRUCTURE
     1 SAH802      1 GROUP   
@<TRIPOS>SET

