#    Name: 3c4c_324_2_INTS_M
#    Modification time : Mon Mar 24 20:30:14 2014

@<TRIPOS>MOLECULE
3c4c_324_2_INTS_M
   56     0     9     0     0
SMALL
NO_CHARGES


@<TRIPOS>ATOM
      1 N          -5.3040    4.8285    5.8125 N.am      2 SEC2        0.0000 
      2 N          -6.8490    4.1920    5.4780 N.am      8 SEL2        0.0000 
      3 N          -3.7590    5.4650    6.1470 N.am      5 SEP2        0.0000 
      4 CA         -9.0385    2.4135    4.4255 C.3       3 GLC5        0.0000 
      5 CA         -8.3660    2.3780    6.4560 C.3       9 GLL5        0.0000 
      6 CA         -9.7110    2.4490    2.3950 C.3       6 GLP5        0.0000 
      7 CA        -10.5075    5.0500    6.9985 C.3       3 GLC5        0.0000 
      8 CA         -8.9560    3.5820    7.1480 C.3       9 GLL5        0.0000 
      9 CA        -12.0590    6.5180    6.8490 C.3       6 GLP5        0.0000 
     10 CA        -11.2840    4.9040    6.0155 C.3       3 GLC5        0.0000 
     11 CA         -9.8920    4.2700    6.2060 C.3       9 GLL5        0.0000 
     12 CA        -12.6760    5.5380    5.8250 C.3       6 GLP5        0.0000 
     13 CA         -9.8015    3.3595    4.3005 C.3       3 GLC5        0.0000 
     14 CA         -4.8405   -4.9670    6.0950 C.3       3 GLC5        0.0000 
     15 CA         -5.6230   -3.4560    6.8320 C.3       9 GLL5        0.0000 
     16 CA         -4.0580   -6.4780    5.3580 C.3       6 GLP5        0.0000 
     17 CA         -6.0190   -0.3170    8.3075 C.3       3 GLC5        0.0000 
     18 CA         -4.4580   -1.3040    7.0630 C.3       9 GLL5        0.0000 
     19 CA         -7.5800    0.6700    9.5520 C.3       6 GLP5        0.0000 
     20 CA         -2.9510   -1.6450    4.1280 C.3       3 GLC5        0.0000 
     21 CA         -2.6840   -3.1170    5.3250 C.3       9 GLL5        0.0000 
     22 CA         -3.2180   -0.1730    2.9310 C.3       6 GLP5        0.0000 
     23 CA         -4.0850   -3.0390    3.6650 C.3       3 GLC5        0.0000 
     24 CA         -5.4860   -2.9610    2.0050 C.3       6 GLP5        0.0000 
     25 CA          0.5980   -4.2735    4.5390 C.3       3 GLC5        0.0000 
     26 CA         -0.8630   -4.2370    5.9590 C.3       9 GLL5        0.0000 
     27 CA          2.0590   -4.3100    3.1190 C.3       6 GLP5        0.0000 
     28 O          -1.8670   -4.6525    3.4510 O.2       1 ALC1        0.0000 
     29 O          -1.6960   -3.9760    4.8950 O.2       7 ALL1        0.0000 
     30 O          -2.0380   -5.3290    2.0070 O.2       4 ALP1        0.0000 
     31 CA          1.4755   -4.7135    5.1545 C.3       3 GLC5        0.0000 
     32 CA          0.8920   -5.1170    7.1900 C.3       9 GLL5        0.0000 
     33 CA          1.2280   -5.6290   11.0845 C.3       3 GLC5        0.0000 
     34 CA          1.2510   -4.5210    9.8400 C.3       9 GLL5        0.0000 
     35 CA          1.2050   -6.7370   12.3290 C.3       6 GLP5        0.0000 
     36 CA          1.9570   -3.5530    8.5375 C.3       3 GLC5        0.0000 
     37 CA          2.6630   -2.5850    7.2350 C.3       6 GLP5        0.0000 
     38 CA         -8.1205    1.8250    8.1770 C.3       3 GLC5        0.0000 
     39 CA        -10.4317    2.3640    6.3350 C.3       3 GLC5        0.0000 
     40 CA        -11.5870    1.1030    6.1660 C.3       6 GLP5        0.0000 
     41 CA         -6.7489    0.4155    7.8989 C.3       3 GLC5        0.0000 
     42 CA         -5.6960    0.7330    6.2630 C.3       9 GLL5        0.0000 
     43 CA         -8.3770   -0.7827    5.2690 C.3       3 GLC5        0.0000 
     44 CA         -6.7550   -0.1210    5.9290 C.3       9 GLL5        0.0000 
     45 CA        -10.0130   -0.7580    4.5140 C.3       6 GLP5        0.0000 
     46 CA         -6.6190   -1.4098    4.3545 C.3       3 GLC5        0.0000 
     47 CA         -6.4970   -2.0120    2.6850 C.3       6 GLP5        0.0000 
     48 CA         -6.0602   -2.4002    4.7165 C.3       3 GLC5        0.0000 
     49 CA         -7.2886   -2.6829    7.7289 C.3       3 GLC5        0.0000 
     50 CA         -6.7270   -1.4940    6.1190 C.3       9 GLL5        0.0000 
     51 CA         -8.6780   -2.7340    8.8460 C.3       6 GLP5        0.0000 
     52 CA         -5.2664   -3.0911    8.3807 C.3       3 GLC5        0.0000 
     53 CA         -5.6240   -2.1210    6.6640 C.3       9 GLL5        0.0000 
     54 CA         -5.4920   -4.1360    9.8560 C.3       6 GLP5        0.0000 
     55 CA         -3.7812   -0.2469    4.9533 C.3       3 GLC5        0.0000 
     56 CA         -2.9493   -4.9504    5.8163 C.3       3 GLC5        0.0000 
@<TRIPOS>BOND
@<TRIPOS>SUBSTRUCTURE
     1 ALC1       28 GROUP        1 X    ALC  0     ROOT ALC X 1
     2 SEC2        1 GROUP        1 X    SEC  0     **** SEC X 2
     3 GLC5        4 GROUP        1 X    GLC  0     **** GLC X 6
     4 ALP1       30 GROUP        1 Y    ALP  0     ROOT ALP Y 8
     5 SEP2        3 GROUP        1 Y    SEP  0     **** SEP Y 9
     6 GLP5        6 GROUP        1 Y    GLP  0     **** GLP Y 13
     7 ALL1       29 GROUP        1 Z    ALL  0     ROOT ALL Z 15
     8 SEL2        2 GROUP        1 Z    SEL  0     **** SEL Z 16
     9 GLL5        5 GROUP        1 Z    GLL  0     **** GLL Z 20
@<TRIPOS>SET

