#    Name: 3c4c_324_2_ligand
#    Modification time : Mon Mar 24 20:30:14 2014

@<TRIPOS>MOLECULE
3c4c_324_2_ligand
   41    43     1     0     0
SMALL
NO_CHARGES


@<TRIPOS>ATOM
      1 O24        -7.3360    2.3100    4.1540 O.2       1 3243        0.0000 
      2 S22        -7.0850    2.7750    5.4850 S.o2      1 3243        0.0000 
      3 O23        -6.8490    4.1920    5.4780 O.2       1 3243        0.0000 
      4 C25        -8.3660    2.3780    6.4560 C.3       1 3243        0.0000 
      5 C26        -8.9560    3.5820    7.1480 C.3       1 3243        0.0000 
      6 C27        -9.8920    4.2700    6.2060 C.3       1 3243        0.0000 
      7 N21        -5.7650    2.0730    6.0610 N.pl3     1 3243        0.0000 
      8 C17        -5.6960    0.7330    6.2630 C.ar      1 3243        0.0000 
      9 C18        -4.4650    0.1530    6.8620 C.ar      1 3243        0.0000 
     10 F20        -3.3810    0.8820    7.2140 F         1 3243        0.0000 
     11 C16        -6.7550   -0.1210    5.9290 C.ar      1 3243        0.0000 
     12 C15        -6.7270   -1.4940    6.1190 C.ar      1 3243        0.0000 
     13 C14        -5.6240   -2.1210    6.6640 C.ar      1 3243        0.0000 
     14 F19        -5.6230   -3.4560    6.8320 F         1 3243        0.0000 
     15 C13        -4.4580   -1.3040    7.0630 C.ar      1 3243        0.0000 
     16 C11        -3.2660   -1.9510    7.6390 C.2       1 3243        0.0000 
     17 O12        -3.0010   -1.7490    8.8130 O.2       1 3243        0.0000 
     18 C9         -2.5050   -2.8060    6.6850 C.2       1 3243        0.0000 
     19 C8         -2.6840   -3.1170    5.3250 C.2       1 3243        0.0000 
     20 C2         -1.3100   -3.5310    7.1290 C.ar      1 3243        0.0000 
     21 C1         -0.6610   -3.6150    8.3310 C.ar      1 3243        0.0000 
     22 C3         -0.8630   -4.2370    5.9590 C.ar      1 3243        0.0000 
     23 N7         -1.6960   -3.9760    4.8950 N.pl3     1 3243        0.0000 
     24 N4          0.2380   -5.0210    6.0110 N.ar      1 3243        0.0000 
     25 C5          0.8920   -5.1170    7.1900 C.ar      1 3243        0.0000 
     26 C6          0.4520   -4.4310    8.3460 C.ar      1 3243        0.0000 
     27 CL10        1.2510   -4.5210    9.8400 Cl        1 3243        0.0000 
     28 H          -7.9827    1.6556    7.1694 H         1 3243        0.0000 
     29 H          -9.0900    1.8961    5.8070 H         1 3243        0.0000 
     30 H          -8.1576    4.2592    7.4371 H         1 3243        0.0000 
     31 H          -9.4936    3.2607    8.0354 H         1 3243        0.0000 
     32 H          -5.0157    2.7367    6.2479 H         1 3243        0.0000 
     33 H          -7.6202    0.3107    5.5095 H         1 3243        0.0000 
     34 H          -7.5545   -2.0610    5.8448 H         1 3243        0.0000 
     35 H          -3.4006   -2.7706    4.7846 H         1 3243        0.0000 
     36 H          -0.9679   -3.1208    9.1467 H         1 3243        0.0000 
     37 H          -1.6061   -4.3276    4.0139 H         1 3243        0.0000 
     38 H           1.7489   -5.7074    7.2775 H         1 3243        0.0000 
     39 H          -9.4263    4.5718    5.3741 H         1 3243        0.0000 
     40 H         -10.6403    3.6705    5.9220 H         1 3243        0.0000 
     41 H         -10.3067    5.0803    6.6202 H         1 3243        0.0000 
@<TRIPOS>BOND
     1    2    1 2    
     2    3    2 2    
     3    4    2 1    
     4    7    2 1    
     5    5    4 1    
     6   28    4 1    
     7   29    4 1    
     8    6    5 1    
     9   30    5 1    
    10   31    5 1    
    11   39    6 1    
    12   40    6 1    
    13   41    6 1    
    14    8    7 1    
    15   32    7 1    
    16    9    8 ar   
    17   11    8 ar   
    18   10    9 1    
    19   15    9 ar   
    20   12   11 ar   
    21   33   11 1    
    22   13   12 ar   
    23   34   12 1    
    24   14   13 1    
    25   15   13 ar   
    26   16   15 1    
    27   17   16 2    
    28   18   16 1    
    29   19   18 2    
    30   20   18 1    
    31   23   19 1    
    32   35   19 1    
    33   21   20 ar   
    34   22   20 ar   
    35   26   21 ar   
    36   36   21 1    
    37   23   22 1    
    38   24   22 ar   
    39   37   23 1    
    40   25   24 ar   
    41   26   25 ar   
    42   38   25 1    
    43   27   26 1    
@<TRIPOS>SUBSTRUCTURE
     1 3243        1 GROUP   
@<TRIPOS>SET

