#    Name: 3bt9_DEQ_1_INTS_M
#    Modification time : Mon Mar 24 20:02:50 2014

@<TRIPOS>MOLECULE
3bt9_DEQ_1_INTS_M
   66     0     6     0     0
SMALL
NO_CHARGES


@<TRIPOS>ATOM
      1 CA        -61.6640  -43.2445    2.8655 C.3       2 GLC5        0.0000 
      2 CA        -62.6870  -45.0190    2.1640 C.3       6 GLL5        0.0000 
      3 CA        -60.6410  -41.4700    3.5670 C.3       4 GLP5        0.0000 
      4 CA        -60.3740  -43.4590    3.0160 C.3       2 GLC5        0.0000 
      5 CA        -60.1070  -45.4480    2.4650 C.3       6 GLL5        0.0000 
      6 CA        -64.6560  -46.7550   -1.3130 C.3       2 GLC5        0.0000 
      7 CA        -63.5530  -45.3340   -0.2020 C.3       6 GLL5        0.0000 
      8 CA        -65.7590  -48.1760   -2.4240 C.3       4 GLP5        0.0000 
      9 CA        -65.9725  -46.2975   -0.8270 C.3       2 GLC5        0.0000 
     10 CA        -64.8830  -44.9860    0.1910 C.3       6 GLL5        0.0000 
     11 CA        -67.0620  -47.6090   -1.8450 C.3       4 GLP5        0.0000 
     12 CA        -60.9595  -43.2750    4.1860 C.3       2 GLC5        0.0000 
     13 CA        -61.2780  -45.0800    4.8050 C.3       6 GLL5        0.0000 
     14 CA        -61.1635  -47.0070    4.0360 C.3       2 GLC5        0.0000 
     15 CA        -61.0490  -48.9340    3.2670 C.3       4 GLP5        0.0000 
     16 CA        -64.0510  -47.0255    9.3940 C.3       2 GLC5        0.0000 
     17 CA        -65.0680  -45.3840    8.2440 C.3       6 GLL5        0.0000 
     18 CA        -63.0340  -48.6670   10.5440 C.3       4 GLP5        0.0000 
     19 CA        -64.9140  -44.7875   10.2480 C.3       2 GLC5        0.0000 
     20 CA        -64.7600  -44.1910   12.2520 C.3       4 GLP5        0.0000 
     21 CA        -72.5385  -47.4895   11.0775 C.3       2 GLC5        0.0000 
     22 CA        -73.8900  -46.1440   10.4350 C.3       6 GLL5        0.0000 
     23 CA        -71.1870  -48.8350   11.7200 C.3       4 GLP5        0.0000 
     24 CA        -58.9330  -46.0840    5.0475 C.3       2 GLC5        0.0000 
     25 CA        -58.7530  -45.5520    3.1750 C.3       6 GLL5        0.0000 
     26 CA        -59.1130  -46.6160    6.9200 C.3       4 GLP5        0.0000 
     27 CA        -57.2075  -44.3630    3.8075 C.3       2 GLC5        0.0000 
     28 CA        -55.6620  -43.1740    4.4400 C.3       4 GLP5        0.0000 
     29 CA        -59.5140  -47.2690    2.6520 C.3       2 GLC5        0.0000 
     30 CA        -60.2750  -48.9860    2.1290 C.3       4 GLP5        0.0000 
     31 O         -76.3075  -51.8765    9.0025 O.2       1 ALC1        0.0000 
     32 O         -76.0410  -50.3550    9.2680 O.2       5 ALL1        0.0000 
     33 O         -76.5740  -53.3980    8.7370 O.2       3 ALP1        0.0000 
     34 O         -77.2660  -49.3510    9.1565 O.2       1 ALC1        0.0000 
     35 O         -78.4910  -48.3470    9.0450 O.2       3 ALP1        0.0000 
     36 CA        -69.4108  -50.7137    7.2180 C.3       2 GLC5        0.0000 
     37 CA        -71.4790  -49.7460    7.1730 C.3       6 GLL5        0.0000 
     38 CA        -67.2930  -51.0440    7.5880 C.3       4 GLP5        0.0000 
     39 CA        -71.2788  -52.5300    5.3773 C.3       2 GLC5        0.0000 
     40 CA        -71.5780  -51.0210    6.5230 C.3       6 GLL5        0.0000 
     41 CA        -70.3950  -53.6380    4.1400 C.3       4 GLP5        0.0000 
     42 CA        -74.6145  -51.9925    5.7410 C.3       2 GLC5        0.0000 
     43 CA        -72.7470  -51.8230    6.7060 C.3       6 GLL5        0.0000 
     44 CA        -75.9480  -52.3980    4.3620 C.3       4 GLP5        0.0000 
     45 CA        -72.4410  -52.0480    9.0110 C.3       2 GLC5        0.0000 
     46 CA        -73.8150  -51.3510    7.5340 C.3       6 GLL5        0.0000 
     47 CA        -71.6010  -52.5090   10.9020 C.3       4 GLP5        0.0000 
     48 CA        -72.3693  -51.0690    9.5102 C.3       2 GLC5        0.0000 
     49 CA        -73.7420  -50.0570    8.2050 C.3       6 GLL5        0.0000 
     50 CA        -76.0110  -47.5150    8.8010 C.3       2 GLC5        0.0000 
     51 CA        -74.8340  -49.6050    9.0350 C.3       6 GLL5        0.0000 
     52 CA        -77.2180  -46.0550    8.2380 C.3       4 GLP5        0.0000 
     53 CA        -75.5053  -46.4240    9.1318 C.3       2 GLC5        0.0000 
     54 CA        -73.6950  -47.4420    9.6160 C.3       6 GLL5        0.0000 
     55 CA        -62.3480  -45.3208   -1.6033 C.3       2 GLC5        0.0000 
     56 CA        -62.4470  -45.3570    0.7260 C.3       6 GLL5        0.0000 
     57 CA        -62.9080  -45.1040   -3.6890 C.3       4 GLP5        0.0000 
     58 CA        -63.5630  -45.1320   -1.8473 C.3       2 GLC5        0.0000 
     59 CA        -60.7794  -45.8885    6.4235 C.3       2 GLC5        0.0000 
     60 CA        -61.4019  -43.7475    6.7730 C.3       2 GLC5        0.0000 
     61 CA        -60.3580  -42.3340    7.6190 C.3       4 GLP5        0.0000 
     62 CA        -69.1312  -47.1420    9.8245 C.3       2 GLC5        0.0000 
     63 CA        -67.5730  -45.6160    8.8930 C.3       6 GLL5        0.0000 
     64 CA        -69.9900  -48.5470   11.0620 C.3       4 GLP5        0.0000 
     65 CA        -70.3372  -47.6980    9.7272 C.3       2 GLC5        0.0000 
     66 CA        -70.0250  -46.9520    7.9960 C.3       6 GLL5        0.0000 
@<TRIPOS>BOND
@<TRIPOS>SUBSTRUCTURE
     1 ALC1       31 GROUP        1 X    ALC  0     ROOT ALC X 1
     2 GLC5        1 GROUP        1 X    GLC  0     **** GLC X 6
     3 ALP1       33 GROUP        1 Y    ALP  0     ROOT ALP Y 8
     4 GLP5        3 GROUP        1 Y    GLP  0     **** GLP Y 13
     5 ALL1       32 GROUP        1 Z    ALL  0     ROOT ALL Z 15
     6 GLL5        2 GROUP        1 Z    GLL  0     **** GLL Z 20
@<TRIPOS>SET

