#    Name: 3bt9_DEQ_1_ligand
#    Modification time : Mon Mar 24 20:02:50 2014

@<TRIPOS>MOLECULE
3bt9_DEQ_1_ligand
   73    76     1     0     0
SMALL
NO_CHARGES


@<TRIPOS>ATOM
      1 C1        -71.4790  -49.7460    7.1730 C.ar      1 DEQ201      0.0000 
      2 C2        -71.5780  -51.0210    6.5230 C.ar      1 DEQ201      0.0000 
      3 C3        -72.7470  -51.8230    6.7060 C.ar      1 DEQ201      0.0000 
      4 C4        -73.8150  -51.3510    7.5340 C.ar      1 DEQ201      0.0000 
      5 C5        -72.5330  -49.2010    8.0320 C.ar      1 DEQ201      0.0000 
      6 C6        -73.7420  -50.0570    8.2050 C.ar      1 DEQ201      0.0000 
      7 C7        -74.8340  -49.6050    9.0350 C.ar      1 DEQ201      0.0000 
      8 C8        -74.7740  -48.3450    9.6930 C.ar      1 DEQ201      0.0000 
      9 C9        -73.6950  -47.4420    9.6160 C.ar      1 DEQ201      0.0000 
     10 N1        -72.5060  -47.8060    8.7890 N.pl3     1 DEQ201      0.0000 
     11 C10       -62.4470  -45.3570    0.7260 C.ar      1 DEQ201      0.0000 
     12 C11       -62.6870  -45.0190    2.1640 C.ar      1 DEQ201      0.0000 
     13 N2        -61.4380  -45.0510    3.1990 N.pl3     1 DEQ201      0.0000 
     14 C12       -60.1070  -45.4480    2.4650 C.ar      1 DEQ201      0.0000 
     15 C13       -60.0370  -45.7420    1.0990 C.ar      1 DEQ201      0.0000 
     16 C14       -61.1290  -45.7180    0.2390 C.ar      1 DEQ201      0.0000 
     17 C15       -63.5530  -45.3340   -0.2020 C.ar      1 DEQ201      0.0000 
     18 C16       -64.8830  -44.9860    0.1910 C.ar      1 DEQ201      0.0000 
     19 C17       -65.1470  -44.6510    1.5480 C.ar      1 DEQ201      0.0000 
     20 C18       -64.0800  -44.6680    2.4960 C.ar      1 DEQ201      0.0000 
     21 C19       -61.2780  -45.0800    4.8050 C.3       1 DEQ201      0.0000 
     22 C20       -62.7070  -45.1660    5.2910 C.3       1 DEQ201      0.0000 
     23 C21       -62.8990  -45.1990    6.8060 C.3       1 DEQ201      0.0000 
     24 C22       -64.3800  -45.3410    6.8990 C.3       1 DEQ201      0.0000 
     25 C23       -65.0680  -45.3840    8.2440 C.3       1 DEQ201      0.0000 
     26 C24       -66.5330  -45.5660    7.8070 C.3       1 DEQ201      0.0000 
     27 C25       -67.5730  -45.6160    8.8930 C.3       1 DEQ201      0.0000 
     28 C26       -68.9720  -45.8580    8.2810 C.3       1 DEQ201      0.0000 
     29 C27       -70.0250  -46.9520    7.9960 C.3       1 DEQ201      0.0000 
     30 C28       -71.3440  -46.7460    8.7890 C.3       1 DEQ201      0.0000 
     31 C30       -73.8900  -46.1440   10.4350 C.3       1 DEQ201      0.0000 
     32 C29       -58.7530  -45.5520    3.1750 C.3       1 DEQ201      0.0000 
     33 N4        -76.0410  -50.3550    9.2680 N.pl3     1 DEQ201      0.0000 
     34 N3        -60.6980  -46.0770   -1.1020 N.pl3     1 DEQ201      0.0000 
     35 H         -70.6297  -49.1762    7.0367 H         1 DEQ201      0.0000 
     36 H         -70.8204  -51.3500    5.9364 H         1 DEQ201      0.0000 
     37 H         -72.8206  -52.7263    6.2497 H         1 DEQ201      0.0000 
     38 H         -74.6500  -51.9224    7.6654 H         1 DEQ201      0.0000 
     39 H         -75.6055  -48.0699   10.2838 H         1 DEQ201      0.0000 
     40 H         -59.0934  -45.9979    0.6993 H         1 DEQ201      0.0000 
     41 H         -63.3701  -45.5797   -1.1878 H         1 DEQ201      0.0000 
     42 H         -65.6290  -44.9790   -0.4939 H         1 DEQ201      0.0000 
     43 H         -66.0841  -44.4020    1.8415 H         1 DEQ201      0.0000 
     44 H         -64.2778  -44.4209    3.4846 H         1 DEQ201      0.0000 
     45 H         -60.8264  -44.1756    5.0919 H         1 DEQ201      0.0000 
     46 H         -60.7340  -45.9447    5.0507 H         1 DEQ201      0.0000 
     47 H         -63.1840  -46.0733    4.8564 H         1 DEQ201      0.0000 
     48 H         -63.2816  -44.3042    4.8825 H         1 DEQ201      0.0000 
     49 H         -62.5822  -44.2828    7.2190 H         1 DEQ201      0.0000 
     50 H         -62.4142  -46.0467    7.2019 H         1 DEQ201      0.0000 
     51 H         -64.6911  -46.2717    6.3206 H         1 DEQ201      0.0000 
     52 H         -64.8621  -44.5082    6.2894 H         1 DEQ201      0.0000 
     53 H         -64.9639  -44.4660    8.7407 H         1 DEQ201      0.0000 
     54 H         -64.7597  -46.2256    8.7889 H         1 DEQ201      0.0000 
     55 H         -66.5948  -46.4998    7.1950 H         1 DEQ201      0.0000 
     56 H         -66.7835  -44.7408    7.0952 H         1 DEQ201      0.0000 
     57 H         -67.5924  -44.6755    9.4371 H         1 DEQ201      0.0000 
     58 H         -67.3543  -46.4252    9.5846 H         1 DEQ201      0.0000 
     59 H         -68.9131  -45.2364    7.1950 H         1 DEQ201      0.0000 
     60 H         -69.6566  -44.9322    8.7744 H         1 DEQ201      0.0000 
     61 H         -69.6060  -47.9273    8.2590 H         1 DEQ201      0.0000 
     62 H         -70.2551  -46.9556    6.9269 H         1 DEQ201      0.0000 
     63 H         -71.0713  -46.5490    9.8736 H         1 DEQ201      0.0000 
     64 H         -71.7949  -45.7558    8.4640 H         1 DEQ201      0.0000 
     65 H         -76.0760  -51.2691    8.8639 H         1 DEQ201      0.0000 
     66 H         -76.7436  -49.8993    9.8144 H         1 DEQ201      0.0000 
     67 H         -73.1032  -45.5322   10.3542 H         1 DEQ201      0.0000 
     68 H         -74.6928  -45.6306   10.1318 H         1 DEQ201      0.0000 
     69 H         -74.0145  -46.3344   11.4088 H         1 DEQ201      0.0000 
     70 H         -58.0228  -45.8172    2.5453 H         1 DEQ201      0.0000 
     71 H         -58.4824  -44.6824    3.5879 H         1 DEQ201      0.0000 
     72 H         -58.7693  -46.2320    3.9080 H         1 DEQ201      0.0000 
     73 H         -60.8731  -46.7885   -0.4214 H         1 DEQ201      0.0000 
@<TRIPOS>BOND
     1    2    1 ar   
     2    5    1 ar   
     3   35    1 1    
     4    3    2 ar   
     5   36    2 1    
     6    4    3 ar   
     7   37    3 1    
     8    6    4 ar   
     9   38    4 1    
    10    6    5 ar   
    11   10    5 ar   
    12    7    6 ar   
    13    8    7 ar   
    14   33    7 1    
    15    9    8 ar   
    16   39    8 1    
    17   10    9 ar   
    18   31    9 1    
    19   30   10 1    
    20   12   11 ar   
    21   16   11 ar   
    22   17   11 ar   
    23   13   12 ar   
    24   20   12 ar   
    25   14   13 ar   
    26   21   13 1    
    27   15   14 ar   
    28   32   14 1    
    29   16   15 ar   
    30   40   15 1    
    31   34   16 1    
    32   18   17 ar   
    33   41   17 1    
    34   19   18 ar   
    35   42   18 1    
    36   20   19 ar   
    37   43   19 1    
    38   44   20 1    
    39   22   21 1    
    40   45   21 1    
    41   46   21 1    
    42   23   22 1    
    43   47   22 1    
    44   48   22 1    
    45   24   23 1    
    46   49   23 1    
    47   50   23 1    
    48   25   24 1    
    49   51   24 1    
    50   52   24 1    
    51   26   25 1    
    52   53   25 1    
    53   54   25 1    
    54   27   26 1    
    55   55   26 1    
    56   56   26 1    
    57   28   27 1    
    58   57   27 1    
    59   58   27 1    
    60   29   28 1    
    61   59   28 1    
    62   60   28 1    
    63   30   29 1    
    64   61   29 1    
    65   62   29 1    
    66   63   30 1    
    67   64   30 1    
    68   67   31 1    
    69   68   31 1    
    70   69   31 1    
    71   70   32 1    
    72   71   32 1    
    73   72   32 1    
    74   65   33 1    
    75   66   33 1    
    76   73   34 1    
@<TRIPOS>SUBSTRUCTURE
     1 DEQ201      1 GROUP   
@<TRIPOS>SET

