#    Name: 2gu8_796_1_INTS_M
#    Modification time : Tue Mar 25 15:07:29 2014

@<TRIPOS>MOLECULE
2gu8_796_1_INTS_M
   98     0    12     0     0
SMALL
NO_CHARGES


@<TRIPOS>ATOM
      1 CA         -5.9840   -8.5330    2.6665 C.3       4 GLC5        0.0000 
      2 CA         -7.4760   -9.9170    2.3660 C.3      12 GLL5        0.0000 
      3 CA         -4.4920   -7.1490    2.9670 C.3       8 GLP5        0.0000 
      4 CA        -10.4285  -11.4385    5.5205 C.3       4 GLC5        0.0000 
      5 CA         -9.2430  -10.0010    4.2890 C.3      12 GLL5        0.0000 
      6 CA        -11.6140  -12.8760    6.7520 C.3       8 GLP5        0.0000 
      7 CA         -7.5350  -11.8480    6.3245 C.3       4 GLC5        0.0000 
      8 CA         -8.0150  -10.2540    4.9150 C.3      12 GLL5        0.0000 
      9 CA         -7.0550  -13.4420    7.7340 C.3       8 GLP5        0.0000 
     10 CA         -8.2250  -12.2300    4.0015 C.3       4 GLC5        0.0000 
     11 CA         -8.4350  -14.2060    3.0880 C.3       8 GLP5        0.0000 
     12 CA         -4.9740   -8.7610    3.5900 C.3       4 GLC5        0.0000 
     13 CA         -5.4560  -10.3730    4.2130 C.3      12 GLL5        0.0000 
     14 CA         -5.3355   -8.4610    5.2555 C.3       4 GLC5        0.0000 
     15 CA         -4.8850  -10.4440    5.4910 C.3      12 GLL5        0.0000 
     16 CA         -5.7860   -6.4780    5.0200 C.3       8 GLP5        0.0000 
     17 CA         -3.2325  -11.9385    3.0475 C.3       4 GLC5        0.0000 
     18 CA         -3.3130  -10.3060    3.2990 C.3      12 GLL5        0.0000 
     19 CA         -3.1520  -13.5710    2.7960 C.3       8 GLP5        0.0000 
     20 CA         -1.2225  -10.9865    3.6325 C.3       4 GLC5        0.0000 
     21 CA          0.8680  -11.6670    3.9660 C.3       8 GLP5        0.0000 
     22 CA         -1.8065   -8.8650    3.2100 C.3       4 GLC5        0.0000 
     23 CA         -0.3000   -7.4240    3.1210 C.3       8 GLP5        0.0000 
     24 CA         -3.9025   -8.7275    3.1330 C.3       4 GLC5        0.0000 
     25 O          -1.2260  -10.4525    1.8345 O.2       1 ALC1        0.0000 
     26 O          -2.5670  -10.2390    2.2320 O.2       9 ALL1        0.0000 
     27 O           0.1150  -10.6660    1.4370 O.2       5 ALP1        0.0000 
     28 CA         -3.1930  -11.7465    1.8920 C.3       4 GLC5        0.0000 
     29 CA         -3.2340   -9.9220    0.9880 C.3      12 GLL5        0.0000 
     30 CA         -3.1680   -8.3450    0.0620 C.3       4 GLC5        0.0000 
     31 CA         -3.1020   -6.7680   -0.8640 C.3       8 GLP5        0.0000 
     32 CA         -2.5365  -11.0470   -0.4025 C.3       4 GLC5        0.0000 
     33 CA         -1.8390  -12.1720   -1.7930 C.3       8 GLP5        0.0000 
     34 CA         -1.7670   -8.6730    2.0545 C.3       4 GLC5        0.0000 
     35 CA         -3.8630   -8.5355    1.9775 C.3       4 GLC5        0.0000 
     36 N          -1.3615  -10.0245    4.7580 N.am      2 SEC2        0.0000 
     37 N          -2.7590  -10.4040    4.5180 N.am     10 SEL2        0.0000 
     38 N           0.0360   -9.6450    4.9980 N.am      6 SEP2        0.0000 
     39 CA         -1.6970   -9.3610    5.5635 C.3       4 GLC5        0.0000 
     40 CA         -3.4870  -10.4710    5.6370 C.3      12 GLL5        0.0000 
     41 CA          0.0930   -8.2510    5.4900 C.3       8 GLP5        0.0000 
     42 CA         -3.9895   -8.8100    4.3020 C.3       4 GLC5        0.0000 
     43 OD1       -13.2335   -7.2940   -0.4885 O.co2     3 ASC3        0.0000 
     44 OD1       -13.3690   -6.7970    0.7530 O.co2    11 ASL3        0.0000 
     45 OD1       -13.0980   -7.7910   -1.7300 O.co2     7 ASP3        0.0000 
     46 O         -12.8595   -5.6765    0.7780 O.2       1 ALC1        0.0000 
     47 O         -13.3690   -6.7970    0.7530 O.2       9 ALL1        0.0000 
     48 O         -12.3500   -4.5560    0.8030 O.2       5 ALP1        0.0000 
     49 O         -13.2335   -7.2940   -0.4885 O.2       1 ALC1        0.0000 
     50 O         -13.0980   -7.7910   -1.7300 O.2       5 ALP1        0.0000 
     51 CA        -14.6225  -15.1855   -2.6070 C.3       4 GLC5        0.0000 
     52 CA        -13.1680  -15.2310   -1.1410 C.3      12 GLL5        0.0000 
     53 CA        -16.0770  -15.1400   -4.0730 C.3       8 GLP5        0.0000 
     54 CA        -12.7935  -16.0665    0.8505 C.3       4 GLC5        0.0000 
     55 CA        -12.4190  -16.9020    2.8420 C.3       8 GLP5        0.0000 
     56 CA        -11.3310  -14.9860   -1.6360 C.3       4 GLC5        0.0000 
     57 CA         -9.4940  -14.7410   -2.1310 C.3       8 GLP5        0.0000 
     58 CA        -12.8365  -15.5020   -2.3830 C.3       4 GLC5        0.0000 
     59 CA        -12.5050  -15.7730   -3.6250 C.3       8 GLP5        0.0000 
     60 CA        -12.6520  -15.2345    1.8820 C.3       4 GLC5        0.0000 
     61 CA        -12.8850  -13.5670    0.9220 C.3      12 GLL5        0.0000 
     62 CA        -12.0100  -12.6110    4.9960 C.3       4 GLC5        0.0000 
     63 CA        -12.4060  -12.3460    3.2400 C.3      12 GLL5        0.0000 
     64 CA        -13.5500  -13.2145    4.0450 C.3       4 GLC5        0.0000 
     65 CA        -14.6940  -14.0830    4.8500 C.3       8 GLP5        0.0000 
     66 CA        -10.7010  -12.9970    2.5110 C.3       4 GLC5        0.0000 
     67 CA         -8.9960  -13.6480    1.7820 C.3       8 GLP5        0.0000 
     68 CA         -8.0635   -8.0633    1.8068 C.3       4 GLC5        0.0000 
     69 CA         -9.1420   -9.7940    2.9270 C.3      12 GLL5        0.0000 
     70 CA         -7.8180   -6.2710    0.9670 C.3       8 GLP5        0.0000 
     71 CA         -8.8860  -11.7881    2.6249 C.3       4 GLC5        0.0000 
     72 CA         -6.6305   -8.3695    4.7470 C.3       4 GLC5        0.0000 
     73 CA         -6.9350  -10.2680    4.0330 C.3      12 GLL5        0.0000 
     74 CA         -6.5678  -12.2127    3.5740 C.3       4 GLC5        0.0000 
     75 CA         -6.9400  -14.1050    3.0250 C.3       8 GLP5        0.0000 
     76 CA         -4.5384  -12.1194    6.1147 C.3       4 GLC5        0.0000 
     77 CA         -4.7480  -13.7990    6.9850 C.3       8 GLP5        0.0000 
     78 CA         -3.7404  -12.0054    4.0202 C.3       4 GLC5        0.0000 
     79 CA        -11.6788   -7.6510   -0.2953 C.3       4 GLC5        0.0000 
     80 CA        -12.3920   -8.9870    1.3750 C.3      12 GLL5        0.0000 
     81 CA        -10.8630   -7.0470   -2.1530 C.3       8 GLP5        0.0000 
     82 CA        -15.0657  -11.6690    1.5720 C.3       4 GLC5        0.0000 
     83 CA        -13.5920   -9.8620    1.6990 C.3      12 GLL5        0.0000 
     84 CA        -16.5980  -12.8090    1.8190 C.3       8 GLP5        0.0000 
     85 CA        -15.2152  -12.3660    0.5585 C.3       4 GLC5        0.0000 
     86 CA        -13.8750  -11.3060   -0.3710 C.3      12 GLL5        0.0000 
     87 CA        -13.0267  -14.4327   -2.1620 C.3       4 GLC5        0.0000 
     88 CA        -13.7900  -12.5400   -1.0330 C.3      12 GLL5        0.0000 
     89 CA        -14.8470  -13.2075    1.0488 C.3       4 GLC5        0.0000 
     90 CA        -13.3070  -13.6450   -0.3650 C.3      12 GLL5        0.0000 
     91 CA        -14.1382  -16.0930   -0.2810 C.3       4 GLC5        0.0000 
     92 CA        -15.0390  -17.7480    0.1910 C.3       8 GLP5        0.0000 
     93 CA        -12.1819  -12.8245   -1.8687 C.3       4 GLC5        0.0000 
     94 CA        -10.7940  -12.8650   -3.2040 C.3       8 GLP5        0.0000 
     95 CA        -13.8098  -13.5190    3.0437 C.3       4 GLC5        0.0000 
     96 CA        -10.9608  -13.3015    1.5097 C.3       4 GLC5        0.0000 
     97 CA        -12.9660  -12.3430    1.5530 C.3      12 GLL5        0.0000 
     98 CA        -14.6420  -12.5768    2.1078 C.3       4 GLC5        0.0000 
@<TRIPOS>BOND
@<TRIPOS>SUBSTRUCTURE
     1 ALC1       25 GROUP        1 X    ALC  0     ROOT ALC X 1
     2 SEC2       36 GROUP        1 X    SEC  0     **** SEC X 2
     3 ASC3       43 GROUP        1 X    ASC  0     **** ASC X 3
     4 GLC5        1 GROUP        1 X    GLC  0     **** GLC X 6
     5 ALP1       27 GROUP        1 Y    ALP  0     ROOT ALP Y 8
     6 SEP2       38 GROUP        1 Y    SEP  0     **** SEP Y 9
     7 ASP3       45 GROUP        1 Y    ASP  0     **** ASP Y 10
     8 GLP5        3 GROUP        1 Y    GLP  0     **** GLP Y 13
     9 ALL1       26 GROUP        1 Z    ALL  0     ROOT ALL Z 15
    10 SEL2       37 GROUP        1 Z    SEL  0     **** SEL Z 16
    11 ASL3       44 GROUP        1 Z    ASL  0     **** ASL Z 17
    12 GLL5        2 GROUP        1 Z    GLL  0     **** GLL Z 20
@<TRIPOS>SET

