#    Name: 2gu8_796_1_ligand
#    Modification time : Tue Mar 25 15:07:29 2014

@<TRIPOS>MOLECULE
2gu8_796_1_ligand
   48    50     1     0     0
SMALL
NO_CHARGES


@<TRIPOS>ATOM
      1 O23        -9.6900   -9.2610    0.6840 O.2       1 7961001     0.0000 
      2 C22       -10.0940   -9.5220    1.8320 C.2       1 7961001     0.0000 
      3 C18        -9.1420   -9.7940    2.9270 C.2       1 7961001     0.0000 
      4 S1         -7.4760   -9.9170    2.3660 S.3       1 7961001     0.0000 
      5 C17        -9.2430  -10.0010    4.2890 C.2       1 7961001     0.0000 
      6 C16        -8.0150  -10.2540    4.9150 C.2       1 7961001     0.0000 
      7 C15        -6.9350  -10.2680    4.0330 C.2       1 7961001     0.0000 
      8 C3         -5.4560  -10.3730    4.2130 C.ar      1 7961001     0.0000 
      9 C2         -4.8850  -10.4440    5.4910 C.ar      1 7961001     0.0000 
     10 N4         -4.6670  -10.2940    3.1150 N.ar      1 7961001     0.0000 
     11 C5         -3.3130  -10.3060    3.2990 C.ar      1 7961001     0.0000 
     12 N9         -2.5670  -10.2390    2.2320 N.pl3     1 7961001     0.0000 
     13 C10        -3.2340   -9.9220    0.9880 C.3       1 7961001     0.0000 
     14 N6         -2.7590  -10.4040    4.5180 N.ar      1 7961001     0.0000 
     15 C1         -3.4870  -10.4710    5.6370 C.ar      1 7961001     0.0000 
     16 N24       -11.3640   -9.5860    2.2010 N.am      1 7961001     0.0000 
     17 C25       -12.3920   -8.9870    1.3750 C.3       1 7961001     0.0000 
     18 C27       -12.5970   -7.5230    1.7500 C.3       1 7961001     0.0000 
     19 N43       -13.3690   -6.7970    0.7530 N.4       1 7961001     0.0000 
     20 C28       -13.5920   -9.8620    1.6990 C.3       1 7961001     0.0000 
     21 C30       -13.4750  -11.1960    0.9510 C.ar      1 7961001     0.0000 
     22 C37       -13.8750  -11.3060   -0.3710 C.ar      1 7961001     0.0000 
     23 C36       -13.7900  -12.5400   -1.0330 C.ar      1 7961001     0.0000 
     24 C35       -13.3070  -13.6450   -0.3650 C.ar      1 7961001     0.0000 
     25 CL4       -13.1680  -15.2310   -1.1410 Cl        1 7961001     0.0000 
     26 C34       -12.8850  -13.5670    0.9220 C.ar      1 7961001     0.0000 
     27 C33       -12.9660  -12.3430    1.5530 C.ar      1 7961001     0.0000 
     28 CL2       -12.4060  -12.3460    3.2400 Cl        1 7961001     0.0000 
     29 H         -10.0945   -9.9753    4.7840 H         1 7961001     0.0000 
     30 H          -7.9274  -10.4060    5.8797 H         1 7961001     0.0000 
     31 H          -5.4851  -10.4763    6.3205 H         1 7961001     0.0000 
     32 H          -1.5650  -10.3898    2.2031 H         1 7961001     0.0000 
     33 H          -3.0812  -10.5389    6.5644 H         1 7961001     0.0000 
     34 H         -11.6783  -10.0504    3.0675 H         1 7961001     0.0000 
     35 H         -12.1553   -9.0930    0.3520 H         1 7961001     0.0000 
     36 H         -11.6020   -7.0634    1.8856 H         1 7961001     0.0000 
     37 H         -13.0983   -7.4901    2.7335 H         1 7961001     0.0000 
     38 H         -14.5025   -9.3610    1.3907 H         1 7961001     0.0000 
     39 H         -13.6255  -10.0548    2.7652 H         1 7961001     0.0000 
     40 H         -14.2361  -10.4857   -0.8749 H         1 7961001     0.0000 
     41 H         -14.0896  -12.6088   -2.0131 H         1 7961001     0.0000 
     42 H         -12.5179  -14.3811    1.4167 H         1 7961001     0.0000 
     43 H          -2.5931   -9.8879    0.2211 H         1 7961001     0.0000 
     44 H          -3.9315  -10.6004    0.7572 H         1 7961001     0.0000 
     45 H          -3.6911   -9.0335    1.0276 H         1 7961001     0.0000 
     46 H         -13.4953   -5.8381    1.0071 H         1 7961001     0.0000 
     47 H         -12.9226   -6.8068   -0.1418 H         1 7961001     0.0000 
     48 H         -14.2802   -7.1902    0.6303 H         1 7961001     0.0000 
@<TRIPOS>BOND
     1    2    1 2    
     2    3    2 1    
     3   16    2 am   
     4    4    3 1    
     5    5    3 2    
     6    7    4 1    
     7    6    5 1    
     8   29    5 1    
     9    7    6 2    
    10   30    6 1    
    11    8    7 1    
    12    9    8 ar   
    13   10    8 ar   
    14   15    9 ar   
    15   31    9 1    
    16   11   10 ar   
    17   12   11 1    
    18   14   11 ar   
    19   13   12 1    
    20   32   12 1    
    21   43   13 1    
    22   44   13 1    
    23   45   13 1    
    24   15   14 ar   
    25   33   15 1    
    26   17   16 1    
    27   34   16 1    
    28   18   17 1    
    29   20   17 1    
    30   35   17 1    
    31   19   18 1    
    32   36   18 1    
    33   37   18 1    
    34   46   19 1    
    35   47   19 1    
    36   48   19 1    
    37   21   20 1    
    38   38   20 1    
    39   39   20 1    
    40   22   21 ar   
    41   27   21 ar   
    42   23   22 ar   
    43   40   22 1    
    44   24   23 ar   
    45   41   23 1    
    46   25   24 1    
    47   26   24 ar   
    48   27   26 ar   
    49   42   26 1    
    50   28   27 1    
@<TRIPOS>SUBSTRUCTURE
     1 7961001     1 GROUP   
@<TRIPOS>SET

