#    Name: 3o9b_K2A_1_INTS_M
#    Modification time : Tue Mar 25 03:24:15 2014

@<TRIPOS>MOLECULE
3o9b_K2A_1_INTS_M
  101     0     9     0     0
SMALL
NO_CHARGES


@<TRIPOS>ATOM
      1 CA         13.0875   35.5415   19.7570 C.3       3 GLC5        0.0000 
      2 CA         14.4380   35.8720   18.1600 C.3       9 GLL5        0.0000 
      3 CA         11.7370   35.2110   21.3540 C.3       6 GLP5        0.0000 
      4 CA         13.7545   37.3360   16.9565 C.3       3 GLC5        0.0000 
      5 CA         13.0710   38.8000   15.7530 C.3       6 GLP5        0.0000 
      6 CA         12.4540   36.2970   17.9940 C.3       3 GLC5        0.0000 
      7 CA         10.4700   36.7220   17.8280 C.3       6 GLP5        0.0000 
      8 N          14.3335   34.9130   20.6725 N.am      2 SEC2        0.0000 
      9 N          14.8780   35.8530   19.5200 N.am      8 SEL2        0.0000 
     10 N          13.7890   33.9730   21.8250 N.am      5 SEP2        0.0000 
     11 CA         15.2480   31.1045   15.5120 C.3       3 GLC5        0.0000 
     12 CA         16.0200   32.8070   16.5100 C.3       9 GLL5        0.0000 
     13 CA         14.4760   29.4020   14.5140 C.3       6 GLP5        0.0000 
     14 CA         15.2080   36.9315   15.6435 C.3       3 GLC5        0.0000 
     15 CA         16.3580   35.5640   16.5770 C.3       9 GLL5        0.0000 
     16 CA         14.0580   38.2990   14.7100 C.3       6 GLP5        0.0000 
     17 CA         23.8530   31.1175   15.1410 C.3       3 GLC5        0.0000 
     18 CA         22.1360   32.5700   15.1530 C.3       9 GLL5        0.0000 
     19 CA         25.5700   29.6650   15.1290 C.3       6 GLP5        0.0000 
     20 CA         21.2790   34.1260   13.8300 C.3       3 GLC5        0.0000 
     21 CA         20.4220   35.6820   12.5070 C.3       6 GLP5        0.0000 
     22 CA         22.7845   32.9515   19.2945 C.3       3 GLC5        0.0000 
     23 CA         22.1890   33.6270   17.4650 C.3       9 GLL5        0.0000 
     24 CA         23.3800   32.2760   21.1240 C.3       6 GLP5        0.0000 
     25 CA         23.9510   32.4715   17.5770 C.3       3 GLC5        0.0000 
     26 CA         25.7130   31.3160   17.6890 C.3       6 GLP5        0.0000 
     27 CA         17.4945   30.7250   18.0155 C.3       3 GLC5        0.0000 
     28 CA         18.9830   30.5720   16.4190 C.3       9 GLL5        0.0000 
     29 CA         16.0060   30.8780   19.6120 C.3       6 GLP5        0.0000 
     30 CA         22.8800   35.8890   15.4680 C.3       3 GLC5        0.0000 
     31 CA         22.0610   35.0490   16.9680 C.3       9 GLL5        0.0000 
     32 CA         23.6990   36.7290   13.9680 C.3       6 GLP5        0.0000 
     33 N          19.2990   27.8285   17.9685 N.am      2 SEC2        0.0000 
     34 N          19.8240   28.3060   16.6990 N.am      8 SEL2        0.0000 
     35 N          18.7740   27.3510   19.2380 N.am      5 SEP2        0.0000 
     36 O          20.6785   27.9850   17.6010 O.2       1 ALC1        0.0000 
     37 O          19.8240   28.3060   16.6990 O.2       7 ALL1        0.0000 
     38 O          21.5330   27.6640   18.5030 O.2       4 ALP1        0.0000 
     39 O          21.3775   28.6925   17.1185 O.2       1 ALC1        0.0000 
     40 O          22.9310   29.0790   17.5380 O.2       4 ALP1        0.0000 
     41 O          20.3980   26.7720   14.3510 O.2       1 ALC1        0.0000 
     42 O          20.6510   28.2500   13.9230 O.2       7 ALL1        0.0000 
     43 O          20.1450   25.2940   14.7790 O.2       4 ALP1        0.0000 
     44 CA         26.2510   25.8100   11.8300 C.3       3 GLC5        0.0000 
     45 CA         24.6600   27.1610   12.0530 C.3       9 GLL5        0.0000 
     46 CA         27.8420   24.4590   11.6070 C.3       6 GLP5        0.0000 
     47 CA         26.4700   27.9955   12.1045 C.3       3 GLC5        0.0000 
     48 CA         28.2800   28.8300   12.1560 C.3       6 GLP5        0.0000 
     49 CA         25.8410   28.0240   10.3605 C.3       3 GLC5        0.0000 
     50 CA         27.0220   28.8870    8.6680 C.3       6 GLP5        0.0000 
     51 CA         25.1150   28.4130   13.5910 C.3       3 GLC5        0.0000 
     52 N          25.3200   24.6615   12.5240 N.am      2 SEC2        0.0000 
     53 N          24.4580   25.7540   11.8940 N.am      8 SEL2        0.0000 
     54 N          26.1820   23.5690   13.1540 N.am      5 SEP2        0.0000 
     55 CA         23.2325   25.3575   13.0055 C.3       3 GLC5        0.0000 
     56 CA         23.5610   25.5260   10.8110 C.3       9 GLL5        0.0000 
     57 CA         22.9040   25.1890   15.2000 C.3       6 GLP5        0.0000 
     58 CA         23.7840   23.6635   11.3370 C.3       3 GLC5        0.0000 
     59 CA         24.0070   21.8010   11.8630 C.3       6 GLP5        0.0000 
     60 CA         25.7015   24.9925   11.2090 C.3       3 GLC5        0.0000 
     61 N          23.0340   23.9770   12.4545 N.am      2 SEC2        0.0000 
     62 N          22.5520   24.5950   11.1860 N.am      8 SEL2        0.0000 
     63 N          23.5160   23.3590   13.7230 N.am      5 SEP2        0.0000 
     64 CA         22.0885   25.2155   13.2170 C.3       3 GLC5        0.0000 
     65 CA         21.2730   25.2420   11.2340 C.3       9 GLL5        0.0000 
     66 CA         22.6400   23.5215   11.5485 C.3       3 GLC5        0.0000 
     67 CA         17.2290   30.8590   11.3675 C.3       3 GLC5        0.0000 
     68 CA         17.7190   28.8950   11.8580 C.3       9 GLL5        0.0000 
     69 CA         16.7390   32.8230   10.8770 C.3       6 GLP5        0.0000 
     70 CA         18.9850   29.5780    9.5985 C.3       3 GLC5        0.0000 
     71 CA         17.5150   28.5510   10.5250 C.3       9 GLL5        0.0000 
     72 CA         20.4550   30.6050    8.6720 C.3       6 GLP5        0.0000 
     73 CA         17.3490   30.4215   10.0045 C.3       3 GLC5        0.0000 
     74 CA         17.1830   32.2920    9.4840 C.3       6 GLP5        0.0000 
     75 CA         17.1245   25.4610   13.5825 C.3       3 GLC5        0.0000 
     76 CA         18.1060   26.5940   12.3890 C.3       9 GLL5        0.0000 
     77 CA         16.1430   24.3280   14.7760 C.3       6 GLP5        0.0000 
     78 CA         13.4035   34.2255   16.9737 C.3       3 GLC5        0.0000 
     79 CA         15.3400   34.9860   17.3250 C.3       9 GLL5        0.0000 
     80 CA         11.9180   33.0220   16.2050 C.3       6 GLP5        0.0000 
     81 CA         14.0718   35.1790   15.8238 C.3       3 GLC5        0.0000 
     82 CA         15.1730   33.6060   17.2980 C.3       9 GLL5        0.0000 
     83 CA         12.8870   36.0620   14.3360 C.3       6 GLP5        0.0000 
     84 CA         15.8012   32.0423   18.2580 C.3       3 GLC5        0.0000 
     85 CA         13.7572   33.1142   16.5545 C.3       3 GLC5        0.0000 
     86 CA         15.6115   33.1062   14.2675 C.3       3 GLC5        0.0000 
     87 CA         14.6890   33.1200   12.4020 C.3       6 GLP5        0.0000 
     88 CA         23.8295   34.6230   17.9013 C.3       3 GLC5        0.0000 
     89 CA         25.5340   34.9080   18.5860 C.3       6 GLP5        0.0000 
     90 CA         23.9815   26.8265   13.7310 C.3       3 GLC5        0.0000 
     91 CA         23.3400   27.7570   11.6190 C.3       9 GLL5        0.0000 
     92 CA         23.9630   26.1940   15.6260 C.3       6 GLP5        0.0000 
     93 CA         24.4830   29.3765   11.7410 C.3       3 GLC5        0.0000 
     94 CA         24.9660   31.2940   11.6460 C.3       6 GLP5        0.0000 
     95 CA         16.2045   28.9510   13.6043 C.3       3 GLC5        0.0000 
     96 CA         18.0280   27.9170   12.8070 C.3       9 GLL5        0.0000 
     97 CA         16.2025   28.2725    9.0945 C.3       3 GLC5        0.0000 
     98 CA         14.8490   28.6560    7.8650 C.3       6 GLP5        0.0000 
     99 CA         16.0828   25.7867   10.3265 C.3       3 GLC5        0.0000 
    100 CA         17.5970   27.2270   10.1230 C.3       9 GLL5        0.0000 
    101 CA         14.4200   24.8290   10.0640 C.3       6 GLP5        0.0000 
@<TRIPOS>BOND
@<TRIPOS>SUBSTRUCTURE
     1 ALC1       36 GROUP        1 X    ALC  0     ROOT ALC X 1
     2 SEC2        8 GROUP        1 X    SEC  0     **** SEC X 2
     3 GLC5        1 GROUP        1 X    GLC  0     **** GLC X 6
     4 ALP1       38 GROUP        1 Y    ALP  0     ROOT ALP Y 8
     5 SEP2       10 GROUP        1 Y    SEP  0     **** SEP Y 9
     6 GLP5        3 GROUP        1 Y    GLP  0     **** GLP Y 13
     7 ALL1       37 GROUP        1 Z    ALL  0     ROOT ALL Z 15
     8 SEL2        9 GROUP        1 Z    SEL  0     **** SEL Z 16
     9 GLL5        2 GROUP        1 Z    GLL  0     **** GLL Z 20
@<TRIPOS>SET

