#    Name: 3o9b_K2A_1_ligand
#    Modification time : Tue Mar 25 03:24:15 2014

@<TRIPOS>MOLECULE
3o9b_K2A_1_ligand
   80    83     1     0     0
SMALL
NO_CHARGES


@<TRIPOS>ATOM
      1 C1         14.4380   35.8720   18.1600 C.3       1 K2A200      0.0000 
      2 O1         14.8780   35.8530   19.5200 O.3       1 K2A200      0.0000 
      3 C2         15.3400   34.9860   17.3250 C.ar      1 K2A200      0.0000 
      4 C3         15.1730   33.6060   17.2980 C.ar      1 K2A200      0.0000 
      5 C4         16.0200   32.8070   16.5100 C.ar      1 K2A200      0.0000 
      6 C5         17.0480   33.3780   15.7560 C.ar      1 K2A200      0.0000 
      7 C6         17.2020   34.7690   15.8050 C.ar      1 K2A200      0.0000 
      8 C7         16.3580   35.5640   16.5770 C.ar      1 K2A200      0.0000 
      9 S8         18.0590   32.4580   14.8510 S.o2      1 K2A200      0.0000 
     10 O9         18.7050   33.2860   13.8770 O.2       1 K2A200      0.0000 
     11 O10        17.3100   31.3870   14.2920 O.2       1 K2A200      0.0000 
     12 N11        19.2950   31.8410   15.7160 N.pl3     1 K2A200      0.0000 
     13 C12        20.0050   32.8810   16.5120 C.3       1 K2A200      0.0000 
     14 C13        21.5080   32.6080   16.5480 C.3       1 K2A200      0.0000 
     15 C14        22.1360   32.5700   15.1530 C.3       1 K2A200      0.0000 
     16 C15        22.1890   33.6270   17.4650 C.3       1 K2A200      0.0000 
     17 C16        18.9830   30.5720   16.4190 C.3       1 K2A200      0.0000 
     18 C17        19.9020   29.4720   15.8520 C.3       1 K2A200      0.0000 
     19 C18        22.0610   35.0490   16.9680 C.3       1 K2A200      0.0000 
     20 O18        19.8240   28.3060   16.6990 O.3       1 K2A200      0.0000 
     21 C19        19.5720   29.0820   14.4110 C.3       1 K2A200      0.0000 
     22 N20        20.6510   28.2500   13.9230 N.am      1 K2A200      0.0000 
     23 C21        21.5330   28.6230   13.0110 C.2       1 K2A200      0.0000 
     24 O22        21.6000   29.6810   12.4120 O.2       1 K2A200      0.0000 
     25 O23        22.5140   27.6090   12.7640 O.3       1 K2A200      0.0000 
     26 C24        23.3400   27.7570   11.6190 C.3       1 K2A200      0.0000 
     27 C25        24.6600   27.1610   12.0530 C.3       1 K2A200      0.0000 
     28 O26        24.4580   25.7540   11.8940 O.3       1 K2A200      0.0000 
     29 C27        23.5610   25.5260   10.8110 C.3       1 K2A200      0.0000 
     30 O28        22.5520   24.5950   11.1860 O.3       1 K2A200      0.0000 
     31 C29        21.2730   25.2420   11.2340 C.3       1 K2A200      0.0000 
     32 C30        21.3980   26.5350   10.4380 C.3       1 K2A200      0.0000 
     33 C31        22.8850   26.8470   10.5100 C.3       1 K2A200      0.0000 
     34 C32        18.2660   28.2930   14.2550 C.3       1 K2A200      0.0000 
     35 C33        17.7190   28.8950   11.8580 C.ar      1 K2A200      0.0000 
     36 C34        17.5150   28.5510   10.5250 C.ar      1 K2A200      0.0000 
     37 C35        17.5970   27.2270   10.1230 C.ar      1 K2A200      0.0000 
     38 C36        17.8940   26.2620   11.0550 C.ar      1 K2A200      0.0000 
     39 C37        18.1060   26.5940   12.3890 C.ar      1 K2A200      0.0000 
     40 C38        18.0280   27.9170   12.8070 C.ar      1 K2A200      0.0000 
     41 H          14.4706   36.8838   17.7399 H         1 K2A200      0.0000 
     42 H          13.4113   35.5006   18.0633 H         1 K2A200      0.0000 
     43 H          14.4311   33.1625   17.8526 H         1 K2A200      0.0000 
     44 H          15.8772   31.7861   16.4910 H         1 K2A200      0.0000 
     45 H          17.9593   35.2124   15.2553 H         1 K2A200      0.0000 
     46 H          16.4908   36.5857   16.5922 H         1 K2A200      0.0000 
     47 H          19.6275   32.8935   17.5380 H         1 K2A200      0.0000 
     48 H          19.8397   33.8691   16.0740 H         1 K2A200      0.0000 
     49 H          21.6477   31.6146   17.0100 H         1 K2A200      0.0000 
     50 H          23.2533   33.3648   17.5545 H         1 K2A200      0.0000 
     51 H          21.7467   33.5488   18.4689 H         1 K2A200      0.0000 
     52 H          17.9557   30.2814   16.2491 H         1 K2A200      0.0000 
     53 H          19.1724   30.6638   17.4793 H         1 K2A200      0.0000 
     54 H          20.9259   29.8619   15.8678 H         1 K2A200      0.0000 
     55 H          19.5078   29.9783   13.8138 H         1 K2A200      0.0000 
     56 H          20.6952   27.2804   14.3588 H         1 K2A200      0.0000 
     57 H          23.4790   28.7160   11.2989 H         1 K2A200      0.0000 
     58 H          24.8392   27.4296   13.0758 H         1 K2A200      0.0000 
     59 H          25.4335   27.5325   11.4096 H         1 K2A200      0.0000 
     60 H          24.0795   25.2160    9.9322 H         1 K2A200      0.0000 
     61 H          20.9864   25.4951   12.2490 H         1 K2A200      0.0000 
     62 H          20.4970   24.6368   10.7780 H         1 K2A200      0.0000 
     63 H          20.8440   27.3040   10.9116 H         1 K2A200      0.0000 
     64 H          21.1122   26.3670    9.4317 H         1 K2A200      0.0000 
     65 H          23.2455   27.1831    9.5706 H         1 K2A200      0.0000 
     66 H          17.4387   28.9048   14.6157 H         1 K2A200      0.0000 
     67 H          18.3242   27.3901   14.8635 H         1 K2A200      0.0000 
     68 H          17.6419   29.8811   12.1509 H         1 K2A200      0.0000 
     69 H          17.3018   29.2868    9.8346 H         1 K2A200      0.0000 
     70 H          17.4371   26.9764    9.1412 H         1 K2A200      0.0000 
     71 H          17.9629   25.2670   10.7662 H         1 K2A200      0.0000 
     72 H          18.3227   25.8523   13.0726 H         1 K2A200      0.0000 
     73 H          23.1184   32.3873   15.1928 H         1 K2A200      0.0000 
     74 H          21.7283   31.8579   14.5815 H         1 K2A200      0.0000 
     75 H          22.0185   33.4372   14.6691 H         1 K2A200      0.0000 
     76 H          22.5131   35.6983   17.5796 H         1 K2A200      0.0000 
     77 H          22.4708   35.1645   16.0632 H         1 K2A200      0.0000 
     78 H          21.1047   35.3322   16.8950 H         1 K2A200      0.0000 
     79 H          14.3953   36.6110   19.9587 H         1 K2A200      0.0000 
     80 H          20.7283   28.2306   17.1193 H         1 K2A200      0.0000 
@<TRIPOS>BOND
     1    2    1 1    
     2    3    1 1    
     3   41    1 1    
     4   42    1 1    
     5   79    2 1    
     6    4    3 ar   
     7    8    3 ar   
     8    5    4 ar   
     9   43    4 1    
    10    6    5 ar   
    11   44    5 1    
    12    7    6 ar   
    13    9    6 1    
    14    8    7 ar   
    15   45    7 1    
    16   46    8 1    
    17   10    9 2    
    18   11    9 2    
    19   12    9 1    
    20   13   12 1    
    21   17   12 1    
    22   14   13 1    
    23   47   13 1    
    24   48   13 1    
    25   15   14 1    
    26   16   14 1    
    27   49   14 1    
    28   73   15 1    
    29   74   15 1    
    30   75   15 1    
    31   19   16 1    
    32   50   16 1    
    33   51   16 1    
    34   18   17 1    
    35   52   17 1    
    36   53   17 1    
    37   20   18 1    
    38   21   18 1    
    39   54   18 1    
    40   76   19 1    
    41   77   19 1    
    42   78   19 1    
    43   80   20 1    
    44   22   21 1    
    45   34   21 1    
    46   55   21 1    
    47   23   22 am   
    48   56   22 1    
    49   24   23 2    
    50   25   23 1    
    51   26   25 1    
    52   27   26 1    
    53   33   26 1    
    54   57   26 1    
    55   28   27 1    
    56   58   27 1    
    57   59   27 1    
    58   29   28 1    
    59   30   29 1    
    60   33   29 1    
    61   60   29 1    
    62   31   30 1    
    63   32   31 1    
    64   61   31 1    
    65   62   31 1    
    66   33   32 1    
    67   63   32 1    
    68   64   32 1    
    69   65   33 1    
    70   40   34 1    
    71   66   34 1    
    72   67   34 1    
    73   36   35 ar   
    74   40   35 ar   
    75   68   35 1    
    76   37   36 ar   
    77   69   36 1    
    78   38   37 ar   
    79   70   37 1    
    80   39   38 ar   
    81   71   38 1    
    82   40   39 ar   
    83   72   39 1    
@<TRIPOS>SUBSTRUCTURE
     1 K2A200      1 GROUP   
@<TRIPOS>SET

