#    Name: 3kxo_KXO_1_INTS_M
#    Modification time : Mon Mar 24 20:40:25 2014

@<TRIPOS>MOLECULE
3kxo_KXO_1_INTS_M
   54     0     3     0     0
SMALL
NO_CHARGES


@<TRIPOS>ATOM
      1 CA         19.2140    1.5290   19.6035 C.3       1 GLC5        0.0000 
      2 CA         20.2580    2.0400   17.8640 C.3       3 GLL5        0.0000 
      3 CA         18.1700    1.0180   21.3430 C.3       2 GLP5        0.0000 
      4 CA         20.6430    3.9030   18.7975 C.3       1 GLC5        0.0000 
      5 CA         21.0280    5.7660   19.7310 C.3       2 GLP5        0.0000 
      6 CA         25.1650   -1.1795   20.6085 C.3       1 GLC5        0.0000 
      7 CA         25.1730   -0.1200   18.9880 C.3       3 GLL5        0.0000 
      8 CA         25.1570   -2.2390   22.2290 C.3       2 GLP5        0.0000 
      9 CA         26.2465   -1.6135   20.3270 C.3       1 GLC5        0.0000 
     10 CA         26.6700   -0.0590   19.2220 C.3       3 GLL5        0.0000 
     11 CA         25.8230   -3.1680   21.4320 C.3       2 GLP5        0.0000 
     12 CA         26.6155   -2.7370   19.9270 C.3       1 GLC5        0.0000 
     13 CA         27.4080   -2.3060   18.4220 C.3       3 GLL5        0.0000 
     14 CA         13.0240    2.2840   19.8795 C.3       1 GLC5        0.0000 
     15 CA         14.0300    2.2230   18.2120 C.3       3 GLL5        0.0000 
     16 CA         12.0180    2.3450   21.5470 C.3       2 GLP5        0.0000 
     17 CA         12.5315    3.0805   17.9065 C.3       1 GLC5        0.0000 
     18 CA         11.0330    3.9380   17.6010 C.3       2 GLP5        0.0000 
     19 CA         14.7365    4.2355   17.9190 C.3       1 GLC5        0.0000 
     20 CA         15.4430    6.2480   17.6260 C.3       2 GLP5        0.0000 
     21 CA         30.6780   -1.0435   20.6790 C.3       1 GLC5        0.0000 
     22 CA         29.5860   -1.9420   19.2780 C.3       3 GLL5        0.0000 
     23 CA         31.7700   -0.1450   22.0800 C.3       2 GLP5        0.0000 
     24 CA         22.0062    0.6080   15.4117 C.3       1 GLC5        0.0000 
     25 CA         20.7040   -0.0570   16.8340 C.3       3 GLL5        0.0000 
     26 CA         23.0810    0.6840   13.7160 C.3       2 GLP5        0.0000 
     27 CA         18.2428   -1.5290   18.0343 C.3       1 GLC5        0.0000 
     28 CA         19.3430   -0.2640   16.8040 C.3       3 GLL5        0.0000 
     29 CA         17.5630   -3.2770   19.0060 C.3       2 GLP5        0.0000 
     30 CA         21.8923    1.8003   19.3997 C.3       1 GLC5        0.0000 
     31 CA         23.0760    2.0200   21.1770 C.3       2 GLP5        0.0000 
     32 CA         24.1250    0.3260   15.3963 C.3       1 GLC5        0.0000 
     33 CA         24.8160    0.3780   17.6060 C.3       3 GLL5        0.0000 
     34 CA         26.8443   -1.1265   14.7888 C.3       1 GLC5        0.0000 
     35 CA         25.5220   -0.4420   16.5470 C.3       3 GLL5        0.0000 
     36 CA         27.4140   -1.8030   12.9260 C.3       2 GLP5        0.0000 
     37 CA         24.0352    1.0745   19.7370 C.3       1 GLC5        0.0000 
     38 CA         16.7784   -1.9175   18.0798 C.3       1 GLC5        0.0000 
     39 CA         17.0720    0.4880   17.3600 C.3       3 GLL5        0.0000 
     40 CA         14.5747   -0.1195   15.5375 C.3       1 GLC5        0.0000 
     41 CA         14.3310    0.0100   17.5100 C.3       3 GLL5        0.0000 
     42 CA         14.0540    0.1890   13.7830 C.3       2 GLP5        0.0000 
     43 CA         12.5607    0.9410   17.3173 C.3       1 GLC5        0.0000 
     44 CA         10.5290    1.2570   16.9650 C.3       2 GLP5        0.0000 
     45 CA         17.8702    0.9310   19.3909 C.3       1 GLC5        0.0000 
     46 CA         14.5570    2.6067   16.3942 C.3       1 GLC5        0.0000 
     47 CA         16.2060    1.4840   17.7530 C.3       3 GLL5        0.0000 
     48 CA         14.3340    3.4210   14.7870 C.3       2 GLP5        0.0000 
     49 CA         28.0934   -3.3790   20.3336 C.3       1 GLC5        0.0000 
     50 CA         28.8550   -2.7400   18.4510 C.3       3 GLL5        0.0000 
     51 CA         27.1040   -3.5820   21.7730 C.3       2 GLP5        0.0000 
     52 CA         30.0119   -4.2925   19.9021 C.3       1 GLC5        0.0000 
     53 CA         28.9450   -4.0110   18.9240 C.3       3 GLL5        0.0000 
     54 CA         30.9410   -5.4090   20.9100 C.3       2 GLP5        0.0000 
@<TRIPOS>BOND
@<TRIPOS>SUBSTRUCTURE
     1 GLC5        1 GROUP        1 X    GLC  0     ROOT GLC X 6
     2 GLP5        3 GROUP        1 Y    GLP  0     ROOT GLP Y 13
     3 GLL5        2 GROUP        1 Z    GLL  0     ROOT GLL Z 20
@<TRIPOS>SET

