#    Name: 3kxo_KXO_1_ligand
#    Modification time : Mon Mar 24 20:40:25 2014

@<TRIPOS>MOLECULE
3kxo_KXO_1_ligand
   46    48     1     0     0
SMALL
NO_CHARGES


@<TRIPOS>ATOM
      1 C4         20.7040   -0.0570   16.8340 C.ar      1 KXO202      0.0000 
      2 C5         19.3430   -0.2640   16.8040 C.ar      1 KXO202      0.0000 
      3 C6         16.2060    1.4840   17.7530 C.ar      1 KXO202      0.0000 
      4 C7         20.2580    2.0400   17.8640 C.ar      1 KXO202      0.0000 
      5 C8         25.5220   -0.4420   16.5470 C.3       1 KXO202      0.0000 
      6 C10        27.0270   -0.4580   16.7560 C.3       1 KXO202      0.0000 
      7 C13        17.0720    0.4880   17.3600 C.ar      1 KXO202      0.0000 
      8 C15        21.1590    1.1210   17.3810 C.ar      1 KXO202      0.0000 
      9 C17        24.8160    0.3780   17.6060 C.3       1 KXO202      0.0000 
     10 C1         15.1830   -0.9880   17.1060 C.ar      1 KXO202      0.0000 
     11 C2         16.5370   -0.7440   17.0420 C.ar      1 KXO202      0.0000 
     12 C3         14.3310    0.0100   17.5100 C.ar      1 KXO202      0.0000 
     13 C9         25.1730   -0.1200   18.9880 C.3       1 KXO202      0.0000 
     14 C11        26.6700   -0.0590   19.2220 C.3       1 KXO202      0.0000 
     15 C12        27.4080   -2.3060   18.4220 C.3       1 KXO202      0.0000 
     16 C14        14.8540    1.2400   17.8290 C.ar      1 KXO202      0.0000 
     17 C16        18.5020    0.7020   17.3210 C.ar      1 KXO202      0.0000 
     18 C18        22.5960    1.4080   17.4450 C.2       1 KXO202      0.0000 
     19 C19        28.8550   -2.7400   18.4510 C.3       1 KXO202      0.0000 
     20 N20        18.9340    1.8540   17.8540 N.ar      1 KXO202      0.0000 
     21 N21        23.3920    0.2870   17.4130 N.am      1 KXO202      0.0000 
     22 N22        27.3560   -0.8450   18.1610 N.3       1 KXO202      0.0000 
     23 O23        22.9810    2.5660   17.5290 O.2       1 KXO202      0.0000 
     24 F24        14.0300    2.2230   18.2120 F         1 KXO202      0.0000 
     25 F25        29.5860   -1.9420   19.2780 F         1 KXO202      0.0000 
     26 F26        28.9450   -4.0110   18.9240 F         1 KXO202      0.0000 
     27 F27        29.4040   -2.7130   17.2010 F         1 KXO202      0.0000 
     28 H          21.3497   -0.7503   16.4649 H         1 KXO202      0.0000 
     29 H          18.9558   -1.1261   16.4023 H         1 KXO202      0.0000 
     30 H          16.5748    2.4214   17.9925 H         1 KXO202      0.0000 
     31 H          20.6515    2.9446   18.2648 H         1 KXO202      0.0000 
     32 H          25.1449   -1.4701   16.5727 H         1 KXO202      0.0000 
     33 H          25.3012   -0.0255   15.5583 H         1 KXO202      0.0000 
     34 H          27.4257    0.5354   16.5396 H         1 KXO202      0.0000 
     35 H          27.4744   -1.1694   16.0586 H         1 KXO202      0.0000 
     36 H          25.1446    1.4048   17.5167 H         1 KXO202      0.0000 
     37 H          14.8129   -1.9161   16.8514 H         1 KXO202      0.0000 
     38 H          17.1792   -1.5134   16.7441 H         1 KXO202      0.0000 
     39 H          13.3209   -0.1592   17.5728 H         1 KXO202      0.0000 
     40 H          24.8324   -1.1525   19.1017 H         1 KXO202      0.0000 
     41 H          24.6659    0.4930   19.7377 H         1 KXO202      0.0000 
     42 H          26.8938   -0.4738   20.2009 H         1 KXO202      0.0000 
     43 H          26.9927    0.9779   19.1895 H         1 KXO202      0.0000 
     44 H          26.9476   -2.5334   19.3792 H         1 KXO202      0.0000 
     45 H          26.8885   -2.8469   17.6362 H         1 KXO202      0.0000 
     46 H          22.9886   -0.6481   17.2498 H         1 KXO202      0.0000 
@<TRIPOS>BOND
     1    2    1 ar   
     2    8    1 ar   
     3   28    1 1    
     4   17    2 ar   
     5   29    2 1    
     6    7    3 ar   
     7   16    3 ar   
     8   30    3 1    
     9    8    4 ar   
    10   20    4 ar   
    11   31    4 1    
    12    6    5 1    
    13    9    5 1    
    14   32    5 1    
    15   33    5 1    
    16   22    6 1    
    17   34    6 1    
    18   35    6 1    
    19   11    7 ar   
    20   17    7 1    
    21   18    8 1    
    22   13    9 1    
    23   21    9 1    
    24   36    9 1    
    25   11   10 ar   
    26   12   10 ar   
    27   37   10 1    
    28   38   11 1    
    29   16   12 ar   
    30   39   12 1    
    31   14   13 1    
    32   40   13 1    
    33   41   13 1    
    34   22   14 1    
    35   42   14 1    
    36   43   14 1    
    37   19   15 1    
    38   22   15 1    
    39   44   15 1    
    40   45   15 1    
    41   24   16 1    
    42   20   17 ar   
    43   21   18 am   
    44   23   18 2    
    45   25   19 1    
    46   26   19 1    
    47   27   19 1    
    48   46   21 1    
@<TRIPOS>SUBSTRUCTURE
     1 KXO202      1 GROUP   
@<TRIPOS>SET

