#    Name: 2vkm_BSD_1_INTS_M
#    Modification time : Tue Mar 25 02:04:44 2014

@<TRIPOS>MOLECULE
2vkm_BSD_1_INTS_M
  100     0     9     0     0
SMALL
NO_CHARGES


@<TRIPOS>ATOM
      1 CA          4.3025   -3.5470   31.8680 C.3       3 GLC5        0.0000 
      2 CA          4.4130   -5.1950   33.1000 C.3       9 GLL5        0.0000 
      3 CA          4.1920   -1.8990   30.6360 C.3       6 GLP5        0.0000 
      4 CA          5.4765   -3.1245   32.3285 C.3       3 GLC5        0.0000 
      5 CA          5.2420   -4.3600   33.8900 C.3       9 GLL5        0.0000 
      6 CA          5.7110   -1.8890   30.7670 C.3       6 GLP5        0.0000 
      7 CA          0.5740   -3.9025   35.1695 C.3       3 GLC5        0.0000 
      8 CA          2.4880   -4.5800   34.4980 C.3       9 GLL5        0.0000 
      9 CA         -1.3400   -3.2250   35.8410 C.3       6 GLP5        0.0000 
     10 CA          1.1760   -7.8445   35.1235 C.3       3 GLC5        0.0000 
     11 CA          1.4620   -7.3670   33.2600 C.3       9 GLL5        0.0000 
     12 CA          0.8900   -8.3220   36.9870 C.3       6 GLP5        0.0000 
     13 CA          0.8600   -9.2695   33.5345 C.3       3 GLC5        0.0000 
     14 CA          0.2580  -11.1720   33.8090 C.3       6 GLP5        0.0000 
     15 O           0.0540   -4.6015   32.6810 O.2       1 ALC1        0.0000 
     16 O           1.1280   -5.4320   31.8290 O.2       7 ALL1        0.0000 
     17 O          -1.0200   -3.7710   33.5330 O.2       4 ALP1        0.0000 
     18 N           1.0295   -6.2860   28.8315 N.am      2 SEC2        0.0000 
     19 N           2.0810   -5.4990   29.7990 N.am      8 SEL2        0.0000 
     20 N          -0.0220   -7.0730   27.8640 N.am      5 SEP2        0.0000 
     21 CA         -4.0275   -2.0340   28.2185 C.3       3 GLC5        0.0000 
     22 CA         -2.0970   -2.6130   29.0440 C.3       9 GLL5        0.0000 
     23 CA         -5.9580   -1.4550   27.3930 C.3       6 GLP5        0.0000 
     24 CA         -3.5195   -0.7035   26.5360 C.3       3 GLC5        0.0000 
     25 CA         -1.6780   -0.6210   26.9260 C.3       9 GLL5        0.0000 
     26 CA         -5.3610   -0.7860   26.1460 C.3       6 GLP5        0.0000 
     27 CA         -1.0055   -0.0515   28.9895 C.3       3 GLC5        0.0000 
     28 CA         -0.3330    0.5180   31.0530 C.3       6 GLP5        0.0000 
     29 CA         -1.3330    1.1225   26.9115 C.3       3 GLC5        0.0000 
     30 CA         -0.9880    2.8660   26.8970 C.3       6 GLP5        0.0000 
     31 N           2.4555    0.1695   29.6485 N.am      2 SEC2        0.0000 
     32 N           1.5840   -0.5900   28.7420 N.am      8 SEL2        0.0000 
     33 N           3.3270    0.9290   30.5550 N.am      5 SEP2        0.0000 
     34 N          -4.9570   -4.0425   28.5845 N.am      2 SEC2        0.0000 
     35 N          -4.7010   -3.6160   30.0040 N.am      8 SEL2        0.0000 
     36 N          -5.2130   -4.4690   27.1650 N.am      5 SEP2        0.0000 
     37 O          -2.3855   -3.7260   32.8185 O.2       1 ALC1        0.0000 
     38 O          -3.7510   -3.6810   32.1040 O.2       7 ALL1        0.0000 
     39 CA         -5.7515   -6.2435   30.8260 C.3       3 GLC5        0.0000 
     40 CA         -4.0520   -6.9600   31.5490 C.3       9 GLL5        0.0000 
     41 CA         -7.4510   -5.5270   30.1030 C.3       6 GLP5        0.0000 
     42 CA         -7.1390   -3.6605   35.3235 C.3       3 GLC5        0.0000 
     43 CA         -5.3790   -3.1870   34.0450 C.3       9 GLL5        0.0000 
     44 CA         -8.8990   -4.1340   36.6020 C.3       6 GLP5        0.0000 
     45 CA         -3.3595   -3.2060   34.9430 C.3       3 GLC5        0.0000 
     46 O          -6.1715   -4.0700   35.6035 O.2       1 ALC1        0.0000 
     47 O          -6.6810   -3.4440   34.5290 O.2       7 ALL1        0.0000 
     48 O          -5.6620   -4.6960   36.6780 O.2       4 ALP1        0.0000 
     49 O          -7.3905   -4.2840   35.8770 O.2       1 ALC1        0.0000 
     50 O          -8.1000   -5.1240   37.2250 O.2       4 ALP1        0.0000 
     51 CA         -6.6885   -0.3890   35.0600 C.3       3 GLC5        0.0000 
     52 CA         -7.2500   -0.2620   32.9220 C.3       9 GLL5        0.0000 
     53 CA         -6.1270   -0.5160   37.1980 C.3       6 GLP5        0.0000 
     54 CA         -8.8410    0.6785   33.7945 C.3       3 GLC5        0.0000 
     55 CA        -10.4320    1.6190   34.6670 C.3       6 GLP5        0.0000 
     56 CA         -6.9125    1.6530   33.6405 C.3       3 GLC5        0.0000 
     57 CA         -6.5750    3.5680   34.3590 C.3       6 GLP5        0.0000 
     58 CA        -10.4005   -3.4850   35.6450 C.3       3 GLC5        0.0000 
     59 CA        -11.9020   -2.8360   34.6880 C.3       9 GLL5        0.0000 
     60 CA        -13.0850   -1.5580   35.6985 C.3       3 GLC5        0.0000 
     61 CA        -14.2680   -0.2800   36.7090 C.3       6 GLP5        0.0000 
     62 CA          5.4352   -6.7313   33.3405 C.3       3 GLC5        0.0000 
     63 CA          6.0430   -8.6850   33.1860 C.3       6 GLP5        0.0000 
     64 CA          4.4942   -6.0913   34.8390 C.3       3 GLC5        0.0000 
     65 CA          4.1610   -7.4050   36.1830 C.3       6 GLP5        0.0000 
     66 CA          4.0853   -5.5485   35.6585 C.3       3 GLC5        0.0000 
     67 CA          4.6980   -3.6390   34.9800 C.3       9 GLL5        0.0000 
     68 CA          3.7772   -2.4055   33.4725 C.3       3 GLC5        0.0000 
     69 CA          3.3210   -3.7450   35.2880 C.3       9 GLL5        0.0000 
     70 CA          3.5450   -1.1190   31.8110 C.3       6 GLP5        0.0000 
     71 CA          4.6363   -2.0411   35.1582 C.3       3 GLC5        0.0000 
     72 CA          5.1270   -0.2100   35.4550 C.3       6 GLP5        0.0000 
     73 CA          3.4615   -6.1765   35.0645 C.3       3 GLC5        0.0000 
     74 CA          2.9885   -7.1010   34.5332 C.3       3 GLC5        0.0000 
     75 CA          2.1700   -6.2270   32.5070 C.3       9 GLL5        0.0000 
     76 CA          1.9810   -8.3550   31.6997 C.3       3 GLC5        0.0000 
     77 CA          2.1460   -9.9130   30.5160 C.3       6 GLP5        0.0000 
     78 CA         -1.3958   -4.6022   28.2568 C.3       3 GLC5        0.0000 
     79 CA          0.0270   -4.2640   29.9990 C.3       9 GLL5        0.0000 
     80 CA         -2.9260   -5.4010   27.0560 C.3       6 GLP5        0.0000 
     81 CA         -2.1930   -3.9783   27.8942 C.3       3 GLC5        0.0000 
     82 CA         -0.8230   -2.4980   28.4210 C.3       9 GLL5        0.0000 
     83 CA         -0.7634   -1.1244   29.9546 C.3       3 GLC5        0.0000 
     84 CA         -2.3600   -4.6630   28.7005 C.3       3 GLC5        0.0000 
     85 CA         -2.3290   -3.5250   30.1210 C.3       9 GLL5        0.0000 
     86 CA         -0.7898   -2.5704   31.5282 C.3       3 GLC5        0.0000 
     87 CA         -0.1070   -1.2310   32.8540 C.3       6 GLP5        0.0000 
     88 CA         -1.9225   -7.8033   34.9933 C.3       3 GLC5        0.0000 
     89 CA         -2.7170   -7.2550   33.5990 C.3       9 GLL5        0.0000 
     90 CA         -1.5060   -7.8410   36.7040 C.3       6 GLP5        0.0000 
     91 CA         -4.3967   -7.3949   34.8422 C.3       3 GLC5        0.0000 
     92 CA         -5.3480   -8.1380   36.2590 C.3       6 GLP5        0.0000 
     93 CA         -5.7355   -1.4770   35.5512 C.3       3 GLC5        0.0000 
     94 CA         -6.5931   -4.8812   33.0959 C.3       3 GLC5        0.0000 
     95 CA         -8.1150   -5.7560   32.5430 C.3       6 GLP5        0.0000 
     96 CA         -9.3737   -3.1095   34.7895 C.3       3 GLC5        0.0000 
     97 CA         -9.2790   -1.7510   33.2130 C.3       9 GLL5        0.0000 
     98 CA         -9.5497   -3.4308   30.1412 C.3       3 GLC5        0.0000 
     99 CA        -10.7990   -2.2530   31.3800 C.3       9 GLL5        0.0000 
    100 CA         -8.6760   -5.0220   29.3350 C.3       6 GLP5        0.0000 
@<TRIPOS>BOND
@<TRIPOS>SUBSTRUCTURE
     1 ALC1       15 GROUP        1 X    ALC  0     ROOT ALC X 1
     2 SEC2       18 GROUP        1 X    SEC  0     **** SEC X 2
     3 GLC5        1 GROUP        1 X    GLC  0     **** GLC X 6
     4 ALP1       17 GROUP        1 Y    ALP  0     ROOT ALP Y 8
     5 SEP2       20 GROUP        1 Y    SEP  0     **** SEP Y 9
     6 GLP5        3 GROUP        1 Y    GLP  0     **** GLP Y 13
     7 ALL1       16 GROUP        1 Z    ALL  0     ROOT ALL Z 15
     8 SEL2       19 GROUP        1 Z    SEL  0     **** SEL Z 16
     9 GLL5        2 GROUP        1 Z    GLL  0     **** GLL Z 20
@<TRIPOS>SET

