#    Name: 2vkm_BSD_1_ligand
#    Modification time : Tue Mar 25 02:04:44 2014

@<TRIPOS>MOLECULE
2vkm_BSD_1_ligand
   88    91     1     0     0
SMALL
NO_CHARGES


@<TRIPOS>ATOM
      1 C11         4.4130   -5.1950   33.1000 C.ar      1 BSD1386     0.0000 
      2 C12         5.2420   -4.3600   33.8900 C.ar      1 BSD1386     0.0000 
      3 C13         4.6980   -3.6390   34.9800 C.ar      1 BSD1386     0.0000 
      4 C14         3.3210   -3.7450   35.2880 C.ar      1 BSD1386     0.0000 
      5 C15         2.4880   -4.5800   34.4980 C.ar      1 BSD1386     0.0000 
      6 C16         3.0360   -5.3160   33.3940 C.ar      1 BSD1386     0.0000 
      7 C17         2.1700   -6.2270   32.5070 C.3       1 BSD1386     0.0000 
      8 C18         1.4620   -7.3670   33.2600 C.3       1 BSD1386     0.0000 
      9 N21         1.1280   -5.4320   31.8290 N.am      1 BSD1386     0.0000 
     10 C21         1.1560   -5.1180   30.5150 C.2       1 BSD1386     0.0000 
     11 O21         2.0810   -5.4990   29.7990 O.2       1 BSD1386     0.0000 
     12 C23         0.0270   -4.2640   29.9990 C.ar      1 BSD1386     0.0000 
     13 C24         0.2420   -3.3430   28.9160 C.ar      1 BSD1386     0.0000 
     14 C25        -0.8230   -2.4980   28.4210 C.ar      1 BSD1386     0.0000 
     15 C26        -2.0970   -2.6130   29.0440 C.ar      1 BSD1386     0.0000 
     16 C27        -2.3290   -3.5250   30.1210 C.ar      1 BSD1386     0.0000 
     17 C28        -1.2590   -4.3250   30.5690 C.ar      1 BSD1386     0.0000 
     18 N22        -0.5840   -1.5810   27.2910 N.pl3     1 BSD1386     0.0000 
     19 C29        -1.6780   -0.6210   26.9260 C.3       1 BSD1386     0.0000 
     20 S2          0.9570   -0.7190   27.2970 S.o2      1 BSD1386     0.0000 
     21 O23         0.7760    0.7120   26.7080 O.2       1 BSD1386     0.0000 
     22 O24         1.5840   -0.5900   28.7420 O.2       1 BSD1386     0.0000 
     23 C20         2.0880   -1.5630   26.1760 C.3       1 BSD1386     0.0000 
     24 C22        -3.6830   -3.6040   30.7330 C.2       1 BSD1386     0.0000 
     25 O22        -4.7010   -3.6160   30.0040 O.2       1 BSD1386     0.0000 
     26 N3         -3.7510   -3.6810   32.1040 N.am      1 BSD1386     0.0000 
     27 C31        -4.9460   -4.1490   32.8940 C.3       1 BSD1386     0.0000 
     28 C32        -4.5810   -5.5030   33.6110 C.3       1 BSD1386     0.0000 
     29 C33        -3.7670   -6.5940   32.8930 C.ar      1 BSD1386     0.0000 
     30 C34        -4.0520   -6.9600   31.5490 C.ar      1 BSD1386     0.0000 
     31 C35        -3.2910   -7.9850   30.9120 C.ar      1 BSD1386     0.0000 
     32 C36        -2.2570   -8.6380   31.6160 C.ar      1 BSD1386     0.0000 
     33 C37        -1.9610   -8.2760   32.9660 C.ar      1 BSD1386     0.0000 
     34 C38        -2.7170   -7.2550   33.5990 C.ar      1 BSD1386     0.0000 
     35 C39        -5.3790   -3.1870   34.0450 C.3       1 BSD1386     0.0000 
     36 O3         -6.6810   -3.4440   34.5290 O.3       1 BSD1386     0.0000 
     37 C30        -5.3090   -1.6890   33.7640 C.3       1 BSD1386     0.0000 
     38 N4         -6.0570   -1.1290   32.6360 N.4       1 BSD1386     0.0000 
     39 C41        -7.2500   -0.2620   32.9220 C.3       1 BSD1386     0.0000 
     40 C42        -8.5120   -0.9240   32.3680 C.ar      1 BSD1386     0.0000 
     41 C43        -9.2790   -1.7510   33.2130 C.ar      1 BSD1386     0.0000 
     42 C44       -10.4180   -2.4190   32.7410 C.ar      1 BSD1386     0.0000 
     43 C45       -10.7990   -2.2530   31.3800 C.ar      1 BSD1386     0.0000 
     44 C46       -10.0480   -1.4260   30.5150 C.ar      1 BSD1386     0.0000 
     45 C47        -8.8930   -0.7570   31.0100 C.ar      1 BSD1386     0.0000 
     46 O4        -11.2120   -3.2590   33.5010 O.3       1 BSD1386     0.0000 
     47 C48       -11.9020   -2.8360   34.6880 C.3       1 BSD1386     0.0000 
     48 H           4.8145   -5.7113   32.3145 H         1 BSD1386     0.0000 
     49 H           6.2368   -4.2785   33.6712 H         1 BSD1386     0.0000 
     50 H           5.3019   -3.0401   35.5461 H         1 BSD1386     0.0000 
     51 H           2.9286   -3.2272   36.0698 H         1 BSD1386     0.0000 
     52 H           1.4951   -4.6621   34.7100 H         1 BSD1386     0.0000 
     53 H           2.8090   -6.6777   31.7466 H         1 BSD1386     0.0000 
     54 H           0.3402   -5.1155   32.4466 H         1 BSD1386     0.0000 
     55 H           1.1657   -3.2810   28.4840 H         1 BSD1386     0.0000 
     56 H          -2.8744   -2.0256   28.7131 H         1 BSD1386     0.0000 
     57 H          -1.4268   -4.9886   31.3541 H         1 BSD1386     0.0000 
     58 H          -2.9271   -3.4015   32.6968 H         1 BSD1386     0.0000 
     59 H          -5.7831   -4.3427   32.2719 H         1 BSD1386     0.0000 
     60 H          -5.5509   -5.9596   33.9703 H         1 BSD1386     0.0000 
     61 H          -4.0497   -5.2360   34.5726 H         1 BSD1386     0.0000 
     62 H          -4.7980   -6.4924   31.0398 H         1 BSD1386     0.0000 
     63 H          -3.4997   -8.2407   29.9478 H         1 BSD1386     0.0000 
     64 H          -1.7125   -9.3748   31.1646 H         1 BSD1386     0.0000 
     65 H          -1.2150   -8.7478   33.4651 H         1 BSD1386     0.0000 
     66 H          -2.5121   -6.9900   34.5617 H         1 BSD1386     0.0000 
     67 H          -4.6568   -3.3682   34.8938 H         1 BSD1386     0.0000 
     68 H          -4.2112   -1.4183   33.6624 H         1 BSD1386     0.0000 
     69 H          -5.6084   -1.1546   34.7198 H         1 BSD1386     0.0000 
     70 H          -7.1254    0.7092   32.4508 H         1 BSD1386     0.0000 
     71 H          -7.3638   -0.1280   33.9943 H         1 BSD1386     0.0000 
     72 H          -8.9940   -1.8653   34.1989 H         1 BSD1386     0.0000 
     73 H         -11.6283   -2.7408   31.0275 H         1 BSD1386     0.0000 
     74 H         -10.3264   -1.3064   29.5453 H         1 BSD1386     0.0000 
     75 H          -8.3454   -0.1638   30.3942 H         1 BSD1386     0.0000 
     76 H           2.1145   -7.9730   33.7150 H         1 BSD1386     0.0000 
     77 H           0.8443   -7.0189   33.9652 H         1 BSD1386     0.0000 
     78 H           0.9146   -7.9345   32.6450 H         1 BSD1386     0.0000 
     79 H          -1.9043   -0.0100   27.6846 H         1 BSD1386     0.0000 
     80 H          -1.4220   -0.0435   26.1508 H         1 BSD1386     0.0000 
     81 H          -2.5200   -1.0967   26.6716 H         1 BSD1386     0.0000 
     82 H           2.9809   -1.1140   26.1417 H         1 BSD1386     0.0000 
     83 H           2.2469   -2.5107   26.4527 H         1 BSD1386     0.0000 
     84 H           1.7354   -1.5860   25.2405 H         1 BSD1386     0.0000 
     85 H         -11.2692   -2.4996   35.3855 H         1 BSD1386     0.0000 
     86 H         -12.5488   -2.0973   34.4983 H         1 BSD1386     0.0000 
     87 H         -12.4231   -3.5830   35.1008 H         1 BSD1386     0.0000 
     88 H          -6.5456   -3.9679   35.3700 H         1 BSD1386     0.0000 
@<TRIPOS>BOND
     1    2    1 ar   
     2    6    1 ar   
     3   48    1 1    
     4    3    2 ar   
     5   49    2 1    
     6    4    3 ar   
     7   50    3 1    
     8    5    4 ar   
     9   51    4 1    
    10    6    5 ar   
    11   52    5 1    
    12    7    6 1    
    13    8    7 1    
    14    9    7 1    
    15   53    7 1    
    16   76    8 1    
    17   77    8 1    
    18   78    8 1    
    19   10    9 am   
    20   54    9 1    
    21   11   10 2    
    22   12   10 1    
    23   13   12 ar   
    24   17   12 ar   
    25   14   13 ar   
    26   55   13 1    
    27   15   14 ar   
    28   18   14 1    
    29   16   15 ar   
    30   56   15 1    
    31   17   16 ar   
    32   24   16 1    
    33   57   17 1    
    34   19   18 1    
    35   20   18 1    
    36   79   19 1    
    37   80   19 1    
    38   81   19 1    
    39   21   20 2    
    40   22   20 2    
    41   23   20 1    
    42   82   23 1    
    43   83   23 1    
    44   84   23 1    
    45   25   24 2    
    46   26   24 am   
    47   27   26 1    
    48   58   26 1    
    49   28   27 1    
    50   35   27 1    
    51   59   27 1    
    52   29   28 1    
    53   60   28 1    
    54   61   28 1    
    55   30   29 ar   
    56   34   29 ar   
    57   31   30 ar   
    58   62   30 1    
    59   32   31 ar   
    60   63   31 1    
    61   33   32 ar   
    62   64   32 1    
    63   34   33 ar   
    64   65   33 1    
    65   66   34 1    
    66   36   35 1    
    67   37   35 1    
    68   67   35 1    
    69   88   36 1    
    70   38   37 1    
    71   68   37 1    
    72   69   37 1    
    73   39   38 1    
    74   40   39 1    
    75   70   39 1    
    76   71   39 1    
    77   41   40 ar   
    78   45   40 ar   
    79   42   41 ar   
    80   72   41 1    
    81   43   42 ar   
    82   46   42 1    
    83   44   43 ar   
    84   73   43 1    
    85   45   44 ar   
    86   74   44 1    
    87   75   45 1    
    88   47   46 1    
    89   85   47 1    
    90   86   47 1    
    91   87   47 1    
@<TRIPOS>SUBSTRUCTURE
     1 BSD1386     1 GROUP   
@<TRIPOS>SET

