#    Name: 1qss_DG3_1_INTS_M
#    Modification time : Mon Mar 24 23:54:48 2014

@<TRIPOS>MOLECULE
1qss_DG3_1_INTS_M
   53     0    12     0     0
SMALL
NO_CHARGES


@<TRIPOS>ATOM
      1 NZ         -1.6890   22.8860   -3.4175 N.4       2 LYC4        0.0000 
      2 NZ         -2.1030   22.8120   -2.2320 N.4      10 LYL4        0.0000 
      3 NZ         -1.2750   22.9600   -4.6030 N.4       6 LYP4        0.0000 
      4 N          -1.6890   22.8860   -3.4175 N.am      1 SEC2        0.0000 
      5 N          -2.1030   22.8120   -2.2320 N.am      9 SEL2        0.0000 
      6 N          -1.2750   22.9600   -4.6030 N.am      5 SEP2        0.0000 
      7 Zn         -4.0665   23.5410   -0.3655 Zn        3 ZIC7        0.0000 
      8 Zn         -3.6710   22.4320   -0.2430 Zn       11 ZIL7        0.0000 
      9 Zn         -4.4620   24.6500   -0.4880 Zn        7 ZIP7        0.0000 
     10 N          -4.9505   21.4265   -0.2285 N.am      1 SEC2        0.0000 
     11 N          -3.6710   22.4320   -0.2430 N.am      9 SEL2        0.0000 
     12 N          -6.2300   20.4210   -0.2140 N.am      5 SEP2        0.0000 
     13 NZ         -1.6405   20.0320   -2.1455 N.4       2 LYC4        0.0000 
     14 NZ         -2.9740   20.5530   -1.6350 N.4      10 LYL4        0.0000 
     15 NZ         -0.9400   18.3550   -2.5510 N.4       6 LYP4        0.0000 
     16 N          -1.6405   20.0320   -2.1455 N.am      1 SEC2        0.0000 
     17 N          -2.9740   20.5530   -1.6350 N.am      9 SEL2        0.0000 
     18 N          -0.3070   19.5110   -2.6560 N.am      5 SEP2        0.0000 
     19 N          -2.5350   19.4160   -1.7675 N.am      1 SEC2        0.0000 
     20 N          -2.0960   18.2790   -1.9000 N.am      5 SEP2        0.0000 
     21 Zn         -5.2880   24.3765   -1.2230 Zn        3 ZIC7        0.0000 
     22 Zn         -6.1140   24.1030   -1.9580 Zn       11 ZIL7        0.0000 
     23 N          -7.2925   23.1205   -1.3790 N.am      1 SEC2        0.0000 
     24 N          -6.1140   24.1030   -1.9580 N.am      9 SEL2        0.0000 
     25 N          -8.4710   22.1380   -0.8000 N.am      5 SEP2        0.0000 
     26 NZ         -2.0730   24.6410   -4.5520 N.4       2 LYC4        0.0000 
     27 NZ         -2.8710   26.3220   -4.5010 N.4      10 LYL4        0.0000 
     28 Zn         -4.2885   25.5395   -1.3745 Zn        3 ZIC7        0.0000 
     29 Zn         -4.1150   26.4290   -2.2610 Zn       11 ZIL7        0.0000 
     30 Zn         -3.5065   27.2080   -1.6880 Zn        3 ZIC7        0.0000 
     31 Zn         -2.8980   27.9870   -1.1150 Zn        7 ZIP7        0.0000 
     32 CA         -6.9495   27.6180   -1.7920 C.3       4 GLC5        0.0000 
     33 CA         -6.5470   27.0580   -3.7130 C.3      12 GLL5        0.0000 
     34 CA         -7.3520   28.1780    0.1290 C.3       8 GLP5        0.0000 
     35 N          -8.4465   28.9410   -5.6800 N.am      1 SEC2        0.0000 
     36 N          -7.8040   27.3530   -5.7560 N.am      9 SEL2        0.0000 
     37 N          -9.0890   30.5290   -5.6040 N.am      5 SEP2        0.0000 
     38 N          -4.0285   24.7965  -11.1225 N.am      1 SEC2        0.0000 
     39 N          -5.2820   25.5530  -11.8190 N.am      9 SEL2        0.0000 
     40 N          -2.7750   24.0400  -10.4260 N.am      5 SEP2        0.0000 
     41 CA         -8.0373   25.9078   -2.8672 C.3       4 GLC5        0.0000 
     42 CA         -7.7720   26.6410   -4.4920 C.3      12 GLL5        0.0000 
     43 CA         -8.9150   24.9660   -1.6320 C.3       8 GLP5        0.0000 
     44 CA         -8.6118   25.0772   -3.5575 C.3       4 GLC5        0.0000 
     45 CA         -7.8490   25.1720   -4.8760 C.3      12 GLL5        0.0000 
     46 CA        -10.0168   24.3942   -5.1610 C.3       4 GLC5        0.0000 
     47 CA        -11.7250   23.6000   -4.8390 C.3       8 GLP5        0.0000 
     48 CA         -7.7151   24.2151   -6.6602 C.3       4 GLC5        0.0000 
     49 CA         -8.7680   25.2050   -6.0900 C.3      12 GLL5        0.0000 
     50 CA         -7.1020   22.5790   -7.1990 C.3       8 GLP5        0.0000 
     51 CA         -7.6402   24.1150  -10.1050 C.3       4 GLC5        0.0000 
     52 CA         -7.5940   26.0940   -9.1330 C.3      12 GLL5        0.0000 
     53 CA         -8.3060   22.2060  -10.7840 C.3       8 GLP5        0.0000 
@<TRIPOS>BOND
@<TRIPOS>SUBSTRUCTURE
     1 SEC2        4 GROUP        1 X    SEC  0     ROOT SEC X 2
     2 LYC4        1 GROUP        1 X    LYC  0     **** LYC X 4
     3 ZIC7        7 GROUP        1 X    ZIC  0     **** ZIC X 5
     4 GLC5       32 GROUP        1 X    GLC  0     **** GLC X 6
     5 SEP2        6 GROUP        1 Y    SEP  0     ROOT SEP Y 9
     6 LYP4        3 GROUP        1 Y    LYP  0     **** LYP Y 11
     7 ZIP7        9 GROUP        1 Y    ZIP  0     **** ZIP Y 12
     8 GLP5       34 GROUP        1 Y    GLP  0     **** GLP Y 13
     9 SEL2        5 GROUP        1 Z    SEL  0     ROOT SEL Z 16
    10 LYL4        2 GROUP        1 Z    LYL  0     **** LYL Z 18
    11 ZIL7        8 GROUP        1 Z    ZIL  0     **** ZIL Z 19
    12 GLL5       33 GROUP        1 Z    GLL  0     **** GLL Z 20
@<TRIPOS>SET

