#    Name: 1qss_DG3_1_ligand
#    Modification time : Mon Mar 24 23:54:48 2014

@<TRIPOS>MOLECULE
1qss_DG3_1_ligand
   42    44     1     0     0
SMALL
NO_CHARGES


@<TRIPOS>ATOM
      1 PG         -3.2810   22.1330   -1.6400 P.3       1 DG3113      0.0000 
      2 O1G        -2.1030   22.8120   -2.2320 O.co2     1 DG3113      0.0000 
      3 O2G        -3.6710   22.4320   -0.2430 O.co2     1 DG3113      0.0000 
      4 O3G        -2.9740   20.5530   -1.6350 O.co2     1 DG3113      0.0000 
      5 O3B        -4.5520   22.2740   -2.6330 O.3       1 DG3113      0.0000 
      6 PB         -5.4830   23.4860   -3.1510 P.3       1 DG3113      0.0000 
      7 O1B        -6.3360   22.8000   -4.1530 O.co2     1 DG3113      0.0000 
      8 O2B        -6.1140   24.1030   -1.9580 O.co2     1 DG3113      0.0000 
      9 O3A        -4.5050   24.5330   -3.9090 O.3       1 DG3113      0.0000 
     10 PA         -4.0920   26.0720   -3.6980 P.3       1 DG3113      0.0000 
     11 O1A        -2.8710   26.3220   -4.5010 O.co2     1 DG3113      0.0000 
     12 O2A        -4.1150   26.4290   -2.2610 O.co2     1 DG3113      0.0000 
     13 O5'        -5.3510   26.7120   -4.4370 O.3       1 DG3113      0.0000 
     14 C5'        -6.5470   27.0580   -3.7130 C.3       1 DG3113      0.0000 
     15 C4'        -7.7720   26.6410   -4.4920 C.3       1 DG3113      0.0000 
     16 O4'        -7.8040   27.3530   -5.7560 O.3       1 DG3113      0.0000 
     17 C3'        -7.8490   25.1720   -4.8760 C.3       1 DG3113      0.0000 
     18 C2'        -8.7680   25.2050   -6.0900 C.3       1 DG3113      0.0000 
     19 C1'        -8.3480   26.5140   -6.7600 C.3       1 DG3113      0.0000 
     20 N9         -7.3440   26.3170   -7.8010 N.pl3     1 DG3113      0.0000 
     21 C8         -5.9760   26.3050   -7.6560 C.2       1 DG3113      0.0000 
     22 N7         -5.3450   26.0900   -8.7770 N.2       1 DG3113      0.0000 
     23 C5         -6.3550   25.9540   -9.7190 C.2       1 DG3113      0.0000 
     24 C6         -6.2850   25.7060  -11.1140 C.2       1 DG3113      0.0000 
     25 O6         -5.2820   25.5530  -11.8190 O.2       1 DG3113      0.0000 
     26 N1         -7.5510   25.6440  -11.6850 N.am      1 DG3113      0.0000 
     27 C2         -8.7330   25.8000  -11.0060 C.2       1 DG3113      0.0000 
     28 N2         -9.8550   25.7090  -11.7330 N.pl3     1 DG3113      0.0000 
     29 N3         -8.8120   26.0300   -9.7090 N.2       1 DG3113      0.0000 
     30 C4         -7.5940   26.0940   -9.1330 C.2       1 DG3113      0.0000 
     31 H          -6.6031   28.1409   -3.5350 H         1 DG3113      0.0000 
     32 H          -6.5750   26.5608   -2.7335 H         1 DG3113      0.0000 
     33 H          -8.6659   26.8917   -3.9323 H         1 DG3113      0.0000 
     34 H          -8.3001   24.6185   -4.0986 H         1 DG3113      0.0000 
     35 H          -6.8940   24.8216   -5.1576 H         1 DG3113      0.0000 
     36 H          -9.7722   25.2686   -5.7812 H         1 DG3113      0.0000 
     37 H          -8.5549   24.3942   -6.7265 H         1 DG3113      0.0000 
     38 H          -9.2378   26.9664   -7.1811 H         1 DG3113      0.0000 
     39 H          -5.5456   26.4502   -6.7653 H         1 DG3113      0.0000 
     40 H          -7.5998   25.4601  -12.7359 H         1 DG3113      0.0000 
     41 H         -10.7141   25.8059  -11.2304 H         1 DG3113      0.0000 
     42 H          -9.7328   25.5523  -12.7131 H         1 DG3113      0.0000 
@<TRIPOS>BOND
     1    2    1 ar   
     2    3    1 ar   
     3    4    1 ar   
     4    5    1 1    
     5    6    5 1    
     6    7    6 ar   
     7    8    6 ar   
     8    9    6 1    
     9   10    9 1    
    10   11   10 ar   
    11   12   10 ar   
    12   13   10 1    
    13   14   13 1    
    14   15   14 1    
    15   31   14 1    
    16   32   14 1    
    17   16   15 1    
    18   17   15 1    
    19   33   15 1    
    20   19   16 1    
    21   18   17 1    
    22   34   17 1    
    23   35   17 1    
    24   19   18 1    
    25   36   18 1    
    26   37   18 1    
    27   20   19 1    
    28   38   19 1    
    29   21   20 1    
    30   30   20 1    
    31   22   21 2    
    32   39   21 1    
    33   23   22 1    
    34   24   23 1    
    35   30   23 2    
    36   25   24 2    
    37   26   24 am   
    38   27   26 1    
    39   40   26 1    
    40   28   27 1    
    41   29   27 2    
    42   41   28 1    
    43   42   28 1    
    44   30   29 1    
@<TRIPOS>SUBSTRUCTURE
     1 DG3113      1 GROUP   
@<TRIPOS>SET

