#    Name: 2prb_COA_1_INTS_M
#    Modification time : Mon Mar 24 19:18:43 2014

@<TRIPOS>MOLECULE
2prb_COA_1_INTS_M
   97     0    12     0     0
SMALL
NO_CHARGES


@<TRIPOS>ATOM
      1 CA         -4.6655   -0.7385  -14.2365 C.3       4 GLC5        0.0000 
      2 CA         -3.5010   -1.2430  -12.7140 C.3      12 GLL5        0.0000 
      3 CA         -5.8300   -0.2340  -15.7590 C.3       8 GLP5        0.0000 
      4 CA         -4.0465   -0.7240  -15.2650 C.3       4 GLC5        0.0000 
      5 CA         -2.2630   -1.2140  -14.7710 C.3      12 GLL5        0.0000 
      6 NZ          1.0230    5.7245   -7.4215 N.4       3 LYC4        0.0000 
      7 NZ          1.2540    4.3610   -7.0130 N.4      11 LYL4        0.0000 
      8 NZ          0.7920    7.0880   -7.8300 N.4       7 LYP4        0.0000 
      9 N           1.0230    5.7245   -7.4215 N.am      2 SEC2        0.0000 
     10 N           1.2540    4.3610   -7.0130 N.am     10 SEL2        0.0000 
     11 N           0.7920    7.0880   -7.8300 N.am      6 SEP2        0.0000 
     12 NZ         -2.0080    2.8345   -6.6750 N.4       3 LYC4        0.0000 
     13 NZ         -0.3580    2.5850   -6.4190 N.4      11 LYL4        0.0000 
     14 NZ         -4.1320    3.4220   -5.7330 N.4       7 LYP4        0.0000 
     15 N          -2.0080    2.8345   -6.6750 N.am      2 SEC2        0.0000 
     16 N          -0.3580    2.5850   -6.4190 N.am     10 SEL2        0.0000 
     17 N          -3.6580    3.0840   -6.9310 N.am      6 SEP2        0.0000 
     18 CA         -0.2975    4.9645  -13.6395 C.3       4 GLC5        0.0000 
     19 CA          0.1080    5.5000  -11.6730 C.3      12 GLL5        0.0000 
     20 CA         -0.7030    4.4290  -15.6060 C.3       8 GLP5        0.0000 
     21 N           0.5260    6.8545   -9.3300 N.am      2 SEC2        0.0000 
     22 N           0.2600    6.6210  -10.8300 N.am     10 SEL2        0.0000 
     23 NZ          1.7205    7.2460   -9.5540 N.4       3 LYC4        0.0000 
     24 NZ          2.6490    7.4040  -11.2780 N.4      11 LYL4        0.0000 
     25 N           3.6465    8.2225  -10.6860 N.am      2 SEC2        0.0000 
     26 N           2.6490    7.4040  -11.2780 N.am     10 SEL2        0.0000 
     27 N           4.6440    9.0410  -10.0940 N.am      6 SEP2        0.0000 
     28 NZ          0.8785    8.0900   -9.1810 N.4       3 LYC4        0.0000 
     29 NZ          0.9650    9.0920  -10.5320 N.4      11 LYL4        0.0000 
     30 N           0.4310   10.5755  -10.6310 N.am      2 SEC2        0.0000 
     31 N           0.9650    9.0920  -10.5320 N.am     10 SEL2        0.0000 
     32 N          -0.1030   12.0590  -10.7300 N.am      6 SEP2        0.0000 
     33 N           0.0250    9.5210   -9.7120 N.am      2 SEC2        0.0000 
     34 N          -0.9150    9.9500   -8.8920 N.am      6 SEP2        0.0000 
     35 N           2.3610   10.9705  -12.9250 N.am      2 SEC2        0.0000 
     36 N           2.6370    9.5980  -13.3470 N.am     10 SEL2        0.0000 
     37 N           2.0850   12.3430  -12.5030 N.am      6 SEP2        0.0000 
     38 N           3.4460    7.2490  -14.7150 N.am      2 SEC2        0.0000 
     39 N           2.1190    7.7720  -14.9770 N.am     10 SEL2        0.0000 
     40 N           4.7730    6.7260  -14.4530 N.am      6 SEP2        0.0000 
     41 CA         -0.0235   10.8195  -14.0795 C.3       4 GLC5        0.0000 
     42 CA         -0.7560    9.1690  -15.1790 C.3      12 GLL5        0.0000 
     43 CA          0.7090   12.4700  -12.9800 C.3       8 GLP5        0.0000 
     44 CA         -1.7705    9.6990  -13.6925 C.3       4 GLC5        0.0000 
     45 CA         -2.7850   10.2290  -12.2060 C.3       8 GLP5        0.0000 
     46 CA         -3.6680    7.8140  -16.4165 C.3       4 GLC5        0.0000 
     47 CA         -2.3100    9.0160  -17.0980 C.3      12 GLL5        0.0000 
     48 CA         -5.0260    6.6120  -15.7350 C.3       8 GLP5        0.0000 
     49 CA         -2.2940   12.8090  -16.6395 C.3       4 GLC5        0.0000 
     50 CA         -1.0800   11.1330  -16.6590 C.3      12 GLL5        0.0000 
     51 CA         -3.5080   14.4850  -16.6200 C.3       8 GLP5        0.0000 
     52 CA         -0.9055   12.4170  -18.4965 C.3       4 GLC5        0.0000 
     53 CA         -0.7310   13.7010  -20.3340 C.3       8 GLP5        0.0000 
     54 CA          0.9175   11.9435  -16.7320 C.3       4 GLC5        0.0000 
     55 CA          2.9150   12.7540  -16.8050 C.3       8 GLP5        0.0000 
     56 CA         -0.1855   11.8015  -14.8195 C.3       4 GLC5        0.0000 
     57 CA          1.7980   10.3795  -16.6925 C.3       4 GLC5        0.0000 
     58 CA          0.1920    9.1200  -17.5000 C.3      12 GLL5        0.0000 
     59 CA          3.4040   11.6390  -15.8850 C.3       8 GLP5        0.0000 
     60 CA          1.9740    8.9660  -18.0945 C.3       4 GLC5        0.0000 
     61 CA          3.7560    8.8120  -18.6890 C.3       8 GLP5        0.0000 
     62 N           0.9510   11.9520  -19.5250 N.am      2 SEC2        0.0000 
     63 N           0.3730   10.7250  -19.4290 N.am     10 SEL2        0.0000 
     64 N           1.5290   13.1790  -19.6210 N.am      6 SEP2        0.0000 
     65 CA         -1.1880    6.8450  -22.0020 C.3       4 GLC5        0.0000 
     66 CA         -0.4400    8.6040  -21.2220 C.3      12 GLL5        0.0000 
     67 CA         -1.9360    5.0860  -22.7820 C.3       8 GLP5        0.0000 
     68 CA         -2.6470    8.0865  -22.7145 C.3       4 GLC5        0.0000 
     69 CA         -1.5880    9.4840  -21.7230 C.3      12 GLL5        0.0000 
     70 CA         -3.7060    6.6890  -23.7060 C.3       8 GLP5        0.0000 
     71 CA         -1.1610   11.5740  -21.7970 C.3       4 GLC5        0.0000 
     72 CA         -0.7340   13.6640  -21.8710 C.3       8 GLP5        0.0000 
     73 N          -4.4735    7.1155  -20.6130 N.am      2 SEC2        0.0000 
     74 N          -3.2240    7.9920  -20.7880 N.am     10 SEL2        0.0000 
     75 N          -5.7230    6.2390  -20.4380 N.am      6 SEP2        0.0000 
     76 O          -3.5280   11.6360  -20.2175 O.2       1 ALC1        0.0000 
     77 O          -3.6490   10.2110  -20.6810 O.2       9 ALL1        0.0000 
     78 O          -3.4070   13.0610  -19.7540 O.2       5 ALP1        0.0000 
     79 CA         -5.2590    8.5730  -18.4555 C.3       4 GLC5        0.0000 
     80 CA         -4.8480   10.0660  -19.8740 C.3      12 GLL5        0.0000 
     81 CA         -5.6700    7.0800  -17.0370 C.3       8 GLP5        0.0000 
     82 CA         -9.1330    8.5605  -19.2685 C.3       4 GLC5        0.0000 
     83 CA         -7.5730    9.5960  -19.7080 C.3      12 GLL5        0.0000 
     84 CA        -10.6930    7.5250  -18.8290 C.3       8 GLP5        0.0000 
     85 CA         -6.6215    8.3380  -18.3725 C.3       4 GLC5        0.0000 
     86 CA         -7.8405    9.8415  -17.5545 C.3       4 GLC5        0.0000 
     87 CA         -8.1080   10.0870  -15.4010 C.3       8 GLP5        0.0000 
     88 CA         -2.3000    1.7107  -14.4383 C.3       4 GLC5        0.0000 
     89 CA         -1.6820    0.2740  -12.9750 C.3      12 GLL5        0.0000 
     90 CA         -3.0330    3.3850  -15.2580 C.3       8 GLP5        0.0000 
     91 CA         -0.8368    5.2300   -8.9573 C.3       4 GLC5        0.0000 
     92 CA         -0.5590    4.3530  -10.9280 C.3      12 GLL5        0.0000 
     93 CA         -1.6060    6.5080   -7.4090 C.3       8 GLP5        0.0000 
     94 CA          0.2435   10.2035  -22.5547 C.3       4 GLC5        0.0000 
     95 CA          1.5010   11.3630  -23.6370 C.3       8 GLP5        0.0000 
     96 CA         -1.8337    3.1277  -10.1243 C.3       4 GLC5        0.0000 
     97 CA         -3.5840    3.1860   -9.4000 C.3       8 GLP5        0.0000 
@<TRIPOS>BOND
@<TRIPOS>SUBSTRUCTURE
     1 ALC1       76 GROUP        1 X    ALC  0     ROOT ALC X 1
     2 SEC2        9 GROUP        1 X    SEC  0     **** SEC X 2
     3 LYC4        6 GROUP        1 X    LYC  0     **** LYC X 4
     4 GLC5        1 GROUP        1 X    GLC  0     **** GLC X 6
     5 ALP1       78 GROUP        1 Y    ALP  0     ROOT ALP Y 8
     6 SEP2       11 GROUP        1 Y    SEP  0     **** SEP Y 9
     7 LYP4        8 GROUP        1 Y    LYP  0     **** LYP Y 11
     8 GLP5        3 GROUP        1 Y    GLP  0     **** GLP Y 13
     9 ALL1       77 GROUP        1 Z    ALL  0     ROOT ALL Z 15
    10 SEL2       10 GROUP        1 Z    SEL  0     **** SEL Z 16
    11 LYL4        7 GROUP        1 Z    LYL  0     **** LYL Z 18
    12 GLL5        2 GROUP        1 Z    GLL  0     **** GLL Z 20
@<TRIPOS>SET

