#    Name: 2prb_COA_1_ligand
#    Modification time : Mon Mar 24 19:18:43 2014

@<TRIPOS>MOLECULE
2prb_COA_1_ligand
   79    81     1     0     0
SMALL
NO_CHARGES


@<TRIPOS>ATOM
      1 N1A        -3.2850   -1.7300  -13.9910 N.ar      1 COA501      0.0000 
      2 C2A        -3.5010   -1.2430  -12.7140 C.ar      1 COA501      0.0000 
      3 N3A        -2.6900   -0.2370  -12.2170 N.ar      1 COA501      0.0000 
      4 C4A        -1.6820    0.2740  -12.9750 C.ar      1 COA501      0.0000 
      5 C5A        -1.4520   -0.2010  -14.2620 C.ar      1 COA501      0.0000 
      6 C6A        -2.2630   -1.2140  -14.7710 C.ar      1 COA501      0.0000 
      7 N6A        -2.1590   -1.5820  -16.0450 N.pl3     1 COA501      0.0000 
      8 N7A        -0.4020    0.4820  -14.7730 N.2       1 COA501      0.0000 
      9 C8A         0.0320    1.3710  -13.8490 C.2       1 COA501      0.0000 
     10 N9A        -0.7510    1.2520  -12.7290 N.pl3     1 COA501      0.0000 
     11 C1B        -0.7720    2.1290  -11.5410 C.3       1 COA501      0.0000 
     12 C2B         0.5730    2.2450  -10.8420 C.3       1 COA501      0.0000 
     13 O2B         0.7950    1.1460   -9.9910 O.3       1 COA501      0.0000 
     14 C3B         0.4240    3.5510  -10.0830 C.3       1 COA501      0.0000 
     15 O3B        -0.1910    3.3360   -8.8320 O.3       1 COA501      0.0000 
     16 P3B         0.6190    3.0690   -7.4650 P.3       1 COA501      0.0000 
     17 O7A         1.2540    4.3610   -7.0130 O.co2     1 COA501      0.0000 
     18 O8A         1.6890    2.0230   -7.6740 O.co2     1 COA501      0.0000 
     19 O9A        -0.3580    2.5850   -6.4190 O.co2     1 COA501      0.0000 
     20 C4B        -0.5590    4.3530  -10.9280 C.3       1 COA501      0.0000 
     21 O4B        -1.1430    3.4550  -11.8580 O.3       1 COA501      0.0000 
     22 C5B         0.1080    5.5000  -11.6730 C.3       1 COA501      0.0000 
     23 O5B         0.2600    6.6210  -10.8300 O.3       1 COA501      0.0000 
     24 P1A         1.2020    7.8290  -11.3270 P.3       1 COA501      0.0000 
     25 O1A         2.6490    7.4040  -11.2780 O.co2     1 COA501      0.0000 
     26 O2A         0.9650    9.0920  -10.5320 O.co2     1 COA501      0.0000 
     27 O3A         0.6990    8.0090  -12.8460 O.3       1 COA501      0.0000 
     28 P2A         1.5560    8.7570  -13.9800 P.3       1 COA501      0.0000 
     29 O4A         2.6370    9.5980  -13.3470 O.co2     1 COA501      0.0000 
     30 O5A         2.1190    7.7720  -14.9770 O.co2     1 COA501      0.0000 
     31 O6A         0.4540    9.7040  -14.6730 O.3       1 COA501      0.0000 
     32 CBP        -0.9800    9.6060  -16.6290 C.3       1 COA501      0.0000 
     33 CCP        -0.7560    9.1690  -15.1790 C.3       1 COA501      0.0000 
     34 CDP        -2.3100    9.0160  -17.0980 C.3       1 COA501      0.0000 
     35 CEP        -1.0800   11.1330  -16.6590 C.3       1 COA501      0.0000 
     36 CAP         0.1920    9.1200  -17.5000 C.3       1 COA501      0.0000 
     37 OAP         0.4590    7.7430  -17.3080 O.3       1 COA501      0.0000 
     38 C9P         0.0420    9.4410  -18.9660 C.2       1 COA501      0.0000 
     39 O9P         0.3730   10.7250  -19.4290 O.2       1 COA501      0.0000 
     40 N8P        -0.4000    8.4730  -19.7720 N.am      1 COA501      0.0000 
     41 C7P        -0.4400    8.6040  -21.2220 C.3       1 COA501      0.0000 
     42 C6P        -1.5880    9.4840  -21.7230 C.3       1 COA501      0.0000 
     43 C5P        -2.8930    9.1660  -21.0210 C.2       1 COA501      0.0000 
     44 O5P        -3.2240    7.9920  -20.7880 O.2       1 COA501      0.0000 
     45 N4P        -3.6490   10.2110  -20.6810 N.am      1 COA501      0.0000 
     46 C3P        -4.8480   10.0660  -19.8740 C.3       1 COA501      0.0000 
     47 C2P        -6.0650    9.6830  -20.7070 C.3       1 COA501      0.0000 
     48 S1P        -7.5730    9.5960  -19.7080 S.3       1 COA501      0.0000 
     49 H          -4.2605   -1.6264  -12.1363 H         1 COA501      0.0000 
     50 H          -1.3713   -1.2212  -16.5443 H         1 COA501      0.0000 
     51 H          -2.8779   -2.1863  -16.3886 H         1 COA501      0.0000 
     52 H           0.7637    1.9858  -13.9504 H         1 COA501      0.0000 
     53 H          -1.4733    1.7245  -10.7982 H         1 COA501      0.0000 
     54 H           1.3150    2.3810  -11.5918 H         1 COA501      0.0000 
     55 H           1.3311    4.0539  -10.0493 H         1 COA501      0.0000 
     56 H          -1.3135    4.7595  -10.2678 H         1 COA501      0.0000 
     57 H          -0.5129    5.7284  -12.5555 H         1 COA501      0.0000 
     58 H           1.0773    5.1323  -12.0496 H         1 COA501      0.0000 
     59 H          -1.6297    9.5021  -14.5961 H         1 COA501      0.0000 
     60 H          -0.7581    8.0673  -15.1632 H         1 COA501      0.0000 
     61 H           1.0920    9.7049  -17.1440 H         1 COA501      0.0000 
     62 H          -0.7450    7.5574  -19.3928 H         1 COA501      0.0000 
     63 H          -0.5416    7.6106  -21.7022 H         1 COA501      0.0000 
     64 H           0.5070    9.0355  -21.6024 H         1 COA501      0.0000 
     65 H          -1.7066    9.3321  -22.8004 H         1 COA501      0.0000 
     66 H          -1.3291   10.5340  -21.5542 H         1 COA501      0.0000 
     67 H          -3.4147   11.1832  -20.9789 H         1 COA501      0.0000 
     68 H          -5.0803   11.0067  -19.3438 H         1 COA501      0.0000 
     69 H          -4.7081    9.2916  -19.0990 H         1 COA501      0.0000 
     70 H          -6.0079    8.6977  -21.1222 H         1 COA501      0.0000 
     71 H          -6.3233   10.4105  -21.4491 H         1 COA501      0.0000 
     72 H          -2.5154    9.2684  -18.0436 H         1 COA501      0.0000 
     73 H          -2.3088    8.0169  -17.0550 H         1 COA501      0.0000 
     74 H          -3.0751    9.3326  -16.5373 H         1 COA501      0.0000 
     75 H          -0.2476   11.5666  -16.3138 H         1 COA501      0.0000 
     76 H          -1.2269   11.4774  -17.5862 H         1 COA501      0.0000 
     77 H          -1.8382   11.4666  -16.0988 H         1 COA501      0.0000 
     78 H           1.1553    1.5416   -9.1462 H         1 COA501      0.0000 
     79 H           1.0755    7.7062  -16.5215 H         1 COA501      0.0000 
@<TRIPOS>BOND
     1    2    1 ar   
     2    6    1 ar   
     3    3    2 ar   
     4   49    2 1    
     5    4    3 ar   
     6    5    4 ar   
     7   10    4 1    
     8    6    5 ar   
     9    8    5 1    
    10    7    6 1    
    11   50    7 1    
    12   51    7 1    
    13    9    8 2    
    14   10    9 1    
    15   52    9 1    
    16   11   10 1    
    17   12   11 1    
    18   21   11 1    
    19   53   11 1    
    20   13   12 1    
    21   14   12 1    
    22   54   12 1    
    23   78   13 1    
    24   15   14 1    
    25   20   14 1    
    26   55   14 1    
    27   16   15 1    
    28   17   16 ar   
    29   18   16 ar   
    30   19   16 ar   
    31   21   20 1    
    32   22   20 1    
    33   56   20 1    
    34   23   22 1    
    35   57   22 1    
    36   58   22 1    
    37   24   23 1    
    38   25   24 ar   
    39   26   24 ar   
    40   27   24 1    
    41   28   27 1    
    42   29   28 ar   
    43   30   28 ar   
    44   31   28 1    
    45   33   31 1    
    46   33   32 1    
    47   34   32 1    
    48   35   32 1    
    49   36   32 1    
    50   59   33 1    
    51   60   33 1    
    52   72   34 1    
    53   73   34 1    
    54   74   34 1    
    55   75   35 1    
    56   76   35 1    
    57   77   35 1    
    58   37   36 1    
    59   38   36 1    
    60   61   36 1    
    61   79   37 1    
    62   39   38 2    
    63   40   38 am   
    64   41   40 1    
    65   62   40 1    
    66   42   41 1    
    67   63   41 1    
    68   64   41 1    
    69   43   42 1    
    70   65   42 1    
    71   66   42 1    
    72   44   43 2    
    73   45   43 am   
    74   46   45 1    
    75   67   45 1    
    76   47   46 1    
    77   68   46 1    
    78   69   46 1    
    79   48   47 1    
    80   70   47 1    
    81   71   47 1    
@<TRIPOS>SUBSTRUCTURE
     1 COA501      1 GROUP   
@<TRIPOS>SET

