#    Name: 2rki_TT1_1_INTS_M
#    Modification time : Tue Mar 25 00:02:54 2014

@<TRIPOS>MOLECULE
2rki_TT1_1_INTS_M
   77     0     6     0     0
SMALL
NO_CHARGES


@<TRIPOS>ATOM
      1 CA          4.0060    9.2725   17.2735 C.3       2 GLC5        0.0000 
      2 CA          6.0080    9.1620   16.8060 C.3       6 GLL5        0.0000 
      3 CA          2.0040    9.3830   17.7410 C.3       4 GLP5        0.0000 
      4 CA          8.1830    7.4080   12.8850 C.3       2 GLC5        0.0000 
      5 CA          6.6910    8.3590   14.1220 C.3       6 GLL5        0.0000 
      6 CA          9.6750    6.4570   11.6480 C.3       4 GLP5        0.0000 
      7 CA          7.9345   11.3550   12.0780 C.3       2 GLC5        0.0000 
      8 CA          6.7930   10.9080   13.1850 C.3       6 GLL5        0.0000 
      9 CA          9.0760   11.8020   10.9710 C.3       4 GLP5        0.0000 
     10 CA          8.4790   10.4195   13.9355 C.3       2 GLC5        0.0000 
     11 CA         10.1650    9.9310   14.6860 C.3       4 GLP5        0.0000 
     12 CA          4.8055   12.8030   15.8120 C.3       2 GLC5        0.0000 
     13 CA          6.0430   11.6970   16.1900 C.3       6 GLL5        0.0000 
     14 CA          3.5680   13.9090   15.4340 C.3       4 GLP5        0.0000 
     15 CA          7.3370   14.3180   17.0920 C.3       2 GLC5        0.0000 
     16 CA          7.2760   12.2580   17.4120 C.3       6 GLL5        0.0000 
     17 CA          7.3980   16.3780   16.7720 C.3       4 GLP5        0.0000 
     18 CA          7.6330   10.6325   18.6775 C.3       2 GLC5        0.0000 
     19 CA          7.9900    9.0070   19.9430 C.3       4 GLP5        0.0000 
     20 N           9.7490   14.1170   13.2120 N.am      1 SEC2        0.0000 
     21 N           9.4250   13.7290   14.5640 N.am      5 SEL2        0.0000 
     22 N          10.0730   14.5050   11.8600 N.am      3 SEP2        0.0000 
     23 CA         16.1585   13.7650   15.4080 C.3       2 GLC5        0.0000 
     24 CA         14.1670   14.1330   15.1310 C.3       6 GLL5        0.0000 
     25 CA         18.1500   13.3970   15.6850 C.3       4 GLP5        0.0000 
     26 CA         13.3990   12.2645   17.4620 C.3       2 GLC5        0.0000 
     27 CA         13.0350   12.8280   15.5810 C.3       6 GLL5        0.0000 
     28 CA         13.7630   11.7010   19.3430 C.3       4 GLP5        0.0000 
     29 CA         14.4605   11.1725   15.6620 C.3       2 GLC5        0.0000 
     30 CA         15.8860    9.5170   15.7430 C.3       4 GLP5        0.0000 
     31 CA         13.3350   11.3935   14.1570 C.3       2 GLC5        0.0000 
     32 CA         13.6350    9.9590   12.7330 C.3       4 GLP5        0.0000 
     33 CA         10.7260   10.9870   17.3980 C.3       2 GLC5        0.0000 
     34 CA         10.3890   12.7680   17.8950 C.3       6 GLL5        0.0000 
     35 CA         11.0630    9.2060   16.9010 C.3       4 GLP5        0.0000 
     36 CA          8.8710   15.1475   17.8385 C.3       2 GLC5        0.0000 
     37 CA         10.3440   13.9170   18.9050 C.3       6 GLL5        0.0000 
     38 CA         12.8460   15.4390   18.5950 C.3       2 GLC5        0.0000 
     39 CA         10.6330   15.2780   18.5230 C.3       6 GLL5        0.0000 
     40 CA         15.0590   15.6000   18.6670 C.3       4 GLP5        0.0000 
     41 CA         10.7220   18.3480   19.3815 C.3       2 GLC5        0.0000 
     42 CA         10.5890   16.3380   19.5030 C.3       6 GLL5        0.0000 
     43 CA         10.8550   20.3580   19.2600 C.3       4 GLP5        0.0000 
     44 CA          9.0415   14.3565   23.1650 C.3       2 GLC5        0.0000 
     45 CA          9.9620   14.6600   21.2710 C.3       6 GLL5        0.0000 
     46 CA          8.1210   14.0530   25.0590 C.3       4 GLP5        0.0000 
     47 CA          6.2207    6.1940   17.1033 C.3       2 GLC5        0.0000 
     48 CA          6.1690    7.6750   16.4200 C.3       6 GLL5        0.0000 
     49 CA          6.1040    4.8830   18.4510 C.3       4 GLP5        0.0000 
     50 CA          8.3161    8.3164   15.7465 C.3       2 GLC5        0.0000 
     51 CA          6.5060    7.3350   15.0910 C.3       6 GLL5        0.0000 
     52 CA         10.3350    8.7560   15.6410 C.3       4 GLP5        0.0000 
     53 CA          4.9198    8.1855   14.4172 C.3       2 GLC5        0.0000 
     54 CA          3.2410    8.5240   14.2280 C.3       4 GLP5        0.0000 
     55 CA          4.9550    9.4255   14.0252 C.3       2 GLC5        0.0000 
     56 CA          6.5450    9.7460   14.4600 C.3       6 GLL5        0.0000 
     57 CA          8.2875    9.7711   14.8697 C.3       2 GLC5        0.0000 
     58 CA          4.6931    8.9091   15.2213 C.3       2 GLC5        0.0000 
     59 CA          6.2020   10.1700   15.8160 C.3       6 GLL5        0.0000 
     60 CA          5.7492   12.1162   18.5190 C.3       2 GLC5        0.0000 
     61 CA          4.8390   12.2550   20.2370 C.3       4 GLP5        0.0000 
     62 CA         10.6692   16.0888   15.5800 C.3       2 GLC5        0.0000 
     63 CA         11.6830   13.9620   15.3080 C.3       6 GLL5        0.0000 
     64 CA          9.4540   17.6100   16.0450 C.3       4 GLP5        0.0000 
     65 CA         11.4247   14.0027   13.2320 C.3       2 GLC5        0.0000 
     66 CA         12.0860   15.1730   14.9220 C.3       6 GLL5        0.0000 
     67 CA         10.9650   13.4380   11.3490 C.3       4 GLP5        0.0000 
     68 CA         11.2620   11.6630   15.0652 C.3       2 GLC5        0.0000 
     69 CA         14.4585   15.1520   16.8208 C.3       2 GLC5        0.0000 
     70 CA         13.5490   15.2750   14.8180 C.3       6 GLL5        0.0000 
     71 CA         10.0325   16.7090   17.5290 C.3       2 GLC5        0.0000 
     72 CA         11.9746   12.5889   19.3440 C.3       2 GLC5        0.0000 
     73 CA         10.0060   13.6110   20.2900 C.3       6 GLL5        0.0000 
     74 CA          8.2228   14.1749   20.9986 C.3       2 GLC5        0.0000 
     75 CA          6.3890   13.8740   21.3140 C.3       4 GLP5        0.0000 
     76 CA         14.0236   14.0561   13.4095 C.3       2 GLC5        0.0000 
     77 CA         14.8380   13.7600   11.7060 C.3       4 GLP5        0.0000 
@<TRIPOS>BOND
@<TRIPOS>SUBSTRUCTURE
     1 SEC2       20 GROUP        1 X    SEC  0     ROOT SEC X 2
     2 GLC5        1 GROUP        1 X    GLC  0     **** GLC X 6
     3 SEP2       22 GROUP        1 Y    SEP  0     ROOT SEP Y 9
     4 GLP5        3 GROUP        1 Y    GLP  0     **** GLP Y 13
     5 SEL2       21 GROUP        1 Z    SEL  0     ROOT SEL Z 16
     6 GLL5        2 GROUP        1 Z    GLL  0     **** GLL Z 20
@<TRIPOS>SET

