#    Name: 2rki_TT1_1_ligand
#    Modification time : Tue Mar 25 00:02:54 2014

@<TRIPOS>MOLECULE
2rki_TT1_1_ligand
   42    45     1     0     0
SMALL
NO_CHARGES


@<TRIPOS>ATOM
      1 C26         6.0080    9.1620   16.8060 C.ar      1 TT1568      0.0000 
      2 C25         6.1690    7.6750   16.4200 C.ar      1 TT1568      0.0000 
      3 C24         6.5060    7.3350   15.0910 C.ar      1 TT1568      0.0000 
      4 C23         6.6910    8.3590   14.1220 C.ar      1 TT1568      0.0000 
      5 C21         6.5450    9.7460   14.4600 C.ar      1 TT1568      0.0000 
      6 CL22        6.7930   10.9080   13.1850 Cl        1 TT1568      0.0000 
      7 C20         6.2020   10.1700   15.8160 C.ar      1 TT1568      0.0000 
      8 C8          6.0430   11.6970   16.1900 C.3       1 TT1568      0.0000 
      9 S9          7.2760   12.2580   17.4120 S.3       1 TT1568      0.0000 
     10 C10         8.4960   12.9260   16.2740 C.2       1 TT1568      0.0000 
     11 N19         8.2510   13.2920   15.0770 N.2       1 TT1568      0.0000 
     12 N18         9.4250   13.7290   14.5640 N.2       1 TT1568      0.0000 
     13 C12        10.2680   13.5830   15.5050 C.2       1 TT1568      0.0000 
     14 C13        11.6830   13.9620   15.3080 C.2       1 TT1568      0.0000 
     15 C17        12.0860   15.1730   14.9220 C.2       1 TT1568      0.0000 
     16 C16        13.5490   15.2750   14.8180 C.2       1 TT1568      0.0000 
     17 C15        14.1670   14.1330   15.1310 C.2       1 TT1568      0.0000 
     18 S14        13.0350   12.8280   15.5810 S.3       1 TT1568      0.0000 
     19 N11         9.7470   13.0840   16.6020 N.pl3     1 TT1568      0.0000 
     20 C1         10.3890   12.7680   17.8950 C.3       1 TT1568      0.0000 
     21 C2         10.3440   13.9170   18.9050 C.ar      1 TT1568      0.0000 
     22 C7         10.6330   15.2780   18.5230 C.ar      1 TT1568      0.0000 
     23 C6         10.5890   16.3380   19.5030 C.ar      1 TT1568      0.0000 
     24 C5         10.2520   16.0210   20.8820 C.ar      1 TT1568      0.0000 
     25 C4          9.9620   14.6600   21.2710 C.ar      1 TT1568      0.0000 
     26 C3         10.0060   13.6110   20.2900 C.ar      1 TT1568      0.0000 
     27 H           5.7701    9.3610   17.7509 H         1 TT1568      0.0000 
     28 H           6.0243    7.0056   17.1439 H         1 TT1568      0.0000 
     29 H           6.6173    6.3584   14.8229 H         1 TT1568      0.0000 
     30 H           6.9346    8.1062   13.1575 H         1 TT1568      0.0000 
     31 H           5.1171   11.9028   16.6747 H         1 TT1568      0.0000 
     32 H           6.2215   12.3399   15.3597 H         1 TT1568      0.0000 
     33 H          11.5320   15.9487   14.7154 H         1 TT1568      0.0000 
     34 H          13.9567   16.1172   14.5439 H         1 TT1568      0.0000 
     35 H          15.0540   13.8265   15.1788 H         1 TT1568      0.0000 
     36 H          11.4493   12.4916   17.7367 H         1 TT1568      0.0000 
     37 H           9.9035   11.8864   18.3563 H         1 TT1568      0.0000 
     38 H          10.8686   15.4923   17.5605 H         1 TT1568      0.0000 
     39 H          10.7884   17.2861   19.2395 H         1 TT1568      0.0000 
     40 H          10.2215   16.7618   21.5707 H         1 TT1568      0.0000 
     41 H           9.7292   14.4500   22.2315 H         1 TT1568      0.0000 
     42 H           9.8037   12.6561   20.5513 H         1 TT1568      0.0000 
@<TRIPOS>BOND
     1    2    1 ar   
     2    7    1 ar   
     3   27    1 1    
     4    3    2 ar   
     5   28    2 1    
     6    4    3 ar   
     7   29    3 1    
     8    5    4 ar   
     9   30    4 1    
    10    6    5 1    
    11    7    5 ar   
    12    8    7 1    
    13    9    8 1    
    14   31    8 1    
    15   32    8 1    
    16   10    9 1    
    17   11   10 2    
    18   19   10 1    
    19   12   11 1    
    20   13   12 2    
    21   14   13 1    
    22   19   13 1    
    23   15   14 2    
    24   18   14 1    
    25   16   15 1    
    26   33   15 1    
    27   17   16 2    
    28   34   16 1    
    29   18   17 1    
    30   35   17 1    
    31   20   19 1    
    32   21   20 1    
    33   36   20 1    
    34   37   20 1    
    35   22   21 ar   
    36   26   21 ar   
    37   23   22 ar   
    38   38   22 1    
    39   24   23 ar   
    40   39   23 1    
    41   25   24 ar   
    42   40   24 1    
    43   26   25 ar   
    44   41   25 1    
    45   42   26 1    
@<TRIPOS>SUBSTRUCTURE
     1 TT1568      1 GROUP   
@<TRIPOS>SET

