#    Name: 3zk5_Z18_1_INTS_M
#    Modification time : Tue Mar 25 03:28:57 2014

@<TRIPOS>MOLECULE
3zk5_Z18_1_INTS_M
   74     0    12     0     0
SMALL
NO_CHARGES


@<TRIPOS>ATOM
      1 OD1       -19.7050   -5.9615   13.0235 O.co2     3 ASC3        0.0000 
      2 OD1       -19.3930   -7.1490   12.4270 O.co2    11 ASL3        0.0000 
      3 OD1       -20.0170   -4.7740   13.6200 O.co2     7 ASP3        0.0000 
      4 OD1       -20.6080   -6.6140   12.9465 O.co2     3 ASC3        0.0000 
      5 OD1       -21.8230   -6.0790   13.4660 O.co2     7 ASP3        0.0000 
      6 O         -19.7050   -5.9615   13.0235 O.2       1 ALC1        0.0000 
      7 O         -19.3930   -7.1490   12.4270 O.2       9 ALL1        0.0000 
      8 O         -20.0170   -4.7740   13.6200 O.2       5 ALP1        0.0000 
      9 O         -20.6080   -6.6140   12.9465 O.2       1 ALC1        0.0000 
     10 O         -21.8230   -6.0790   13.4660 O.2       5 ALP1        0.0000 
     11 CA        -22.4835   -6.1835    2.2480 C.3       4 GLC5        0.0000 
     12 CA        -22.8360   -4.9420    3.8390 C.3      12 GLL5        0.0000 
     13 CA        -22.1310   -7.4250    0.6570 C.3       8 GLP5        0.0000 
     14 CA        -25.9400   -3.6330    7.0730 C.3       4 GLC5        0.0000 
     15 CA        -25.5710   -3.7760    4.9350 C.3      12 GLL5        0.0000 
     16 CA        -26.3090   -3.4900    9.2110 C.3       8 GLP5        0.0000 
     17 CA        -26.0490   -5.5860    6.0245 C.3       4 GLC5        0.0000 
     18 CA        -26.5270   -7.3960    7.1140 C.3       8 GLP5        0.0000 
     19 N         -17.9560   -4.7475    9.3810 N.am      2 SEC2        0.0000 
     20 N         -19.2930   -5.1150   10.2760 N.am     10 SEL2        0.0000 
     21 N         -16.6190   -4.3800    8.4860 N.am      6 SEP2        0.0000 
     22 CA        -23.3695   -0.0240    6.1850 C.3       4 GLC5        0.0000 
     23 CA        -24.8960   -0.9260    5.8350 C.3      12 GLL5        0.0000 
     24 CA        -21.8430    0.8780    6.5350 C.3       8 GLP5        0.0000 
     25 CA        -25.3290   -0.7670    8.4595 C.3       4 GLC5        0.0000 
     26 CA        -26.1730   -1.2520    6.5450 C.3      12 GLL5        0.0000 
     27 CA        -24.4850   -0.2820   10.3740 C.3       8 GLP5        0.0000 
     28 CA        -27.4805   -1.0845    4.9580 C.3       4 GLC5        0.0000 
     29 CA        -28.7880   -0.9170    3.3710 C.3       8 GLP5        0.0000 
     30 CA        -23.2760   -1.8715   10.2595 C.3       4 GLC5        0.0000 
     31 CA        -22.0670   -3.4610   10.1450 C.3      12 GLL5        0.0000 
     32 CA        -22.0930   -3.6930   12.2735 C.3       4 GLC5        0.0000 
     33 CA        -22.1190   -3.9250   14.4020 C.3       8 GLP5        0.0000 
     34 CA        -16.7605   -8.6665   12.7320 C.3       4 GLC5        0.0000 
     35 CA        -17.9350   -6.9760   12.4340 C.3      12 GLL5        0.0000 
     36 CA        -15.5860  -10.3570   13.0300 C.3       8 GLP5        0.0000 
     37 CA        -16.1380   -6.2790   12.3265 C.3       4 GLC5        0.0000 
     38 CA        -14.3410   -5.5820   12.2190 C.3       8 GLP5        0.0000 
     39 CA        -17.5690   -5.9505   14.0965 C.3       4 GLC5        0.0000 
     40 CA        -17.2030   -4.9250   15.7590 C.3       8 GLP5        0.0000 
     41 CA        -21.2905   -9.1205   13.9855 C.3       4 GLC5        0.0000 
     42 CA        -19.7270   -8.3080   13.2610 C.3      12 GLL5        0.0000 
     43 CA        -22.8540   -9.9330   14.7100 C.3       8 GLP5        0.0000 
     44 CA        -19.3145   -9.0525   14.6905 C.3       4 GLC5        0.0000 
     45 CA        -18.9020   -9.7970   16.1200 C.3       8 GLP5        0.0000 
     46 CA        -18.3195   -9.7005   13.2260 C.3       4 GLC5        0.0000 
     47 CA        -16.9120  -11.0930   13.1910 C.3       8 GLP5        0.0000 
     48 CA        -18.7700   -7.2465   14.8810 C.3       4 GLC5        0.0000 
     49 CA        -17.8130   -6.1850   16.5010 C.3       8 GLP5        0.0000 
     50 CA        -18.4145   -6.3065    5.3885 C.3       4 GLC5        0.0000 
     51 CA        -19.7600   -5.8350    6.4520 C.3      12 GLL5        0.0000 
     52 CA        -17.0690   -6.7780    4.3250 C.3       8 GLP5        0.0000 
     53 CA        -22.8255   -7.6045    2.7675 C.3       4 GLC5        0.0000 
     54 CA        -23.5200   -7.7840    4.8780 C.3      12 GLL5        0.0000 
     55 CA        -25.0235   -7.5900    5.9960 C.3       4 GLC5        0.0000 
     56 CA        -21.1603   -3.8137    4.3365 C.3       4 GLC5        0.0000 
     57 CA        -23.2150   -4.2530    4.8830 C.3      12 GLL5        0.0000 
     58 CA        -19.2950   -3.0300    4.3120 C.3       8 GLP5        0.0000 
     59 CA        -24.5407   -4.9817    2.9815 C.3       4 GLC5        0.0000 
     60 CA        -26.0560   -5.3660    1.6020 C.3       8 GLP5        0.0000 
     61 CA        -22.7477   -1.0830    5.2338 C.3       4 GLC5        0.0000 
     62 CA        -24.1910   -3.1230    4.8120 C.3      12 GLL5        0.0000 
     63 CA        -21.4530    0.4310    5.1130 C.3       8 GLP5        0.0000 
     64 CA        -25.4685   -4.4078    3.2378 C.3       4 GLC5        0.0000 
     65 CA        -24.5521   -1.0498    3.7759 C.3       4 GLC5        0.0000 
     66 CA        -23.8940   -2.0710    5.8970 C.3      12 GLL5        0.0000 
     67 CA        -24.6350   -0.3380    1.9570 C.3       8 GLP5        0.0000 
     68 CA        -25.7965   -2.4326    7.7082 C.3       4 GLC5        0.0000 
     69 CA        -21.0953   -2.1620    9.9270 C.3       4 GLC5        0.0000 
     70 CA        -22.2560   -3.9650    8.7310 C.3      12 GLL5        0.0000 
     71 CA        -20.0290   -0.6110   10.4160 C.3       8 GLP5        0.0000 
     72 CA        -24.2353   -3.6015    9.3245 C.3       4 GLC5        0.0000 
     73 CA        -19.8728   -4.3175    5.4885 C.3       4 GLC5        0.0000 
     74 CA        -21.1410   -5.3750    6.8780 C.3      12 GLL5        0.0000 
@<TRIPOS>BOND
@<TRIPOS>SUBSTRUCTURE
     1 ALC1        6 GROUP        1 X    ALC  0     ROOT ALC X 1
     2 SEC2       19 GROUP        1 X    SEC  0     **** SEC X 2
     3 ASC3        1 GROUP        1 X    ASC  0     **** ASC X 3
     4 GLC5       11 GROUP        1 X    GLC  0     **** GLC X 6
     5 ALP1        8 GROUP        1 Y    ALP  0     ROOT ALP Y 8
     6 SEP2       21 GROUP        1 Y    SEP  0     **** SEP Y 9
     7 ASP3        3 GROUP        1 Y    ASP  0     **** ASP Y 10
     8 GLP5       13 GROUP        1 Y    GLP  0     **** GLP Y 13
     9 ALL1        7 GROUP        1 Z    ALL  0     ROOT ALL Z 15
    10 SEL2       20 GROUP        1 Z    SEL  0     **** SEL Z 16
    11 ASL3        2 GROUP        1 Z    ASL  0     **** ASL Z 17
    12 GLL5       12 GROUP        1 Z    GLL  0     **** GLL Z 20
@<TRIPOS>SET

