#    Name: 3zk5_Z18_1_ligand
#    Modification time : Tue Mar 25 03:28:57 2014

@<TRIPOS>MOLECULE
3zk5_Z18_1_ligand
   63    63     1     0     0
SMALL
NO_CHARGES


@<TRIPOS>ATOM
      1 N         -19.3930   -7.1490   12.4270 N.4       1 Z181408     0.0000 
      2 C1        -22.8360   -4.9420    3.8390 C.2       1 Z181408     0.0000 
      3 O1        -23.8300   -2.6000    7.2480 O.3       1 Z181408     0.0000 
      4 C2        -23.2150   -4.2530    4.8830 C.2       1 Z181408     0.0000 
      5 O2        -21.5430   -2.0670    7.3740 O.2       1 Z181408     0.0000 
      6 C3        -24.1910   -3.1230    4.8120 C.3       1 Z181408     0.0000 
      7 O3        -21.0760   -6.0310    9.2060 O.3       1 Z181408     0.0000 
      8 C4        -25.5710   -3.7760    4.9350 C.3       1 Z181408     0.0000 
      9 O4        -19.2930   -5.1150   10.2760 O.2       1 Z181408     0.0000 
     10 C5        -23.8940   -2.0710    5.8970 C.3       1 Z181408     0.0000 
     11 O5        -20.7940   -6.0040    3.5390 O.2       1 Z181408     0.0000 
     12 C6        -24.8960   -0.9260    5.8350 C.3       1 Z181408     0.0000 
     13 C7        -26.1730   -1.2520    6.5450 C.3       1 Z181408     0.0000 
     14 C8        -22.4670   -2.8080    7.7580 C.2       1 Z181408     0.0000 
     15 C9        -22.2560   -3.9650    8.7310 C.3       1 Z181408     0.0000 
     16 C10       -22.0670   -3.4610   10.1450 C.3       1 Z181408     0.0000 
     17 C11       -21.0840   -4.8680    8.3340 C.3       1 Z181408     0.0000 
     18 C12       -20.0630   -6.0740   10.2180 C.2       1 Z181408     0.0000 
     19 C13       -19.9830   -7.3290   11.0960 C.3       1 Z181408     0.0000 
     20 C14       -17.9350   -6.9760   12.4340 C.3       1 Z181408     0.0000 
     21 C15       -19.7270   -8.3080   13.2610 C.3       1 Z181408     0.0000 
     22 C16       -21.1410   -5.3750    6.8780 C.3       1 Z181408     0.0000 
     23 C17       -19.7600   -5.8350    6.4520 C.3       1 Z181408     0.0000 
     24 C18       -22.1030   -6.5610    6.6540 C.3       1 Z181408     0.0000 
     25 C19       -22.1790   -7.0780    5.1890 C.3       1 Z181408     0.0000 
     26 C20       -23.5200   -7.7840    4.8780 C.3       1 Z181408     0.0000 
     27 C21       -21.8690   -6.0090    4.1350 C.2       1 Z181408     0.0000 
     28 H         -19.8528   -6.2641   12.9013 H         1 Z181408     0.0000 
     29 H         -23.1262   -4.8210    2.8971 H         1 Z181408     0.0000 
     30 H         -22.8603   -4.4428    5.8550 H         1 Z181408     0.0000 
     31 H         -24.1180   -2.6681    3.8374 H         1 Z181408     0.0000 
     32 H         -22.9042   -1.6226    5.6396 H         1 Z181408     0.0000 
     33 H         -25.1051   -0.6966    4.7810 H         1 Z181408     0.0000 
     34 H         -24.4394   -0.0327    6.2831 H         1 Z181408     0.0000 
     35 H         -23.1670   -4.5850    8.7199 H         1 Z181408     0.0000 
     36 H         -20.1609   -4.3165    8.4626 H         1 Z181408     0.0000 
     37 H         -21.0178   -7.7429   11.1866 H         1 Z181408     0.0000 
     38 H         -19.4142   -8.1038   10.5246 H         1 Z181408     0.0000 
     39 H         -21.4373   -4.5648    6.2305 H         1 Z181408     0.0000 
     40 H         -23.1160   -6.2635    6.9712 H         1 Z181408     0.0000 
     41 H         -21.7953   -7.3974    7.3028 H         1 Z181408     0.0000 
     42 H         -21.3878   -7.8658    5.0890 H         1 Z181408     0.0000 
     43 H         -25.7377   -4.4333    4.2000 H         1 Z181408     0.0000 
     44 H         -25.6725   -4.2700    5.7985 H         1 Z181408     0.0000 
     45 H         -26.3067   -3.0998    4.8959 H         1 Z181408     0.0000 
     46 H         -26.0191   -1.4540    7.5122 H         1 Z181408     0.0000 
     47 H         -26.8246   -0.4946    6.5039 H         1 Z181408     0.0000 
     48 H         -26.6258   -2.0500    6.1473 H         1 Z181408     0.0000 
     49 H         -21.9286   -4.2114   10.7914 H         1 Z181408     0.0000 
     50 H         -21.2728   -2.8582   10.2214 H         1 Z181408     0.0000 
     51 H         -22.8604   -2.9423   10.4636 H         1 Z181408     0.0000 
     52 H         -17.4653   -7.7665   12.0408 H         1 Z181408     0.0000 
     53 H         -17.6535   -6.1751   11.9055 H         1 Z181408     0.0000 
     54 H         -17.5798   -6.8552   13.3609 H         1 Z181408     0.0000 
     55 H         -19.3782   -9.1597   12.8701 H         1 Z181408     0.0000 
     56 H         -19.3412   -8.2277   14.1801 H         1 Z181408     0.0000 
     57 H         -20.7154   -8.4171   13.3665 H         1 Z181408     0.0000 
     58 H         -19.0908   -5.0933    6.4982 H         1 Z181408     0.0000 
     59 H         -19.4191   -6.5740    7.0330 H         1 Z181408     0.0000 
     60 H         -19.7556   -6.1756    5.5118 H         1 Z181408     0.0000 
     61 H         -23.5581   -8.1094    3.9332 H         1 Z181408     0.0000 
     62 H         -23.6671   -8.5782    5.4676 H         1 Z181408     0.0000 
     63 H         -24.3006   -7.1729    5.0092 H         1 Z181408     0.0000 
@<TRIPOS>BOND
     1   19    1 1    
     2   20    1 1    
     3   21    1 1    
     4   28    1 1    
     5    4    2 2    
     6   27    2 1    
     7   29    2 1    
     8   10    3 1    
     9   14    3 1    
    10    6    4 1    
    11   30    4 1    
    12   14    5 2    
    13    8    6 1    
    14   10    6 1    
    15   31    6 1    
    16   17    7 1    
    17   18    7 1    
    18   43    8 1    
    19   44    8 1    
    20   45    8 1    
    21   18    9 2    
    22   12   10 1    
    23   32   10 1    
    24   27   11 2    
    25   13   12 1    
    26   33   12 1    
    27   34   12 1    
    28   46   13 1    
    29   47   13 1    
    30   48   13 1    
    31   15   14 1    
    32   16   15 1    
    33   17   15 1    
    34   35   15 1    
    35   49   16 1    
    36   50   16 1    
    37   51   16 1    
    38   22   17 1    
    39   36   17 1    
    40   19   18 1    
    41   37   19 1    
    42   38   19 1    
    43   52   20 1    
    44   53   20 1    
    45   54   20 1    
    46   55   21 1    
    47   56   21 1    
    48   57   21 1    
    49   23   22 1    
    50   24   22 1    
    51   39   22 1    
    52   58   23 1    
    53   59   23 1    
    54   60   23 1    
    55   25   24 1    
    56   40   24 1    
    57   41   24 1    
    58   26   25 1    
    59   27   25 1    
    60   42   25 1    
    61   61   26 1    
    62   62   26 1    
    63   63   26 1    
@<TRIPOS>SUBSTRUCTURE
     1 Z181408     1 GROUP   
@<TRIPOS>SET

