#    Name: 3e6t_1A2_2_INTS_M
#    Modification time : Tue Mar 25 01:01:03 2014

@<TRIPOS>MOLECULE
3e6t_1A2_2_INTS_M
   52     0     9     0     0
SMALL
NO_CHARGES


@<TRIPOS>ATOM
      1 O         127.9515  117.6905   92.9985 O.2       1 ALC1        0.0000 
      2 O         127.4590  116.5620   92.8660 O.2       7 ALL1        0.0000 
      3 O         128.4440  118.8190   93.1310 O.2       4 ALP1        0.0000 
      4 CA        124.1100  111.9760   95.0110 C.3       3 GLC5        0.0000 
      5 CA        125.8980  112.9570   95.5300 C.3       9 GLL5        0.0000 
      6 CA        122.3220  110.9950   94.4920 C.3       6 GLP5        0.0000 
      7 CA        123.5475  116.1200   96.4940 C.3       3 GLC5        0.0000 
      8 CA        125.0670  115.0570   95.9170 C.3       9 GLL5        0.0000 
      9 CA        122.0280  117.1830   97.0710 C.3       6 GLP5        0.0000 
     10 CA        127.9625  110.0825   93.6775 C.3       3 GLC5        0.0000 
     11 CA        128.6220  111.8180   93.5320 C.3       9 GLL5        0.0000 
     12 CA        127.3030  108.3470   93.8230 C.3       6 GLP5        0.0000 
     13 CA        125.2480  118.0210   90.4080 C.3       3 GLC5        0.0000 
     14 CA        126.2450  116.0940   90.0940 C.3       9 GLL5        0.0000 
     15 CA        124.2510  119.9480   90.7220 C.3       6 GLP5        0.0000 
     16 CA        126.7275  118.8765   90.8475 C.3       3 GLC5        0.0000 
     17 CA        128.1600  117.4460   90.1290 C.3       9 GLL5        0.0000 
     18 CA        125.2950  120.3070   91.5660 C.3       6 GLP5        0.0000 
     19 N         125.0605  117.8385   86.7125 N.am      2 SEC2        0.0000 
     20 N         125.7420  117.1050   87.5700 N.am      8 SEL2        0.0000 
     21 N         124.3790  118.5720   85.8550 N.am      5 SEP2        0.0000 
     22 O         125.4185  117.4085   95.9910 O.2       1 ALC1        0.0000 
     23 O         126.4780  117.1080   94.9370 O.2       7 ALL1        0.0000 
     24 O         124.3590  117.7090   97.0450 O.2       4 ALP1        0.0000 
     25 O         127.4610  117.9635   94.0340 O.2       1 ALC1        0.0000 
     26 O         126.8830  118.3225   94.8945 O.2       1 ALC1        0.0000 
     27 O         127.2880  119.5370   94.8520 O.2       4 ALP1        0.0000 
     28 CA        131.4975  119.1145   82.4860 C.3       3 GLC5        0.0000 
     29 CA        131.2830  118.6620   84.6290 C.3       9 GLL5        0.0000 
     30 CA        131.7120  119.5670   80.3430 C.3       6 GLP5        0.0000 
     31 CA        131.4925  120.5620   83.6230 C.3       3 GLC5        0.0000 
     32 CA        131.7020  122.4620   82.6170 C.3       6 GLP5        0.0000 
     33 CA        128.8587  112.0560   91.4655 C.3       3 GLC5        0.0000 
     34 CA        129.9920  113.1090   91.0680 C.3       9 GLL5        0.0000 
     35 CA        127.7260  110.5730   91.2030 C.3       6 GLP5        0.0000 
     36 CA        125.2645  116.0832   93.3515 C.3       3 GLC5        0.0000 
     37 CA        126.9130  114.8510   94.4290 C.3       9 GLL5        0.0000 
     38 CA        123.6070  116.6360   92.4460 C.3       6 GLP5        0.0000 
     39 CA        124.1298  115.5943   94.6355 C.3       3 GLC5        0.0000 
     40 CA        125.9420  114.3000   95.3110 C.3       9 GLL5        0.0000 
     41 CA        122.7550  116.5100   93.6570 C.3       6 GLP5        0.0000 
     42 CA        124.0662  113.8959   96.5029 C.3       3 GLC5        0.0000 
     43 CA        122.6390  113.4490   97.3370 C.3       6 GLP5        0.0000 
     44 CA        127.9096  111.5367   92.5160 C.3       3 GLC5        0.0000 
     45 CA        127.7600  112.6180   94.0700 C.3       9 GLL5        0.0000 
     46 CA        125.0775  116.0970   91.4952 C.3       3 GLC5        0.0000 
     47 CA        126.8510  115.0220   90.9950 C.3       9 GLL5        0.0000 
     48 CA        127.3255  115.6633   86.4772 C.3       3 GLC5        0.0000 
     49 CA        128.0210  117.5580   87.0500 C.3       9 GLL5        0.0000 
     50 CA        126.0000  114.1000   85.8740 C.3       6 GLP5        0.0000 
     51 CA        126.8957  117.5553   84.9920 C.3       3 GLC5        0.0000 
     52 CA        125.8630  117.0000   83.3980 C.3       6 GLP5        0.0000 
@<TRIPOS>BOND
@<TRIPOS>SUBSTRUCTURE
     1 ALC1        1 GROUP        1 X    ALC  0     ROOT ALC X 1
     2 SEC2       19 GROUP        1 X    SEC  0     **** SEC X 2
     3 GLC5        4 GROUP        1 X    GLC  0     **** GLC X 6
     4 ALP1        3 GROUP        1 Y    ALP  0     ROOT ALP Y 8
     5 SEP2       21 GROUP        1 Y    SEP  0     **** SEP Y 9
     6 GLP5        6 GROUP        1 Y    GLP  0     **** GLP Y 13
     7 ALL1        2 GROUP        1 Z    ALL  0     ROOT ALL Z 15
     8 SEL2       20 GROUP        1 Z    SEL  0     **** SEL Z 16
     9 GLL5        5 GROUP        1 Z    GLL  0     **** GLL Z 20
@<TRIPOS>SET

