#    Name: 3e6t_1A2_2_ligand
#    Modification time : Tue Mar 25 01:01:03 2014

@<TRIPOS>MOLECULE
3e6t_1A2_2_ligand
   53    56     1     0     0
SMALL
NO_CHARGES


@<TRIPOS>ATOM
      1 C8        129.9910  113.9690   92.3880 C.3       1 1A2905      0.0000 
      2 C5        126.9310  116.2100   94.0850 C.2       1 1A2905      0.0000 
      3 N6        127.4590  116.5620   92.8660 N.pl3     1 1A2905      0.0000 
      4 C2        126.8060  112.1150   94.9240 C.ar      1 1A2905      0.0000 
      5 C4        125.9420  114.3000   95.3110 C.ar      1 1A2905      0.0000 
      6 C1        127.7600  112.6180   94.0700 C.ar      1 1A2905      0.0000 
      7 C3        125.8980  112.9570   95.5300 C.ar      1 1A2905      0.0000 
      8 C4A       126.9130  114.8510   94.4290 C.ar      1 1A2905      0.0000 
      9 C7        128.0140  115.6210   91.8490 C.3       1 1A2905      0.0000 
     10 N8        128.6240  114.5180   92.7150 N.3       1 1A2905      0.0000 
     11 C8A       127.8460  113.9990   93.7550 C.ar      1 1A2905      0.0000 
     12 F9        125.0670  115.0570   95.9170 F         1 1A2905      0.0000 
     13 F10       128.6220  111.8180   93.5320 F         1 1A2905      0.0000 
     14 C11       126.8510  115.0220   90.9950 C.3       1 1A2905      0.0000 
     15 C12       126.2450  116.0940   90.0940 C.3       1 1A2905      0.0000 
     16 N13       127.3480  116.5830   89.2060 N.am      1 1A2905      0.0000 
     17 C14       128.1600  117.4460   90.1290 C.3       1 1A2905      0.0000 
     18 C15       129.0110  116.4300   90.9330 C.3       1 1A2905      0.0000 
     19 C16       126.9690  117.0880   87.9380 C.2       1 1A2905      0.0000 
     20 O17       125.7420  117.1050   87.5700 O.2       1 1A2905      0.0000 
     21 N18       126.4780  117.1080   94.9370 N.pl3     1 1A2905      0.0000 
     22 C19       128.0210  117.5580   87.0500 C.2       1 1A2905      0.0000 
     23 C20       127.8360  118.6630   86.1220 C.2       1 1A2905      0.0000 
     24 N21       128.9590  119.0340   85.2990 N.2       1 1A2905      0.0000 
     25 C22       130.2080  118.3340   85.4010 C.2       1 1A2905      0.0000 
     26 C23       130.3590  117.2800   86.2980 C.3       1 1A2905      0.0000 
     27 C24       129.2810  116.8950   87.1110 C.3       1 1A2905      0.0000 
     28 C25       131.2830  118.6620   84.6290 C.1       1 1A2905      0.0000 
     29 N26       132.3740  118.9390   83.8980 N.1       1 1A2905      0.0000 
     30 C13       129.9920  113.1090   91.0680 C.3       1 1A2905      0.0000 
     31 H         130.3475  113.3307   93.2000 H         1 1A2905      0.0000 
     32 H         130.7050  114.7850   92.2528 H         1 1A2905      0.0000 
     33 H         127.4958  117.5802   92.5806 H         1 1A2905      0.0000 
     34 H         126.7685  111.0976   95.1138 H         1 1A2905      0.0000 
     35 H         125.1748  112.5547   96.1597 H         1 1A2905      0.0000 
     36 H         126.0950  114.6357   91.6684 H         1 1A2905      0.0000 
     37 H         127.2493  114.2150   90.3915 H         1 1A2905      0.0000 
     38 H         125.8712  116.8977   90.7026 H         1 1A2905      0.0000 
     39 H         125.4574  115.6580   89.5060 H         1 1A2905      0.0000 
     40 H         127.5317  117.9744   90.8011 H         1 1A2905      0.0000 
     41 H         128.8105  118.0784   89.5789 H         1 1A2905      0.0000 
     42 H         129.4892  115.7520   90.2660 H         1 1A2905      0.0000 
     43 H         129.7014  116.9496   91.5547 H         1 1A2905      0.0000 
     44 H         126.0912  116.7518   95.7876 H         1 1A2905      0.0000 
     45 H         126.5624  118.0638   94.6553 H         1 1A2905      0.0000 
     46 H         126.9687  119.1380   86.0630 H         1 1A2905      0.0000 
     47 H         131.2743  117.4882   86.9740 H         1 1A2905      0.0000 
     48 H         130.7397  116.3495   85.7259 H         1 1A2905      0.0000 
     49 H         129.0941  115.7567   86.9694 H         1 1A2905      0.0000 
     50 H         129.6311  116.8923   88.2192 H         1 1A2905      0.0000 
     51 H         130.9024  112.7526   90.8576 H         1 1A2905      0.0000 
     52 H         129.3781  112.3226   91.1366 H         1 1A2905      0.0000 
     53 H         129.6963  113.6435   90.2763 H         1 1A2905      0.0000 
@<TRIPOS>BOND
     1   10    1 1    
     2   30    1 1    
     3   31    1 1    
     4   32    1 1    
     5    3    2 1    
     6    8    2 1    
     7   21    2 2    
     8    9    3 1    
     9   33    3 1    
    10    6    4 ar   
    11    7    4 ar   
    12   34    4 1    
    13    7    5 ar   
    14    8    5 ar   
    15   12    5 1    
    16   11    6 ar   
    17   13    6 1    
    18   35    7 1    
    19   11    8 ar   
    20   10    9 1    
    21   14    9 1    
    22   18    9 1    
    23   11   10 1    
    24   15   14 1    
    25   36   14 1    
    26   37   14 1    
    27   16   15 1    
    28   38   15 1    
    29   39   15 1    
    30   17   16 1    
    31   19   16 am   
    32   18   17 1    
    33   40   17 1    
    34   41   17 1    
    35   42   18 1    
    36   43   18 1    
    37   20   19 2    
    38   22   19 1    
    39   44   21 1    
    40   45   21 1    
    41   23   22 2    
    42   27   22 1    
    43   24   23 1    
    44   46   23 1    
    45   25   24 2    
    46   26   25 1    
    47   28   25 1    
    48   27   26 1    
    49   47   26 1    
    50   48   26 1    
    51   49   27 1    
    52   50   27 1    
    53   29   28 3    
    54   51   30 1    
    55   52   30 1    
    56   53   30 1    
@<TRIPOS>SUBSTRUCTURE
     1 1A2905      1 GROUP   
@<TRIPOS>SET

