#    Name: 2w8r_ADP_1_INTS_M
#    Modification time : Tue Mar 25 03:46:04 2014

@<TRIPOS>MOLECULE
2w8r_ADP_1_INTS_M
   49     0     9     0     0
SMALL
NO_CHARGES


@<TRIPOS>ATOM
      1 N          30.7205  -50.3260  -65.8560 N.am      2 SEC2        0.0000 
      2 N          32.1380  -50.0070  -64.9090 N.am      8 SEL2        0.0000 
      3 N          29.3030  -50.6450  -66.8030 N.am      5 SEP2        0.0000 
      4 N          32.2125  -50.5300  -66.1300 N.am      2 SEC2        0.0000 
      5 N          32.2870  -51.0530  -67.3510 N.am      5 SEP2        0.0000 
      6 N          32.8195  -51.1530  -64.6975 N.am      2 SEC2        0.0000 
      7 N          33.5010  -52.2990  -64.4860 N.am      5 SEP2        0.0000 
      8 CA         28.3215  -47.8700  -61.3635 C.3       3 GLC5        0.0000 
      9 CA         30.1730  -48.7670  -61.8800 C.3       9 GLL5        0.0000 
     10 CA         26.4700  -46.9730  -60.8470 C.3       6 GLP5        0.0000 
     11 CA         29.4340  -51.2275  -59.5635 C.3       3 GLC5        0.0000 
     12 CA         30.1400  -49.5860  -60.5540 C.3       9 GLL5        0.0000 
     13 CA         28.7280  -52.8690  -58.5730 C.3       6 GLP5        0.0000 
     14 CA         29.4485  -51.3165  -61.5400 C.3       3 GLC5        0.0000 
     15 CA         28.7570  -53.0470  -62.5260 C.3       6 GLP5        0.0000 
     16 CA         30.0115  -47.4750  -57.9925 C.3       3 GLC5        0.0000 
     17 CA         30.6520  -48.8330  -59.3450 C.3       9 GLL5        0.0000 
     18 CA         29.3710  -46.1170  -56.6400 C.3       6 GLP5        0.0000 
     19 N          30.7060  -49.8205  -57.1480 N.am      2 SEC2        0.0000 
     20 N          29.8800  -49.1760  -58.1850 N.am      8 SEL2        0.0000 
     21 N          31.5320  -50.4650  -56.1110 N.am      5 SEP2        0.0000 
     22 O          28.4990  -48.8640  -58.3885 O.2       1 ALC1        0.0000 
     23 O          29.8800  -49.1760  -58.1850 O.2       7 ALL1        0.0000 
     24 O          27.1180  -48.5520  -58.5920 O.2       4 ALP1        0.0000 
     25 N          32.1645  -49.8470  -57.0735 N.am      2 SEC2        0.0000 
     26 N          32.7970  -49.2290  -58.0360 N.am      8 SEL2        0.0000 
     27 N          33.1760  -47.8340  -57.3875 N.am      2 SEC2        0.0000 
     28 N          33.5550  -46.4390  -56.7390 N.am      5 SEP2        0.0000 
     29 CA         30.3330  -51.8270  -59.1250 C.3       3 GLC5        0.0000 
     30 CA         31.9380  -50.7850  -59.6770 C.3       9 GLL5        0.0000 
     31 CA         31.6095  -51.2395  -57.5175 C.3       3 GLC5        0.0000 
     32 CA         31.2810  -51.6940  -55.3580 C.3       6 GLP5        0.0000 
     33 CA         36.8320  -54.2285  -59.0500 C.3       3 GLC5        0.0000 
     34 CA         35.4970  -54.0450  -60.5470 C.3       9 GLL5        0.0000 
     35 CA         38.1670  -54.4120  -57.5530 C.3       6 GLP5        0.0000 
     36 CA         31.7945  -55.0410  -58.2420 C.3       3 GLC5        0.0000 
     37 CA         33.7940  -54.6570  -58.9710 C.3       9 GLL5        0.0000 
     38 CA         29.7950  -55.4250  -57.5130 C.3       6 GLP5        0.0000 
     39 CA         33.6720  -55.6035  -57.3900 C.3       3 GLC5        0.0000 
     40 CA         33.5500  -56.5500  -55.8090 C.3       6 GLP5        0.0000 
     41 CA         33.0790  -54.3065  -61.0535 C.3       3 GLC5        0.0000 
     42 CA         32.3640  -53.9560  -63.1360 C.3       6 GLP5        0.0000 
     43 CA         32.9125  -56.3330  -59.6725 C.3       3 GLC5        0.0000 
     44 CA         32.0310  -58.0090  -60.3740 C.3       6 GLP5        0.0000 
     45 CA         35.1225  -51.6875  -58.6962 C.3       3 GLC5        0.0000 
     46 CA         33.6560  -52.6840  -59.9200 C.3       9 GLL5        0.0000 
     47 CA         36.0170  -50.6210  -57.0910 C.3       6 GLP5        0.0000 
     48 CA         33.3831  -53.5076  -61.7018 C.3       3 GLC5        0.0000 
     49 CA         34.8000  -52.8240  -60.6830 C.3       9 GLL5        0.0000 
@<TRIPOS>BOND
@<TRIPOS>SUBSTRUCTURE
     1 ALC1       22 GROUP        1 X    ALC  0     ROOT ALC X 1
     2 SEC2        1 GROUP        1 X    SEC  0     **** SEC X 2
     3 GLC5        8 GROUP        1 X    GLC  0     **** GLC X 6
     4 ALP1       24 GROUP        1 Y    ALP  0     ROOT ALP Y 8
     5 SEP2        3 GROUP        1 Y    SEP  0     **** SEP Y 9
     6 GLP5       10 GROUP        1 Y    GLP  0     **** GLP Y 13
     7 ALL1       23 GROUP        1 Z    ALL  0     ROOT ALL Z 15
     8 SEL2        2 GROUP        1 Z    SEL  0     **** SEL Z 16
     9 GLL5        9 GROUP        1 Z    GLL  0     **** GLL Z 20
@<TRIPOS>SET

