#    Name: 2w8r_ADP_1_ligand
#    Modification time : Tue Mar 25 03:46:04 2014

@<TRIPOS>MOLECULE
2w8r_ADP_1_ligand
   39    41     1     0     0
SMALL
NO_CHARGES


@<TRIPOS>ATOM
      1 PB         30.7560  -46.2810  -64.8200 P.3       1 ADP702      0.0000 
      2 O1B        29.5560  -45.8730  -63.8880 O.co2     1 ADP702      0.0000 
      3 O2B        32.0000  -45.6700  -64.2880 O.co2     1 ADP702      0.0000 
      4 O3B        30.4610  -45.9960  -66.2370 O.co2     1 ADP702      0.0000 
      5 PA         31.7600  -48.9250  -63.9600 P.3       1 ADP702      0.0000 
      6 O1A        32.8750  -48.2210  -63.3030 O.co2     1 ADP702      0.0000 
      7 O2A        32.1380  -50.0070  -64.9090 O.co2     1 ADP702      0.0000 
      8 O3A        30.7910  -47.9100  -64.7500 O.3       1 ADP702      0.0000 
      9 O5'        30.7410  -49.5660  -62.9430 O.3       1 ADP702      0.0000 
     10 C5'        30.1730  -48.7670  -61.8800 C.3       1 ADP702      0.0000 
     11 C4'        30.1400  -49.5860  -60.5540 C.3       1 ADP702      0.0000 
     12 O4'        30.9720  -50.7480  -60.6930 O.3       1 ADP702      0.0000 
     13 C3'        30.6520  -48.8330  -59.3450 C.3       1 ADP702      0.0000 
     14 O3'        29.8800  -49.1760  -58.1850 O.3       1 ADP702      0.0000 
     15 C2'        32.1130  -49.3430  -59.2530 C.3       1 ADP702      0.0000 
     16 O2'        32.7970  -49.2290  -58.0360 O.3       1 ADP702      0.0000 
     17 C1'        31.9380  -50.7850  -59.6770 C.3       1 ADP702      0.0000 
     18 N9         33.1760  -51.4050  -60.2490 N.pl3     1 ADP702      0.0000 
     19 C8         34.0410  -50.8530  -61.1790 C.2       1 ADP702      0.0000 
     20 N7         35.0390  -51.6870  -61.4650 N.2       1 ADP702      0.0000 
     21 C5         34.8000  -52.8240  -60.6830 C.ar      1 ADP702      0.0000 
     22 C6         35.4970  -54.0450  -60.5470 C.ar      1 ADP702      0.0000 
     23 N6         36.5870  -54.3540  -61.1830 N.pl3     1 ADP702      0.0000 
     24 N1         34.9260  -54.9220  -59.6600 N.ar      1 ADP702      0.0000 
     25 C2         33.7940  -54.6570  -58.9710 C.ar      1 ADP702      0.0000 
     26 N3         33.0720  -53.5250  -59.0430 N.ar      1 ADP702      0.0000 
     27 C4         33.6560  -52.6840  -59.9200 C.ar      1 ADP702      0.0000 
     28 H          29.1462  -48.4677  -62.1018 H         1 ADP702      0.0000 
     29 H          30.7616  -47.8667  -61.6904 H         1 ADP702      0.0000 
     30 H          29.1175  -49.8865  -60.3699 H         1 ADP702      0.0000 
     31 H          30.6761  -47.8077  -59.5705 H         1 ADP702      0.0000 
     32 H          32.6413  -48.8647  -60.0969 H         1 ADP702      0.0000 
     33 H          31.5915  -51.3537  -58.8418 H         1 ADP702      0.0000 
     34 H          33.9099  -49.9591  -61.5611 H         1 ADP702      0.0000 
     35 H          36.9399  -53.6623  -61.8131 H         1 ADP702      0.0000 
     36 H          36.9724  -55.2550  -60.9837 H         1 ADP702      0.0000 
     37 H          33.4376  -55.4294  -58.2996 H         1 ADP702      0.0000 
     38 H          29.1374  -48.5068  -58.1614 H         1 ADP702      0.0000 
     39 H          33.6767  -49.6787  -58.1906 H         1 ADP702      0.0000 
@<TRIPOS>BOND
     1    2    1 ar   
     2    3    1 ar   
     3    4    1 ar   
     4    8    1 1    
     5    6    5 ar   
     6    7    5 ar   
     7    8    5 1    
     8    9    5 1    
     9   10    9 1    
    10   11   10 1    
    11   28   10 1    
    12   29   10 1    
    13   12   11 1    
    14   13   11 1    
    15   30   11 1    
    16   17   12 1    
    17   14   13 1    
    18   15   13 1    
    19   31   13 1    
    20   38   14 1    
    21   16   15 1    
    22   17   15 1    
    23   32   15 1    
    24   39   16 1    
    25   18   17 1    
    26   33   17 1    
    27   19   18 1    
    28   27   18 1    
    29   20   19 2    
    30   34   19 1    
    31   21   20 1    
    32   22   21 ar   
    33   27   21 ar   
    34   23   22 1    
    35   24   22 ar   
    36   35   23 1    
    37   36   23 1    
    38   25   24 ar   
    39   26   25 ar   
    40   37   25 1    
    41   27   26 ar   
@<TRIPOS>SUBSTRUCTURE
     1 ADP702      1 GROUP   
@<TRIPOS>SET

