#    Name: 4gv0_8ME_1_INTS_M
#    Modification time : Mon Mar 24 23:49:32 2014

@<TRIPOS>MOLECULE
4gv0_8ME_1_INTS_M
   51     0     9     0     0
SMALL
NO_CHARGES


@<TRIPOS>ATOM
      1 CA         23.8515   -0.6525   16.2390 C.3       3 GLC5        0.0000 
      2 CA         23.6940   -0.5520   14.2070 C.3       9 GLL5        0.0000 
      3 CA         24.0090   -0.7530   18.2710 C.3       6 GLP5        0.0000 
      4 CA         24.9640    0.8835   15.7005 C.3       3 GLC5        0.0000 
      5 CA         24.2810    0.5610   13.6220 C.3       9 GLL5        0.0000 
      6 CA         25.6470    1.2060   17.7790 C.3       6 GLP5        0.0000 
      7 CA         25.3540   -4.9070   15.8420 C.3       3 GLC5        0.0000 
      8 CA         24.3160   -3.9510   14.5360 C.3       9 GLL5        0.0000 
      9 CA         26.3920   -5.8630   17.1480 C.3       6 GLP5        0.0000 
     10 CA         26.2640   -3.5630   13.7790 C.3       3 GLC5        0.0000 
     11 CA         28.2120   -3.1750   13.0220 C.3       6 GLP5        0.0000 
     12 CA         18.4910   -6.1735   14.6070 C.3       3 GLC5        0.0000 
     13 CA         19.0390   -4.8870   13.3000 C.3       9 GLL5        0.0000 
     14 CA         17.9430   -7.4600   15.9140 C.3       6 GLP5        0.0000 
     15 CA         16.0340  -11.6005   11.5710 C.3       3 GLC5        0.0000 
     16 CA         17.2270  -10.1170   10.6190 C.3       9 GLL5        0.0000 
     17 CA         14.8410  -13.0840   12.5230 C.3       6 GLP5        0.0000 
     18 CA         15.3775   -7.6195    8.5690 C.3       3 GLC5        0.0000 
     19 CA         15.5910   -8.2960   10.5340 C.3       9 GLL5        0.0000 
     20 CA         15.1640   -6.9430    6.6040 C.3       6 GLP5        0.0000 
     21 CA         13.8765   -7.6355   11.7760 C.3       3 GLC5        0.0000 
     22 CA         12.1620   -6.9750   13.0180 C.3       6 GLP5        0.0000 
     23 N          14.3970   -4.4340   11.5785 N.am      2 SEC2        0.0000 
     24 N          14.8800   -5.6880   11.2010 N.am      8 SEL2        0.0000 
     25 N          13.9140   -3.1800   11.9560 N.am      5 SEP2        0.0000 
     26 N          13.6150   -6.0210   10.9660 N.am      2 SEC2        0.0000 
     27 N          12.3500   -6.3540   10.7310 N.am      5 SEP2        0.0000 
     28 O          16.6220   -4.2255   12.8490 O.2       1 ALC1        0.0000 
     29 O          16.9360   -5.3880   12.1860 O.2       7 ALL1        0.0000 
     30 O          16.3080   -3.0630   13.5120 O.2       4 ALP1        0.0000 
     31 CA         23.0442    1.2698   15.1408 C.3       3 GLC5        0.0000 
     32 CA         22.1010    2.5350   16.3670 C.3       6 GLP5        0.0000 
     33 CA         26.3920   -0.7475   13.3597 C.3       3 GLC5        0.0000 
     34 CA         24.9290    0.3610   12.4310 C.3       9 GLL5        0.0000 
     35 CA         27.8260   -1.2190   14.5770 C.3       6 GLP5        0.0000 
     36 CA         26.2300   -0.0150   10.5538 C.3       3 GLC5        0.0000 
     37 CA         27.5020    0.2460    8.9650 C.3       6 GLP5        0.0000 
     38 CA         25.8474   -1.0571   14.1656 C.3       3 GLC5        0.0000 
     39 CA         23.7500   -1.7950   13.5940 C.3       9 GLL5        0.0000 
     40 CA         18.5435   -8.2497    9.9320 C.3       3 GLC5        0.0000 
     41 CA         17.7020   -7.9110   11.5830 C.3       9 GLL5        0.0000 
     42 CA         19.2030   -7.9170    8.4180 C.3       6 GLP5        0.0000 
     43 CA         17.9020   -8.8920    9.4153 C.3       3 GLC5        0.0000 
     44 CA         16.5690  -11.6780    9.6433 C.3       3 GLC5        0.0000 
     45 CA         16.5370  -13.4890    8.8740 C.3       6 GLP5        0.0000 
     46 CA         13.8415   -9.1107    9.6780 C.3       3 GLC5        0.0000 
     47 CA         15.9750   -9.6170   10.2060 C.3       9 GLL5        0.0000 
     48 CA         11.9000   -9.2650    8.9860 C.3       6 GLP5        0.0000 
     49 CA         14.3135  -10.2533   11.1175 C.3       3 GLC5        0.0000 
     50 CA         12.8440  -11.5500   11.8650 C.3       6 GLP5        0.0000 
     51 CA         17.6052   -7.8960    9.6500 C.3       3 GLC5        0.0000 
@<TRIPOS>BOND
@<TRIPOS>SUBSTRUCTURE
     1 ALC1       28 GROUP        1 X    ALC  0     ROOT ALC X 1
     2 SEC2       23 GROUP        1 X    SEC  0     **** SEC X 2
     3 GLC5        1 GROUP        1 X    GLC  0     **** GLC X 6
     4 ALP1       30 GROUP        1 Y    ALP  0     ROOT ALP Y 8
     5 SEP2       25 GROUP        1 Y    SEP  0     **** SEP Y 9
     6 GLP5        3 GROUP        1 Y    GLP  0     **** GLP Y 13
     7 ALL1       29 GROUP        1 Z    ALL  0     ROOT ALL Z 15
     8 SEL2       24 GROUP        1 Z    SEL  0     **** SEL Z 16
     9 GLL5        2 GROUP        1 Z    GLL  0     **** GLL Z 20
@<TRIPOS>SET

