#    Name: 4gv0_8ME_1_ligand
#    Modification time : Mon Mar 24 23:49:32 2014

@<TRIPOS>MOLECULE
4gv0_8ME_1_ligand
   42    44     1     0     0
SMALL
NO_CHARGES


@<TRIPOS>ATOM
      1 CAI        23.6940   -0.5520   14.2070 C.ar      1 8ME601      0.0000 
      2 CAE        24.2810    0.5610   13.6220 C.ar      1 8ME601      0.0000 
      3 CAD        24.9290    0.3610   12.4310 C.ar      1 8ME601      0.0000 
      4 CAH        24.9870   -0.9130   11.8540 C.ar      1 8ME601      0.0000 
      5 NAN        24.4330   -1.9530   12.4260 N.ar      1 8ME601      0.0000 
      6 CAT        23.7500   -1.7950   13.5940 C.ar      1 8ME601      0.0000 
      7 CAX        23.1390   -3.0070   14.2610 C.3       1 8ME601      0.0000 
      8 CAA        24.3160   -3.9510   14.5360 C.3       1 8ME601      0.0000 
      9 NAP        22.2000   -3.6980   13.3710 N.am      1 8ME601      0.0000 
     10 CAR        20.9340   -3.3220   13.3180 C.2       1 8ME601      0.0000 
     11 OAB        20.5030   -2.4080   13.9990 O.2       1 8ME601      0.0000 
     12 CAL        19.9990   -4.1170   12.4010 C.3       1 8ME601      0.0000 
     13 CAM        19.0390   -4.8870   13.3000 C.3       1 8ME601      0.0000 
     14 CAS        18.1770   -5.8540   12.5560 C.2       1 8ME601      0.0000 
     15 NAO        18.5720   -7.1160   12.2680 N.2       1 8ME601      0.0000 
     16 CAV        17.7020   -7.9110   11.5830 C.ar      1 8ME601      0.0000 
     17 CAJ        18.0660   -9.2540   11.3090 C.ar      1 8ME601      0.0000 
     18 CAF        17.2270  -10.1170   10.6190 C.ar      1 8ME601      0.0000 
     19 CAG        15.9750   -9.6170   10.2060 C.ar      1 8ME601      0.0000 
     20 CAK        15.5910   -8.2960   10.5340 C.ar      1 8ME601      0.0000 
     21 CAW        16.4240   -7.4540   11.2300 C.ar      1 8ME601      0.0000 
     22 CAU        16.0190   -6.1480   11.5080 C.2       1 8ME601      0.0000 
     23 OAC        14.8800   -5.6880   11.2010 O.2       1 8ME601      0.0000 
     24 NAQ        16.9360   -5.3880   12.1860 N.am      1 8ME601      0.0000 
     25 H          23.2062   -0.4527   15.1161 H         1 8ME601      0.0000 
     26 H          24.2287    1.4696   14.0586 H         1 8ME601      0.0000 
     27 H          25.3844    1.1521   11.9429 H         1 8ME601      0.0000 
     28 H          25.4974   -0.9969   10.9374 H         1 8ME601      0.0000 
     29 H          22.7046   -2.7371   15.1786 H         1 8ME601      0.0000 
     30 H          22.5910   -4.4705   12.8117 H         1 8ME601      0.0000 
     31 H          20.5757   -4.8048   11.8128 H         1 8ME601      0.0000 
     32 H          19.4477   -3.4386   11.7785 H         1 8ME601      0.0000 
     33 H          18.4053   -4.1615   13.8392 H         1 8ME601      0.0000 
     34 H          19.6281   -5.4242   14.0636 H         1 8ME601      0.0000 
     35 H          18.9914   -9.5892   11.6404 H         1 8ME601      0.0000 
     36 H          17.4927  -11.0680   10.4152 H         1 8ME601      0.0000 
     37 H          15.3401  -10.2110    9.6666 H         1 8ME601      0.0000 
     38 H          14.6512   -7.9702   10.2330 H         1 8ME601      0.0000 
     39 H          16.6797   -4.3943   12.4384 H         1 8ME601      0.0000 
     40 H          24.7883   -4.2109   13.6937 H         1 8ME601      0.0000 
     41 H          24.9967   -3.5308   15.1360 H         1 8ME601      0.0000 
     42 H          24.0181   -4.7971   14.9780 H         1 8ME601      0.0000 
@<TRIPOS>BOND
     1    2    1 ar   
     2    6    1 ar   
     3   25    1 1    
     4    3    2 ar   
     5   26    2 1    
     6    4    3 ar   
     7   27    3 1    
     8    5    4 ar   
     9   28    4 1    
    10    6    5 ar   
    11    7    6 1    
    12    8    7 1    
    13    9    7 1    
    14   29    7 1    
    15   40    8 1    
    16   41    8 1    
    17   42    8 1    
    18   10    9 am   
    19   30    9 1    
    20   11   10 2    
    21   12   10 1    
    22   13   12 1    
    23   31   12 1    
    24   32   12 1    
    25   14   13 1    
    26   33   13 1    
    27   34   13 1    
    28   15   14 2    
    29   24   14 1    
    30   16   15 1    
    31   17   16 ar   
    32   21   16 ar   
    33   18   17 ar   
    34   35   17 1    
    35   19   18 ar   
    36   36   18 1    
    37   20   19 ar   
    38   37   19 1    
    39   21   20 ar   
    40   38   20 1    
    41   22   21 1    
    42   23   22 2    
    43   24   22 am   
    44   39   24 1    
@<TRIPOS>SUBSTRUCTURE
     1 8ME601      1 GROUP   
@<TRIPOS>SET

