#    Name: 2xsq_IMP_1_INTS_M
#    Modification time : Tue Mar 25 06:33:25 2014

@<TRIPOS>MOLECULE
2xsq_IMP_1_INTS_M
   40     0    12     0     0
SMALL
NO_CHARGES


@<TRIPOS>ATOM
      1 NZ         70.6400   33.5425   14.1180 N.4       3 LYC4        0.0000 
      2 NZ         70.7770   33.7870   15.5220 N.4      11 LYL4        0.0000 
      3 NZ         71.2670   32.3390   12.1940 N.4       7 LYP4        0.0000 
      4 N          70.6400   33.5425   14.1180 N.am      2 SEC2        0.0000 
      5 N          70.7770   33.7870   15.5220 N.am     10 SEL2        0.0000 
      6 N          70.5030   33.2980   12.7140 N.am      6 SEP2        0.0000 
      7 NZ         72.2595   31.7865   14.3825 N.4       3 LYC4        0.0000 
      8 NZ         72.4060   31.8910   15.7780 N.4      11 LYL4        0.0000 
      9 N          72.2595   31.7865   14.3825 N.am      2 SEC2        0.0000 
     10 N          72.4060   31.8910   15.7780 N.am     10 SEL2        0.0000 
     11 N          72.1130   31.6820   12.9870 N.am      6 SEP2        0.0000 
     12 CA         69.9680   33.1870   19.7405 C.3       4 GLC5        0.0000 
     13 CA         69.6960   32.1160   18.3210 C.3      12 GLL5        0.0000 
     14 CA         70.2400   34.2580   21.1600 C.3       8 GLP5        0.0000 
     15 CA         66.5170   32.0230   18.9175 C.3       4 GLC5        0.0000 
     16 CA         68.4430   31.2650   18.4600 C.3      12 GLL5        0.0000 
     17 CA         64.5910   32.7810   19.3750 C.3       8 GLP5        0.0000 
     18 CA         69.0145   32.2435   20.1325 C.3       4 GLC5        0.0000 
     19 CA         69.5860   33.2220   21.8050 C.3       8 GLP5        0.0000 
     20 CA         67.1810   30.7560   20.1995 C.3       4 GLC5        0.0000 
     21 CA         65.9190   30.2470   21.9390 C.3       8 GLP5        0.0000 
     22 CA         68.7360   29.4840   14.6770 C.3       4 GLC5        0.0000 
     23 CA         68.2310   29.6680   16.7000 C.3      12 GLL5        0.0000 
     24 CA         69.2410   29.3000   12.6540 C.3       8 GLP5        0.0000 
     25 CA         65.8450   31.7300   18.0160 C.3       4 GLC5        0.0000 
     26 CA         67.0990   30.6790   16.6570 C.3      12 GLL5        0.0000 
     27 CA         65.4420   33.8420   14.0255 C.3       4 GLC5        0.0000 
     28 CA         65.7770   32.0140   13.5510 C.3      12 GLL5        0.0000 
     29 CA         65.1070   35.6700   14.5000 C.3       8 GLP5        0.0000 
     30 N          64.9485   33.7210   10.5765 N.am      2 SEC2        0.0000 
     31 N          64.7000   32.8700   11.6980 N.am     10 SEL2        0.0000 
     32 N          65.1970   34.5720    9.4550 N.am      6 SEP2        0.0000 
     33 O          62.3000   31.1640   12.5955 O.2       1 ALC1        0.0000 
     34 O          63.5590   31.3860   13.0080 O.2       9 ALL1        0.0000 
     35 O          61.0410   30.9420   12.1830 O.2       5 ALP1        0.0000 
     36 CA         64.7580   33.2000   14.6565 C.3       4 GLC5        0.0000 
     37 CA         65.6630   31.2310   14.7030 C.3      12 GLL5        0.0000 
     38 CA         63.8530   35.1690   14.6100 C.3       8 GLP5        0.0000 
     39 CA         66.7235   31.0623   12.5685 C.3       4 GLC5        0.0000 
     40 CA         67.7270   30.5020   11.0100 C.3       8 GLP5        0.0000 
@<TRIPOS>BOND
@<TRIPOS>SUBSTRUCTURE
     1 ALC1       33 GROUP        1 X    ALC  0     ROOT ALC X 1
     2 SEC2        4 GROUP        1 X    SEC  0     **** SEC X 2
     3 LYC4        1 GROUP        1 X    LYC  0     **** LYC X 4
     4 GLC5       12 GROUP        1 X    GLC  0     **** GLC X 6
     5 ALP1       35 GROUP        1 Y    ALP  0     ROOT ALP Y 8
     6 SEP2        6 GROUP        1 Y    SEP  0     **** SEP Y 9
     7 LYP4        3 GROUP        1 Y    LYP  0     **** LYP Y 11
     8 GLP5       14 GROUP        1 Y    GLP  0     **** GLP Y 13
     9 ALL1       34 GROUP        1 Z    ALL  0     ROOT ALL Z 15
    10 SEL2        5 GROUP        1 Z    SEL  0     **** SEL Z 16
    11 LYL4        2 GROUP        1 Z    LYL  0     **** LYL Z 18
    12 GLL5       13 GROUP        1 Z    GLL  0     **** GLL Z 20
@<TRIPOS>SET

