#    Name: 2xsq_IMP_1_ligand
#    Modification time : Tue Mar 25 06:33:25 2014

@<TRIPOS>MOLECULE
2xsq_IMP_1_ligand
   34    36     1     0     0
SMALL
NO_CHARGES


@<TRIPOS>ATOM
      1 P          71.4300   32.8090   16.4800 P.3       1 IMP1183     0.0000 
      2 O1P        70.7770   33.7870   15.5220 O.co2     1 IMP1183     0.0000 
      3 O2P        72.0900   33.5950   17.5940 O.co2     1 IMP1183     0.0000 
      4 O3P        72.4060   31.8910   15.7780 O.co2     1 IMP1183     0.0000 
      5 O5'        70.3140   31.8320   17.0870 O.3       1 IMP1183     0.0000 
      6 C5'        69.6960   32.1160   18.3210 C.3       1 IMP1183     0.0000 
      7 C4'        68.4430   31.2650   18.4600 C.3       1 IMP1183     0.0000 
      8 O4'        67.4790   31.7290   17.5260 O.3       1 IMP1183     0.0000 
      9 C3'        68.6540   29.7870   18.1580 C.3       1 IMP1183     0.0000 
     10 O3'        67.8280   29.0180   19.0160 O.3       1 IMP1183     0.0000 
     11 C2'        68.2310   29.6680   16.7000 C.3       1 IMP1183     0.0000 
     12 O2'        67.7730   28.3970   16.3000 O.3       1 IMP1183     0.0000 
     13 C1'        67.0990   30.6790   16.6570 C.3       1 IMP1183     0.0000 
     14 N9         66.8420   31.3170   15.3570 N.pl3     1 IMP1183     0.0000 
     15 C8         67.6650   32.1600   14.6520 C.2       1 IMP1183     0.0000 
     16 N7         67.0140   32.5600   13.5420 N.2       1 IMP1183     0.0000 
     17 C5         65.7770   32.0140   13.5510 C.2       1 IMP1183     0.0000 
     18 C6         64.6940   32.1000   12.6860 C.2       1 IMP1183     0.0000 
     19 O6         64.7000   32.8700   11.6980 O.2       1 IMP1183     0.0000 
     20 N1         63.5590   31.3860   13.0080 N.am      1 IMP1183     0.0000 
     21 C2         63.4650   30.6150   14.1520 C.2       1 IMP1183     0.0000 
     22 N3         64.5350   30.5360   15.0130 N.2       1 IMP1183     0.0000 
     23 C4         65.6630   31.2310   14.7030 C.2       1 IMP1183     0.0000 
     24 H          69.3947   33.1677   18.4012 H         1 IMP1183     0.0000 
     25 H          70.3485   31.8893   19.1732 H         1 IMP1183     0.0000 
     26 H          68.0622   31.3579   19.4647 H         1 IMP1183     0.0000 
     27 H          69.6822   29.5773   18.2364 H         1 IMP1183     0.0000 
     28 H          69.0211   30.0675   16.0978 H         1 IMP1183     0.0000 
     29 H          66.2010   30.2139   17.0304 H         1 IMP1183     0.0000 
     30 H          68.5536   32.4131   14.9179 H         1 IMP1183     0.0000 
     31 H          62.7341   31.4284   12.3610 H         1 IMP1183     0.0000 
     32 H          62.5945   30.1023   14.3562 H         1 IMP1183     0.0000 
     33 H          68.4509   28.3852   19.4760 H         1 IMP1183     0.0000 
     34 H          67.5712   27.9147   17.1524 H         1 IMP1183     0.0000 
@<TRIPOS>BOND
     1    2    1 ar   
     2    3    1 ar   
     3    4    1 ar   
     4    5    1 1    
     5    6    5 1    
     6    7    6 1    
     7   24    6 1    
     8   25    6 1    
     9    8    7 1    
    10    9    7 1    
    11   26    7 1    
    12   13    8 1    
    13   10    9 1    
    14   11    9 1    
    15   27    9 1    
    16   33   10 1    
    17   12   11 1    
    18   13   11 1    
    19   28   11 1    
    20   34   12 1    
    21   14   13 1    
    22   29   13 1    
    23   15   14 1    
    24   23   14 1    
    25   16   15 2    
    26   30   15 1    
    27   17   16 1    
    28   18   17 1    
    29   23   17 2    
    30   19   18 2    
    31   20   18 am   
    32   21   20 1    
    33   31   20 1    
    34   22   21 2    
    35   32   21 1    
    36   23   22 1    
@<TRIPOS>SUBSTRUCTURE
     1 IMP1183     1 GROUP   
@<TRIPOS>SET

