#    Name: 3cos_NAD_4_INTS_M
#    Modification time : Mon Mar 24 22:05:17 2014

@<TRIPOS>MOLECULE
3cos_NAD_4_INTS_M
   94     0    12     0     0
SMALL
NO_CHARGES


@<TRIPOS>ATOM
      1 N         -14.6995   79.4215   96.6745 N.am      2 SEC2        0.0000 
      2 N         -15.3860   80.5470   96.7140 N.am     10 SEL2        0.0000 
      3 N         -14.0130   78.2960   96.6350 N.am      6 SEP2        0.0000 
      4 CA        -14.5425   85.4590   93.0875 C.3       4 GLC5        0.0000 
      5 CA        -15.3000   83.8570   93.8610 C.3      12 GLL5        0.0000 
      6 CA        -13.7850   87.0610   92.3140 C.3       8 GLP5        0.0000 
      7 N         -18.7550   84.4795   94.4805 N.am      2 SEC2        0.0000 
      8 N         -17.7030   84.3570   93.5590 N.am     10 SEL2        0.0000 
      9 N         -19.8070   84.6020   95.4020 N.am      6 SEP2        0.0000 
     10 O         -17.6180   85.3715   92.7230 O.2       1 ALC1        0.0000 
     11 O         -17.7030   84.3570   93.5590 O.2       9 ALL1        0.0000 
     12 O         -17.5330   86.3860   91.8870 O.2       5 ALP1        0.0000 
     13 O         -17.9665   84.7590   91.8845 O.2       1 ALC1        0.0000 
     14 O         -18.2300   85.1610   90.2100 O.2       5 ALP1        0.0000 
     15 O         -17.9750   84.0170   90.7450 O.2       1 ALC1        0.0000 
     16 O         -17.7200   82.8730   91.2800 O.2       9 ALL1        0.0000 
     17 CA        -14.6300   85.3685   91.9385 C.3       4 GLC5        0.0000 
     18 CA        -15.4750   83.6760   91.5630 C.3      12 GLL5        0.0000 
     19 CA        -13.3545   83.8775   91.4405 C.3       4 GLC5        0.0000 
     20 CA        -11.2340   84.0790   91.3180 C.3       8 GLP5        0.0000 
     21 CA        -14.9520   83.6145   86.2900 C.3       4 GLC5        0.0000 
     22 CA        -13.3880   83.7570   87.2030 C.3      12 GLL5        0.0000 
     23 CA        -16.5160   83.4720   85.3770 C.3       8 GLP5        0.0000 
     24 CA        -14.1140   87.7130   87.0645 C.3       4 GLC5        0.0000 
     25 CA        -14.0970   85.8330   87.9650 C.3      12 GLL5        0.0000 
     26 CA        -14.1310   89.5930   86.1640 C.3       8 GLP5        0.0000 
     27 CA        -15.6305   86.6610   88.2795 C.3       4 GLC5        0.0000 
     28 CA        -17.1640   87.4890   88.5940 C.3       8 GLP5        0.0000 
     29 CA        -15.3065   84.6525   86.6710 C.3       4 GLC5        0.0000 
     30 CA        -14.1175   85.5200   90.8165 C.3       4 GLC5        0.0000 
     31 CA        -14.4500   83.9790   89.3190 C.3      12 GLL5        0.0000 
     32 CA        -15.8070   85.7340   88.9565 C.3       4 GLC5        0.0000 
     33 NZ        -13.2845   82.6290  101.7270 N.4       3 LYC4        0.0000 
     34 NZ        -13.2160   82.0870  100.1930 N.4      11 LYL4        0.0000 
     35 NZ        -14.6720   83.0580  103.2030 N.4       7 LYP4        0.0000 
     36 N         -12.9690   80.5255  100.5795 N.am      2 SEC2        0.0000 
     37 N         -13.2160   82.0870  100.1930 N.am     10 SEL2        0.0000 
     38 N         -12.7220   78.9640  100.9660 N.am      6 SEP2        0.0000 
     39 N         -14.2375   82.5070  101.1040 N.am      2 SEC2        0.0000 
     40 N         -15.2590   82.9270  102.0150 N.am      6 SEP2        0.0000 
     41 N         -13.2845   82.6290  101.7270 N.am      2 SEC2        0.0000 
     42 N         -13.3530   83.1710  103.2610 N.am      6 SEP2        0.0000 
     43 N         -13.4370   85.5170   99.4940 N.am      2 SEC2        0.0000 
     44 N         -13.4750   84.2030   98.7420 N.am     10 SEL2        0.0000 
     45 N         -13.3990   86.8310  100.2460 N.am      6 SEP2        0.0000 
     46 CA        -10.9310   84.3890   98.9640 C.3       4 GLC5        0.0000 
     47 CA        -11.0040   83.2970   97.3480 C.3      12 GLL5        0.0000 
     48 CA        -10.8580   85.4810  100.5800 C.3       8 GLP5        0.0000 
     49 N          -7.2785   80.7425   95.5280 N.am      2 SEC2        0.0000 
     50 N          -8.6920   80.7460   96.0620 N.am     10 SEL2        0.0000 
     51 N          -5.8650   80.7390   94.9940 N.am      6 SEP2        0.0000 
     52 O          -9.1995   81.2035   94.7185 O.2       1 ALC1        0.0000 
     53 O          -8.6920   80.7460   96.0620 O.2       9 ALL1        0.0000 
     54 O          -9.7070   81.6610   93.3750 O.2       5 ALP1        0.0000 
     55 O          -8.0095   79.3745   99.8810 O.2       1 ALC1        0.0000 
     56 O          -8.3110   79.7630   98.6580 O.2       9 ALL1        0.0000 
     57 O          -7.7080   78.9860  101.1040 O.2       5 ALP1        0.0000 
     58 CA         -7.2010   82.5665   96.7710 C.3       4 GLC5        0.0000 
     59 CA         -7.9220   82.0780   98.4650 C.3      12 GLL5        0.0000 
     60 CA         -6.4800   83.0550   95.0770 C.3       8 GLP5        0.0000 
     61 N          -3.2030   85.2315  103.3915 N.am      2 SEC2        0.0000 
     62 N          -3.7000   84.3320  102.3070 N.am     10 SEL2        0.0000 
     63 N          -2.7060   86.1310  104.4760 N.am      6 SEP2        0.0000 
     64 O          -4.1195   83.7890   98.5575 O.2       1 ALC1        0.0000 
     65 O          -3.5850   83.9060   99.9960 O.2       9 ALL1        0.0000 
     66 O          -4.6540   83.6720   97.1190 O.2       5 ALP1        0.0000 
     67 O          -2.3185   84.8805  100.1705 O.2       1 ALC1        0.0000 
     68 O          -1.0520   85.8550  100.3450 O.2       5 ALP1        0.0000 
     69 CA        -15.8327   84.7195   95.8363 C.3       4 GLC5        0.0000 
     70 CA        -14.5430   83.0230   94.8880 C.3      12 GLL5        0.0000 
     71 CA        -16.7440   85.9990   97.2980 C.3       8 GLP5        0.0000 
     72 CA        -15.8677   83.0570   88.1620 C.3       4 GLC5        0.0000 
     73 CA        -17.5780   82.5390   87.4800 C.3       8 GLP5        0.0000 
     74 CA        -12.6958   83.8270   90.0810 C.3       4 GLC5        0.0000 
     75 CA        -13.8650   83.1710   88.3690 C.3      12 GLL5        0.0000 
     76 CA        -11.7767   83.6945   87.7490 C.3       4 GLC5        0.0000 
     77 CA         -9.9270   83.9250   87.7120 C.3       8 GLP5        0.0000 
     78 CA         -8.0317   82.5203   96.0520 C.3       4 GLC5        0.0000 
     79 CA         -9.6090   82.7560   96.9680 C.3      12 GLL5        0.0000 
     80 CA        -10.8262   79.9838   98.1342 C.3       4 GLC5        0.0000 
     81 CA         -9.5580   81.2150   97.0860 C.3      12 GLL5        0.0000 
     82 CA        -12.3940   78.8620   98.4820 C.3       8 GLP5        0.0000 
     83 CA         -6.0575   84.8407   99.4015 C.3       4 GLC5        0.0000 
     84 CA         -6.1590   82.9670   99.8780 C.3      12 GLL5        0.0000 
     85 CA         -6.1830   86.4380   98.3310 C.3       8 GLP5        0.0000 
     86 CA         -9.3965   81.8233  102.1467 C.3       4 GLC5        0.0000 
     87 CA         -7.9400   83.3970  101.9740 C.3      12 GLL5        0.0000 
     88 CA        -10.6260   80.5310  102.9040 C.3       8 GLP5        0.0000 
     89 CA         -6.7539   85.2793  101.9044 C.3       4 GLC5        0.0000 
     90 CA         -6.4650   87.0450  102.0290 C.3       8 GLP5        0.0000 
     91 CA         -9.5125   84.2982  100.9847 C.3       4 GLC5        0.0000 
     92 CA         -8.1022   83.0821  103.3386 C.3       4 GLC5        0.0000 
     93 CA         -8.3940   82.8340  100.8050 C.3      12 GLL5        0.0000 
     94 CA         -8.3760   82.9630  105.2550 C.3       8 GLP5        0.0000 
@<TRIPOS>BOND
@<TRIPOS>SUBSTRUCTURE
     1 ALC1       10 GROUP        1 X    ALC  0     ROOT ALC X 1
     2 SEC2        1 GROUP        1 X    SEC  0     **** SEC X 2
     3 LYC4       33 GROUP        1 X    LYC  0     **** LYC X 4
     4 GLC5        4 GROUP        1 X    GLC  0     **** GLC X 6
     5 ALP1       12 GROUP        1 Y    ALP  0     ROOT ALP Y 8
     6 SEP2        3 GROUP        1 Y    SEP  0     **** SEP Y 9
     7 LYP4       35 GROUP        1 Y    LYP  0     **** LYP Y 11
     8 GLP5        6 GROUP        1 Y    GLP  0     **** GLP Y 13
     9 ALL1       11 GROUP        1 Z    ALL  0     ROOT ALL Z 15
    10 SEL2        2 GROUP        1 Z    SEL  0     **** SEL Z 16
    11 LYL4       34 GROUP        1 Z    LYL  0     **** LYL Z 18
    12 GLL5        5 GROUP        1 Z    GLL  0     **** GLL Z 20
@<TRIPOS>SET

