#    Name: 3cos_NAD_4_ligand
#    Modification time : Mon Mar 24 22:05:17 2014

@<TRIPOS>MOLECULE
3cos_NAD_4_ligand
   70    74     1     0     0
SMALL
NO_CHARGES


@<TRIPOS>ATOM
      1 PA        -15.1940   81.9160   97.2350 P.3       1 NAD400      0.0000 
      2 O1A       -16.0880   82.4350   98.2650 O.co2     1 NAD400      0.0000 
      3 O2A       -15.3860   80.5470   96.7140 O.co2     1 NAD400      0.0000 
      4 O5B       -15.2950   83.0150   96.1050 O.3       1 NAD400      0.0000 
      5 C5B       -14.5430   83.0230   94.8880 C.3       1 NAD400      0.0000 
      6 C4B       -15.3000   83.8570   93.8610 C.3       1 NAD400      0.0000 
      7 O4B       -14.5160   83.7690   92.6170 O.3       1 NAD400      0.0000 
      8 C3B       -16.7230   83.2960   93.5360 C.3       1 NAD400      0.0000 
      9 O3B       -17.7030   84.3570   93.5590 O.3       1 NAD400      0.0000 
     10 C2B       -16.5470   82.7310   92.1070 C.3       1 NAD400      0.0000 
     11 O2B       -17.7200   82.8730   91.2800 O.3       1 NAD400      0.0000 
     12 C1B       -15.4750   83.6760   91.5630 C.3       1 NAD400      0.0000 
     13 N9A       -14.8280   83.1910   90.3280 N.pl3     1 NAD400      0.0000 
     14 C8A       -14.4710   81.9440   90.0520 C.2       1 NAD400      0.0000 
     15 N7A       -13.8840   81.9280   88.8550 N.2       1 NAD400      0.0000 
     16 C5A       -13.8650   83.1710   88.3690 C.ar      1 NAD400      0.0000 
     17 C6A       -13.3880   83.7570   87.2030 C.ar      1 NAD400      0.0000 
     18 N6A       -12.8110   83.0190   86.2570 N.pl3     1 NAD400      0.0000 
     19 N1A       -13.5350   85.0820   87.0360 N.ar      1 NAD400      0.0000 
     20 C2A       -14.0970   85.8330   87.9650 C.ar      1 NAD400      0.0000 
     21 N3A       -14.5430   85.2930   89.0940 N.ar      1 NAD400      0.0000 
     22 C4A       -14.4500   83.9790   89.3190 C.ar      1 NAD400      0.0000 
     23 O3        -13.6490   81.9590   97.7030 O.3       1 NAD400      0.0000 
     24 PN        -13.0260   82.8190   98.9340 P.3       1 NAD400      0.0000 
     25 O1N       -13.2160   82.0870  100.1930 O.co2     1 NAD400      0.0000 
     26 O2N       -13.4750   84.2030   98.7420 O.co2     1 NAD400      0.0000 
     27 O5D       -11.4820   82.7290   98.5880 O.3       1 NAD400      0.0000 
     28 C5D       -11.0040   83.2970   97.3480 C.3       1 NAD400      0.0000 
     29 C4D        -9.6090   82.7560   96.9680 C.3       1 NAD400      0.0000 
     30 O4D        -8.6640   83.2370   97.9610 O.3       1 NAD400      0.0000 
     31 C3D        -9.5580   81.2150   97.0860 C.3       1 NAD400      0.0000 
     32 O3D        -8.6920   80.7460   96.0620 O.3       1 NAD400      0.0000 
     33 C2D        -8.9590   80.9960   98.4870 C.3       1 NAD400      0.0000 
     34 O2D        -8.3110   79.7630   98.6580 O.3       1 NAD400      0.0000 
     35 C1D        -7.9220   82.0780   98.4650 C.3       1 NAD400      0.0000 
     36 N1N        -7.4770   82.6120   99.7560 N.pl3     1 NAD400      0.0000 
     37 C2N        -6.1590   82.9670   99.8780 C.ar      1 NAD400      0.0000 
     38 C3N        -5.7050   83.5200  101.0660 C.ar      1 NAD400      0.0000 
     39 C7N        -4.2520   83.9150  101.1520 C.2       1 NAD400      0.0000 
     40 O7N        -3.7000   84.3320  102.3070 O.2       1 NAD400      0.0000 
     41 N7N        -3.5850   83.9060   99.9960 N.am      1 NAD400      0.0000 
     42 C4N        -6.5860   83.7400  102.1050 C.ar      1 NAD400      0.0000 
     43 C5N        -7.9400   83.3970  101.9740 C.ar      1 NAD400      0.0000 
     44 C6N        -8.3940   82.8340  100.8050 C.ar      1 NAD400      0.0000 
     45 H         -14.4191   82.0186   94.4816 H         1 NAD400      0.0000 
     46 H         -13.5570   83.4688   95.0238 H         1 NAD400      0.0000 
     47 H         -15.3775   84.8561   94.1772 H         1 NAD400      0.0000 
     48 H         -16.9174   82.5040   94.1902 H         1 NAD400      0.0000 
     49 H         -16.1482   81.7760   92.1590 H         1 NAD400      0.0000 
     50 H         -15.9371   84.6358   91.4033 H         1 NAD400      0.0000 
     51 H         -14.6118   81.1686   90.6238 H         1 NAD400      0.0000 
     52 H         -12.7079   82.0453   86.4602 H         1 NAD400      0.0000 
     53 H         -12.5327   83.5049   85.4284 H         1 NAD400      0.0000 
     54 H         -14.1946   86.8721   87.8131 H         1 NAD400      0.0000 
     55 H         -10.9263   84.3936   97.4126 H         1 NAD400      0.0000 
     56 H         -11.6851   83.0688   96.5132 H         1 NAD400      0.0000 
     57 H          -9.3482   83.0475   96.0049 H         1 NAD400      0.0000 
     58 H         -10.5273   80.8511   97.0548 H         1 NAD400      0.0000 
     59 H          -9.6800   81.2468   99.1999 H         1 NAD400      0.0000 
     60 H          -7.1394   81.8714   97.8204 H         1 NAD400      0.0000 
     61 H          -5.5035   82.8269   99.0963 H         1 NAD400      0.0000 
     62 H          -2.6270   84.1895  100.0385 H         1 NAD400      0.0000 
     63 H          -4.1032   83.6166   99.1912 H         1 NAD400      0.0000 
     64 H          -6.2568   84.1589  102.9880 H         1 NAD400      0.0000 
     65 H          -8.5816   83.5715  102.7583 H         1 NAD400      0.0000 
     66 H          -9.3725   82.5757  100.6819 H         1 NAD400      0.0000 
     67 H         -17.7250   84.7092   92.6233 H         1 NAD400      0.0000 
     68 H         -17.7115   83.8271   90.9807 H         1 NAD400      0.0000 
     69 H          -9.0746   81.1100   95.2128 H         1 NAD400      0.0000 
     70 H          -8.3115   79.6053   99.6455 H         1 NAD400      0.0000 
@<TRIPOS>BOND
     1    2    1 ar   
     2    3    1 ar   
     3    4    1 1    
     4   23    1 1    
     5    5    4 1    
     6    6    5 1    
     7   45    5 1    
     8   46    5 1    
     9    7    6 1    
    10    8    6 1    
    11   47    6 1    
    12   12    7 1    
    13    9    8 1    
    14   10    8 1    
    15   48    8 1    
    16   67    9 1    
    17   11   10 1    
    18   12   10 1    
    19   49   10 1    
    20   68   11 1    
    21   13   12 1    
    22   50   12 1    
    23   14   13 1    
    24   22   13 1    
    25   15   14 2    
    26   51   14 1    
    27   16   15 1    
    28   17   16 ar   
    29   22   16 ar   
    30   18   17 1    
    31   19   17 ar   
    32   52   18 1    
    33   53   18 1    
    34   20   19 ar   
    35   21   20 ar   
    36   54   20 1    
    37   22   21 ar   
    38   24   23 1    
    39   25   24 ar   
    40   26   24 ar   
    41   27   24 1    
    42   28   27 1    
    43   29   28 1    
    44   55   28 1    
    45   56   28 1    
    46   30   29 1    
    47   31   29 1    
    48   57   29 1    
    49   35   30 1    
    50   32   31 1    
    51   33   31 1    
    52   58   31 1    
    53   69   32 1    
    54   34   33 1    
    55   35   33 1    
    56   59   33 1    
    57   70   34 1    
    58   36   35 1    
    59   60   35 1    
    60   37   36 ar   
    61   44   36 ar   
    62   38   37 ar   
    63   61   37 1    
    64   39   38 1    
    65   42   38 ar   
    66   40   39 2    
    67   41   39 am   
    68   62   41 1    
    69   63   41 1    
    70   43   42 ar   
    71   64   42 1    
    72   44   43 ar   
    73   65   43 1    
    74   66   44 1    
@<TRIPOS>SUBSTRUCTURE
     1 NAD400      1 GROUP   
@<TRIPOS>SET

