#    Name: 3rsc_TYD_3_INTS_M
#    Modification time : Tue Mar 25 11:51:26 2014

@<TRIPOS>MOLECULE
3rsc_TYD_3_INTS_M
   62     0     9     0     0
SMALL
NO_CHARGES


@<TRIPOS>ATOM
      1 N           7.9505   15.9365  -29.9890 N.am      2 SEC2        0.0000 
      2 N           8.0380   14.2180  -30.2290 N.am      8 SEL2        0.0000 
      3 N           7.8630   17.6550  -29.7490 N.am      5 SEP2        0.0000 
      4 N           8.9410   15.8215  -32.5140 N.am      2 SEC2        0.0000 
      5 N           8.7940   14.5690  -32.6840 N.am      8 SEL2        0.0000 
      6 N           9.0880   17.0740  -32.3440 N.am      5 SEP2        0.0000 
      7 N           5.8615   11.4310  -32.5050 N.am      2 SEC2        0.0000 
      8 N           6.3000   10.8570  -31.3330 N.am      8 SEL2        0.0000 
      9 N           5.4230   12.0050  -33.6770 N.am      5 SEP2        0.0000 
     10 N           9.3025    9.9695  -33.0630 N.am      2 SEC2        0.0000 
     11 N           8.6130    9.9300  -31.7900 N.am      8 SEL2        0.0000 
     12 N           9.9920   10.0090  -34.3360 N.am      5 SEP2        0.0000 
     13 N           9.8445    9.3815  -31.8030 N.am      2 SEC2        0.0000 
     14 N          11.0760    8.8330  -31.8160 N.am      5 SEP2        0.0000 
     15 N           8.2770    8.5690  -31.7530 N.am      2 SEC2        0.0000 
     16 N           7.9410    7.2080  -31.7160 N.am      5 SEP2        0.0000 
     17 N           9.1030   10.2725  -29.2590 N.am      2 SEC2        0.0000 
     18 N           8.1810   11.2750  -29.6790 N.am      8 SEL2        0.0000 
     19 N          10.0250    9.2700  -28.8390 N.am      5 SEP2        0.0000 
     20 CA         11.5065   11.8455  -31.3025 C.3       3 GLC5        0.0000 
     21 CA         10.6730   13.1190  -29.7200 C.3       9 GLL5        0.0000 
     22 CA         12.3400   10.5720  -32.8850 C.3       6 GLP5        0.0000 
     23 CA          9.6475   16.2405  -28.4115 C.3       3 GLC5        0.0000 
     24 CA         11.3110   15.5060  -29.3940 C.3       9 GLL5        0.0000 
     25 CA          7.9840   16.9750  -27.4290 C.3       6 GLP5        0.0000 
     26 O          11.7240   17.4340  -28.0850 O.2       1 ALC1        0.0000 
     27 O          11.6940   16.1750  -28.1880 O.2       7 ALL1        0.0000 
     28 O          11.7540   18.6930  -27.9820 O.2       4 ALP1        0.0000 
     29 CA         12.3820   17.3040  -32.2365 C.3       3 GLC5        0.0000 
     30 CA         12.0280   16.1230  -30.5820 C.3       9 GLL5        0.0000 
     31 CA         12.7360   18.4850  -33.8910 C.3       6 GLP5        0.0000 
     32 N          15.4240   18.1990  -32.3635 N.am      2 SEC2        0.0000 
     33 N          15.3100   16.7390  -31.7890 N.am      8 SEL2        0.0000 
     34 N          15.5380   19.6590  -32.9380 N.am      5 SEP2        0.0000 
     35 O          16.0580   16.7755  -34.3190 O.2       1 ALC1        0.0000 
     36 O          15.2810   15.8240  -33.8170 O.2       7 ALL1        0.0000 
     37 O          16.8350   17.7270  -34.8210 O.2       4 ALP1        0.0000 
     38 N          16.7920   15.5770  -36.1855 N.am      2 SEC2        0.0000 
     39 N          15.2250   14.9020  -35.8470 N.am      8 SEL2        0.0000 
     40 N          18.3590   16.2520  -36.5240 N.am      5 SEP2        0.0000 
     41 CA         11.0245   12.5800  -35.2180 C.3       3 GLC5        0.0000 
     42 CA         13.0350   13.1210  -35.2370 C.3       9 GLL5        0.0000 
     43 CA          9.0140   12.0390  -35.1990 C.3       6 GLP5        0.0000 
     44 CA         13.5580   14.3790  -36.9060 C.3       3 GLC5        0.0000 
     45 CA         14.0810   15.6370  -38.5750 C.3       6 GLP5        0.0000 
     46 CA         13.6850   11.6700  -36.1520 C.3       3 GLC5        0.0000 
     47 CA         14.3350   10.2190  -37.0670 C.3       6 GLP5        0.0000 
     48 CA         12.4235   11.9040  -29.0485 C.3       3 GLC5        0.0000 
     49 CA         11.7930   14.0670  -29.3260 C.3       9 GLL5        0.0000 
     50 CA         13.6140   10.2150  -28.5740 C.3       6 GLP5        0.0000 
     51 CA         10.6920   12.4680  -27.8670 C.3       3 GLC5        0.0000 
     52 CA         10.1510   11.3430  -26.2110 C.3       6 GLP5        0.0000 
     53 CA         13.4017   16.0978  -34.2975 C.3       3 GLC5        0.0000 
     54 CA         13.6370   14.0990  -34.2650 C.3       9 GLL5        0.0000 
     55 CA         13.4060   18.0420  -34.9810 C.3       6 GLP5        0.0000 
     56 CA         12.7935   12.2405  -33.3710 C.3       3 GLC5        0.0000 
     57 CA         14.5170   12.5265  -33.5480 C.3       3 GLC5        0.0000 
     58 CA         13.1580   14.2080  -32.9630 C.3       9 GLL5        0.0000 
     59 CA         15.7870   11.1440  -33.2390 C.3       6 GLP5        0.0000 
     60 CA         13.4486   14.8942  -28.7157 C.3       3 GLC5        0.0000 
     61 CA         13.2450   15.2260  -30.7520 C.3       9 GLL5        0.0000 
     62 CA         14.8030   14.5580  -27.4180 C.3       6 GLP5        0.0000 
@<TRIPOS>BOND
@<TRIPOS>SUBSTRUCTURE
     1 ALC1       26 GROUP        1 X    ALC  0     ROOT ALC X 1
     2 SEC2        1 GROUP        1 X    SEC  0     **** SEC X 2
     3 GLC5       20 GROUP        1 X    GLC  0     **** GLC X 6
     4 ALP1       28 GROUP        1 Y    ALP  0     ROOT ALP Y 8
     5 SEP2        3 GROUP        1 Y    SEP  0     **** SEP Y 9
     6 GLP5       22 GROUP        1 Y    GLP  0     **** GLP Y 13
     7 ALL1       27 GROUP        1 Z    ALL  0     ROOT ALL Z 15
     8 SEL2        2 GROUP        1 Z    SEL  0     **** SEL Z 16
     9 GLL5       21 GROUP        1 Z    GLL  0     **** GLL Z 20
@<TRIPOS>SET

