#    Name: 3rsc_TYD_3_ligand
#    Modification time : Tue Mar 25 11:51:26 2014

@<TRIPOS>MOLECULE
3rsc_TYD_3_ligand
   38    39     1     0     0
SMALL
NO_CHARGES


@<TRIPOS>ATOM
      1 PA          8.7570   13.7030  -31.4500 P.3       1 TYD397      0.0000 
      2 O1A         8.0380   14.2180  -30.2290 O.co2     1 TYD397      0.0000 
      3 O2A         8.7940   14.5690  -32.6840 O.co2     1 TYD397      0.0000 
      4 O3A         8.1730   12.2930  -31.9790 O.3       1 TYD397      0.0000 
      5 PB          7.7860   10.9890  -31.1090 P.3       1 TYD397      0.0000 
      6 O1B         6.3000   10.8570  -31.3330 O.co2     1 TYD397      0.0000 
      7 O2B         8.6130    9.9300  -31.7900 O.co2     1 TYD397      0.0000 
      8 O3B         8.1810   11.2750  -29.6790 O.co2     1 TYD397      0.0000 
      9 O5'        10.2870   13.3480  -31.0750 O.3       1 TYD397      0.0000 
     10 C5'        10.6730   13.1190  -29.7200 C.3       1 TYD397      0.0000 
     11 C4'        11.7930   14.0670  -29.3260 C.3       1 TYD397      0.0000 
     12 O4'        12.8910   13.9460  -30.2330 O.3       1 TYD397      0.0000 
     13 C3'        11.3110   15.5060  -29.3940 C.3       1 TYD397      0.0000 
     14 O3'        11.6940   16.1750  -28.1880 O.3       1 TYD397      0.0000 
     15 C2'        12.0280   16.1230  -30.5820 C.3       1 TYD397      0.0000 
     16 C1'        13.2450   15.2260  -30.7520 C.3       1 TYD397      0.0000 
     17 N1         13.7180   15.1070  -32.1360 N.am      1 TYD397      0.0000 
     18 C2         14.7960   15.9150  -32.5720 C.2       1 TYD397      0.0000 
     19 O2         15.3100   16.7390  -31.7890 O.2       1 TYD397      0.0000 
     20 N3         15.2810   15.8240  -33.8170 N.am      1 TYD397      0.0000 
     21 C4         14.7620   14.9670  -34.6910 C.2       1 TYD397      0.0000 
     22 O4         15.2250   14.9020  -35.8470 O.2       1 TYD397      0.0000 
     23 C5         13.6370   14.0990  -34.2650 C.2       1 TYD397      0.0000 
     24 C5M        13.0350   13.1210  -35.2370 C.3       1 TYD397      0.0000 
     25 C6         13.1580   14.2080  -32.9630 C.2       1 TYD397      0.0000 
     26 H          11.0318   12.0912  -29.5697 H         1 TYD397      0.0000 
     27 H           9.8348   13.2801  -29.0277 H         1 TYD397      0.0000 
     28 H          12.0938   13.8587  -28.3194 H         1 TYD397      0.0000 
     29 H          10.2739   15.5144  -29.5662 H         1 TYD397      0.0000 
     30 H          12.3370   17.1084  -30.3467 H         1 TYD397      0.0000 
     31 H          11.4154   16.0661  -31.4442 H         1 TYD397      0.0000 
     32 H          14.0435   15.6516  -30.1277 H         1 TYD397      0.0000 
     33 H          16.0845   16.4415  -34.1035 H         1 TYD397      0.0000 
     34 H          12.3857   13.5993  -32.6592 H         1 TYD397      0.0000 
     35 H          13.7089   12.4571  -35.5613 H         1 TYD397      0.0000 
     36 H          12.2863   12.6014  -34.8254 H         1 TYD397      0.0000 
     37 H          12.6640   13.5802  -36.0442 H         1 TYD397      0.0000 
     38 H          11.6164   17.1498  -28.3971 H         1 TYD397      0.0000 
@<TRIPOS>BOND
     1    2    1 ar   
     2    3    1 ar   
     3    4    1 1    
     4    9    1 1    
     5    5    4 1    
     6    6    5 ar   
     7    7    5 ar   
     8    8    5 ar   
     9   10    9 1    
    10   11   10 1    
    11   26   10 1    
    12   27   10 1    
    13   12   11 1    
    14   13   11 1    
    15   28   11 1    
    16   16   12 1    
    17   14   13 1    
    18   15   13 1    
    19   29   13 1    
    20   38   14 1    
    21   16   15 1    
    22   30   15 1    
    23   31   15 1    
    24   17   16 1    
    25   32   16 1    
    26   18   17 1    
    27   25   17 1    
    28   19   18 2    
    29   20   18 1    
    30   21   20 1    
    31   33   20 1    
    32   22   21 2    
    33   23   21 1    
    34   24   23 1    
    35   25   23 2    
    36   35   24 1    
    37   36   24 1    
    38   37   24 1    
    39   34   25 1    
@<TRIPOS>SUBSTRUCTURE
     1 TYD397      1 GROUP   
@<TRIPOS>SET

