#    Name: 3ook_OOK_1_INTS_M
#    Modification time : Tue Mar 25 04:54:53 2014

@<TRIPOS>MOLECULE
3ook_OOK_1_INTS_M
  129     0    12     0     0
SMALL
NO_CHARGES


@<TRIPOS>ATOM
      1 N          22.8260   15.7040    0.7775 N.am      2 SEC2        0.0000 
      2 N          23.2210   16.1010    2.0480 N.am     10 SEL2        0.0000 
      3 N          22.4310   15.3070   -0.4930 N.am      6 SEP2        0.0000 
      4 O          24.1240   19.5915    1.2520 O.2       1 ALC1        0.0000 
      5 O          24.2200   20.2790    2.6050 O.2       9 ALL1        0.0000 
      6 O          24.0280   18.9040   -0.1010 O.2       5 ALP1        0.0000 
      7 CA         21.2455   20.0575    4.3455 C.3       4 GLC5        0.0000 
      8 CA         23.0970   18.9150    4.3110 C.3      12 GLL5        0.0000 
      9 CA         19.3940   21.2000    4.3800 C.3       8 GLP5        0.0000 
     10 CA         26.1730   24.3910   -0.3490 C.3       4 GLC5        0.0000 
     11 CA         26.7320   23.3130    1.2330 C.3      12 GLL5        0.0000 
     12 CA         25.6140   25.4690   -1.9310 C.3       8 GLP5        0.0000 
     13 CA         24.7115   25.1425    0.6125 C.3       4 GLC5        0.0000 
     14 CA         25.3790   23.6030    1.5200 C.3      12 GLL5        0.0000 
     15 CA         24.0440   26.6820   -0.2950 C.3       8 GLP5        0.0000 
     16 CA         23.5965   23.2620    0.2055 C.3       4 GLC5        0.0000 
     17 CA         21.8140   22.9210   -1.1090 C.3       8 GLP5        0.0000 
     18 NZ         29.6405   23.5010   -0.6005 N.4       3 LYC4        0.0000 
     19 NZ         28.8040   24.1430    0.4560 N.4      11 LYL4        0.0000 
     20 NZ         31.7920   22.9930   -1.7860 N.4       7 LYP4        0.0000 
     21 N          29.6405   23.5010   -0.6005 N.am      2 SEC2        0.0000 
     22 N          28.8040   24.1430    0.4560 N.am     10 SEL2        0.0000 
     23 N          30.4770   22.8590   -1.6570 N.am      6 SEP2        0.0000 
     24 CA         25.0305   17.7740    6.7020 C.3       4 GLC5        0.0000 
     25 CA         23.1710   18.4730    5.7910 C.3      12 GLL5        0.0000 
     26 CA         26.8900   17.0750    7.6130 C.3       8 GLP5        0.0000 
     27 CA         21.2025   19.9520    0.8045 C.3       4 GLC5        0.0000 
     28 CA         20.7860   18.6440    1.9850 C.3      12 GLL5        0.0000 
     29 CA         21.6190   21.2600   -0.3760 C.3       8 GLP5        0.0000 
     30 CA         23.6850   23.5950    3.8395 C.3       4 GLC5        0.0000 
     31 CA         23.2290   22.8740    2.2280 C.3      12 GLL5        0.0000 
     32 CA         24.1410   24.3160    5.4510 C.3       8 GLP5        0.0000 
     33 CA         22.1860   24.4935    2.4145 C.3       4 GLC5        0.0000 
     34 CA         21.1430   26.1130    2.6010 C.3       8 GLP5        0.0000 
     35 CA         29.9470   16.5230    4.7220 C.3       4 GLC5        0.0000 
     36 CA         28.1590   16.8710    4.1960 C.3      12 GLL5        0.0000 
     37 CA         31.7350   16.1750    5.2480 C.3       8 GLP5        0.0000 
     38 CA         28.6060   15.3325    5.4095 C.3       4 GLC5        0.0000 
     39 CA         29.0530   13.7940    6.6230 C.3       8 GLP5        0.0000 
     40 CA         29.3010   16.2645    2.3340 C.3       4 GLC5        0.0000 
     41 CA         27.8620   14.7940    2.4670 C.3      12 GLL5        0.0000 
     42 CA         30.7400   17.7350    2.2010 C.3       8 GLP5        0.0000 
     43 CA         28.7665   14.0910    1.4265 C.3       4 GLC5        0.0000 
     44 CA         29.6710   13.3880    0.3860 C.3       8 GLP5        0.0000 
     45 CA         28.9940   13.7465    3.5780 C.3       4 GLC5        0.0000 
     46 CA         30.1260   12.6990    4.6890 C.3       8 GLP5        0.0000 
     47 N          26.9720   26.2700    1.8520 N.am      2 SEC2        0.0000 
     48 N          27.2470   25.6510    0.8020 N.am     10 SEL2        0.0000 
     49 N          26.6970   26.8890    2.9020 N.am      6 SEP2        0.0000 
     50 CA         17.5545   15.4475    2.9455 C.3       4 GLC5        0.0000 
     51 CA         18.8560   16.7850    2.7540 C.3      12 GLL5        0.0000 
     52 CA         16.2530   14.1100    3.1370 C.3       8 GLP5        0.0000 
     53 CA         19.7610   19.8945    0.4530 C.3       4 GLC5        0.0000 
     54 CA         19.4590   18.9390    1.8480 C.3      12 GLL5        0.0000 
     55 CA         20.0630   20.8500   -0.9420 C.3       8 GLP5        0.0000 
     56 CA         17.0685   19.5465    3.8445 C.3       4 GLC5        0.0000 
     57 CA         16.8290   18.4710    2.0700 C.3      12 GLL5        0.0000 
     58 CA         17.3080   20.6220    5.6190 C.3       8 GLP5        0.0000 
     59 CA         17.4005   18.1380    0.2735 C.3       4 GLC5        0.0000 
     60 CA         17.9720   17.8050   -1.5230 C.3       8 GLP5        0.0000 
     61 CA         15.8500   17.4090    0.6885 C.3       4 GLC5        0.0000 
     62 CA         14.8710   16.3470   -0.6930 C.3       8 GLP5        0.0000 
     63 CA         15.7050   19.8885    2.6255 C.3       4 GLC5        0.0000 
     64 CA         14.5810   21.3060    3.1810 C.3       8 GLP5        0.0000 
     65 CA         16.7330   17.8415    4.1810 C.3       4 GLC5        0.0000 
     66 CA         16.6370   17.2120    6.2920 C.3       8 GLP5        0.0000 
     67 CA         16.6340   20.1385    0.6495 C.3       4 GLC5        0.0000 
     68 CA         16.4390   21.8060   -0.7710 C.3       8 GLP5        0.0000 
     69 CA         21.4120   21.0355    6.9245 C.3       4 GLC5        0.0000 
     70 CA         22.4620   19.5060    6.6800 C.3      12 GLL5        0.0000 
     71 CA         20.3620   22.5650    7.1690 C.3       8 GLP5        0.0000 
     72 CA         22.4045   15.0455    5.5235 C.3       4 GLC5        0.0000 
     73 CA         22.5100   17.0840    5.9650 C.3      12 GLL5        0.0000 
     74 CA         22.2990   13.0070    5.0820 C.3       8 GLP5        0.0000 
     75 CA         20.8575   20.2660    7.5335 C.3       4 GLC5        0.0000 
     76 CA         22.4290   19.0510    8.1470 C.3      12 GLL5        0.0000 
     77 CA         19.2860   21.4810    6.9200 C.3       8 GLP5        0.0000 
     78 CA         24.7345   16.8450    7.5220 C.3       4 GLC5        0.0000 
     79 CA         22.5790   16.6150    7.4310 C.3      12 GLL5        0.0000 
     80 CA         23.5620   15.0270    6.8195 C.3       4 GLC5        0.0000 
     81 CA         24.5450   13.4390    6.2080 C.3       8 GLP5        0.0000 
     82 CA         20.8685   17.6980   10.0855 C.3       4 GLC5        0.0000 
     83 CA         21.8130   17.6350    8.2920 C.3      12 GLL5        0.0000 
     84 CA         19.9240   17.7610   11.8790 C.3       8 GLP5        0.0000 
     85 CA         19.7405   17.2990    7.7550 C.3       4 GLC5        0.0000 
     86 CA         17.6680   16.9630    7.2180 C.3       8 GLP5        0.0000 
     87 CA         25.0480   15.0092    3.9947 C.3       4 GLC5        0.0000 
     88 CA         24.5080   16.1040    2.4500 C.3      12 GLL5        0.0000 
     89 CA         25.5090   13.3760    5.0920 C.3       8 GLP5        0.0000 
     90 CA         25.9322   22.7022    3.4070 C.3       4 GLC5        0.0000 
     91 CA         25.0320   21.3030    2.1230 C.3      12 GLL5        0.0000 
     92 CA         27.0840   23.4530    4.7720 C.3       8 GLP5        0.0000 
     93 CA         27.7370   20.2337    3.6463 C.3       4 GLC5        0.0000 
     94 CA         26.9030   19.7930    2.0700 C.3      12 GLL5        0.0000 
     95 CA         28.8290   20.0600    5.3270 C.3       8 GLP5        0.0000 
     96 CA         26.9443   22.4867    3.2032 C.3       4 GLC5        0.0000 
     97 CA         26.3870   21.0220    1.8610 C.3      12 GLL5        0.0000 
     98 CA         26.3490   19.1958    0.4282 C.3       4 GLC5        0.0000 
     99 CA         26.0530   17.9840   -1.1090 C.3       8 GLP5        0.0000 
    100 CA         28.7040   22.5920    2.4678 C.3       4 GLC5        0.0000 
    101 CA         27.2220   22.0190    1.4080 C.3      12 GLL5        0.0000 
    102 CA         30.4310   22.5180    3.6150 C.3       8 GLP5        0.0000 
    103 CA         26.5697   23.4555    3.0743 C.3       4 GLC5        0.0000 
    104 CA         27.5595   22.5210   -0.4612 C.3       4 GLC5        0.0000 
    105 CA         28.1420   22.3760   -2.2430 C.3       8 GLP5        0.0000 
    106 CA         24.8455   16.8729    0.8886 C.3       4 GLC5        0.0000 
    107 CA         24.6660   17.1810    3.3450 C.3      12 GLL5        0.0000 
    108 CA         24.5910   17.7640   -0.7240 C.3       8 GLP5        0.0000 
    109 CA         27.2665   14.1715    1.1280 C.3       4 GLC5        0.0000 
    110 CA         25.6130   15.3210    2.1050 C.3      12 GLL5        0.0000 
    111 CA         28.3160   12.8820   -0.1440 C.3       8 GLP5        0.0000 
    112 CA         19.5248   15.0188    1.9650 C.3       4 GLC5        0.0000 
    113 CA         19.5250   13.4100    1.1010 C.3       8 GLP5        0.0000 
    114 CA         28.4944   20.5324    1.2691 C.3       4 GLC5        0.0000 
    115 CA         30.1350   20.4080    0.6860 C.3       8 GLP5        0.0000 
    116 CA         22.8119   21.8364    0.8795 C.3       4 GLC5        0.0000 
    117 CA         24.5290   22.6000    1.9610 C.3      12 GLL5        0.0000 
    118 CA         28.0617   18.5065    4.6572 C.3       4 GLC5        0.0000 
    119 CA         25.8960   17.4370    3.9330 C.3      12 GLL5        0.0000 
    120 CA         27.0922   17.0140    5.8003 C.3       4 GLC5        0.0000 
    121 CA         29.1329   17.1145    2.9395 C.3       4 GLC5        0.0000 
    122 CA         26.4017   15.1645    4.5397 C.3       4 GLC5        0.0000 
    123 CA         26.2742   14.2518    3.7627 C.3       4 GLC5        0.0000 
    124 CA         26.8210   15.6010    2.6950 C.3      12 GLL5        0.0000 
    125 CA         19.3511   19.8039    3.2281 C.3       4 GLC5        0.0000 
    126 CA         23.2688   20.6142    8.6642 C.3       4 GLC5        0.0000 
    127 CA         24.0920   21.9500    9.9150 C.3       8 GLP5        0.0000 
    128 CA         21.0830   15.7425    8.6148 C.3       4 GLC5        0.0000 
    129 CA         19.9700   14.3600    9.3680 C.3       8 GLP5        0.0000 
@<TRIPOS>BOND
@<TRIPOS>SUBSTRUCTURE
     1 ALC1        4 GROUP        1 X    ALC  0     ROOT ALC X 1
     2 SEC2        1 GROUP        1 X    SEC  0     **** SEC X 2
     3 LYC4       18 GROUP        1 X    LYC  0     **** LYC X 4
     4 GLC5        7 GROUP        1 X    GLC  0     **** GLC X 6
     5 ALP1        6 GROUP        1 Y    ALP  0     ROOT ALP Y 8
     6 SEP2        3 GROUP        1 Y    SEP  0     **** SEP Y 9
     7 LYP4       20 GROUP        1 Y    LYP  0     **** LYP Y 11
     8 GLP5        9 GROUP        1 Y    GLP  0     **** GLP Y 13
     9 ALL1        5 GROUP        1 Z    ALL  0     ROOT ALL Z 15
    10 SEL2        2 GROUP        1 Z    SEL  0     **** SEL Z 16
    11 LYL4       19 GROUP        1 Z    LYL  0     **** LYL Z 18
    12 GLL5        8 GROUP        1 Z    GLL  0     **** GLL Z 20
@<TRIPOS>SET

