#    Name: 3ook_OOK_1_ligand
#    Modification time : Tue Mar 25 04:54:53 2014

@<TRIPOS>MOLECULE
3ook_OOK_1_ligand
   60    64     1     0     0
SMALL
NO_CHARGES


@<TRIPOS>ATOM
      1 N1         23.4380   17.7780    3.4490 N.pl3     1 OOK1        0.0000 
      2 C2         22.5910   17.0860    2.6230 C.2       1 OOK1        0.0000 
      3 N3         23.2210   16.1010    2.0480 N.2       1 OOK1        0.0000 
      4 C4         24.6660   17.1810    3.3450 C.ar      1 OOK1        0.0000 
      5 C5         24.5080   16.1040    2.4500 C.ar      1 OOK1        0.0000 
      6 C6         23.9840   20.0800    3.9250 C.2       1 OOK1        0.0000 
      7 N7         24.2200   20.2790    2.6050 N.am      1 OOK1        0.0000 
      8 C8         25.0320   21.3030    2.1230 C.ar      1 OOK1        0.0000 
      9 C9         23.0970   18.9150    4.3110 C.3       1 OOK1        0.0000 
     10 C10        25.8960   17.4370    3.9330 C.ar      1 OOK1        0.0000 
     11 C11        24.5290   22.6000    1.9610 C.ar      1 OOK1        0.0000 
     12 C12        26.3870   21.0220    1.8610 C.ar      1 OOK1        0.0000 
     13 C13        26.7320   23.3130    1.2330 C.ar      1 OOK1        0.0000 
     14 C14        25.6130   15.3210    2.1050 C.ar      1 OOK1        0.0000 
     15 C15        27.6600   24.3830    0.7890 C.2       1 OOK1        0.0000 
     16 C16        26.9640   16.6330    3.6250 C.ar      1 OOK1        0.0000 
     17 C17        21.1560   17.3880    2.4650 C.ar      1 OOK1        0.0000 
     18 C18        26.8210   15.6010    2.6950 C.ar      1 OOK1        0.0000 
     19 C19        27.2220   22.0190    1.4080 C.ar      1 OOK1        0.0000 
     20 C20        25.3790   23.6030    1.5200 C.ar      1 OOK1        0.0000 
     21 O21        24.4480   20.8220    4.7580 O.2       1 OOK1        0.0000 
     22 O22        28.8040   24.1430    0.4560 O.co2     1 OOK1        0.0000 
     23 C23        23.1710   18.4730    5.7910 C.3       1 OOK1        0.0000 
     24 C24        20.7860   18.6440    1.9850 C.ar      1 OOK1        0.0000 
     25 C25        20.1930   16.4700    2.9040 C.ar      1 OOK1        0.0000 
     26 F26        26.9030   19.7930    2.0700 F         1 OOK1        0.0000 
     27 F27        23.2290   22.8740    2.2280 F         1 OOK1        0.0000 
     28 F28        28.1590   16.8710    4.1960 F         1 OOK1        0.0000 
     29 F29        27.8620   14.7940    2.4670 F         1 OOK1        0.0000 
     30 O30        27.2470   25.6510    0.8020 O.co2     1 OOK1        0.0000 
     31 C31        18.4940   18.0240    2.2360 C.ar      1 OOK1        0.0000 
     32 C32        18.8560   16.7850    2.7540 C.ar      1 OOK1        0.0000 
     33 C33        19.4590   18.9390    1.8480 C.ar      1 OOK1        0.0000 
     34 CL34       16.8290   18.4710    2.0700 Cl        1 OOK1        0.0000 
     35 C35        22.4620   19.5060    6.6800 C.3       1 OOK1        0.0000 
     36 C36        22.5100   17.0840    5.9650 C.3       1 OOK1        0.0000 
     37 C37        22.4290   19.0510    8.1470 C.3       1 OOK1        0.0000 
     38 C38        22.5790   16.6150    7.4310 C.3       1 OOK1        0.0000 
     39 C39        21.8130   17.6350    8.2920 C.3       1 OOK1        0.0000 
     40 H          23.7744   19.6358    1.8965 H         1 OOK1        0.0000 
     41 H          22.0537   19.1945    4.1014 H         1 OOK1        0.0000 
     42 H          25.9985   18.2193    4.5890 H         1 OOK1        0.0000 
     43 H          25.5131   14.5636    1.4311 H         1 OOK1        0.0000 
     44 H          28.2094   21.8171    1.1963 H         1 OOK1        0.0000 
     45 H          25.0357   24.5628    1.3979 H         1 OOK1        0.0000 
     46 H          24.1987   18.4059    6.0815 H         1 OOK1        0.0000 
     47 H          21.5102   19.3283    1.7416 H         1 OOK1        0.0000 
     48 H          20.4825   15.5878    3.3254 H         1 OOK1        0.0000 
     49 H          18.1295   16.1099    3.0227 H         1 OOK1        0.0000 
     50 H          19.1641   19.8500    1.4526 H         1 OOK1        0.0000 
     51 H          21.4415   19.6421    6.3252 H         1 OOK1        0.0000 
     52 H          22.9887   20.4567    6.6127 H         1 OOK1        0.0000 
     53 H          23.0269   16.3657    5.3345 H         1 OOK1        0.0000 
     54 H          21.4697   17.1473    5.6578 H         1 OOK1        0.0000 
     55 H          21.8344   19.7529    8.7291 H         1 OOK1        0.0000 
     56 H          23.4432   19.0339    8.5423 H         1 OOK1        0.0000 
     57 H          23.6052   16.5800    7.7461 H         1 OOK1        0.0000 
     58 H          22.1133   15.6511    7.5192 H         1 OOK1        0.0000 
     59 H          20.7766   17.6685    7.9732 H         1 OOK1        0.0000 
     60 H          21.8622   17.3355    9.3336 H         1 OOK1        0.0000 
@<TRIPOS>BOND
     1    2    1 1    
     2    4    1 1    
     3    9    1 1    
     4    3    2 2    
     5   17    2 1    
     6    5    3 1    
     7    5    4 ar   
     8   10    4 ar   
     9   14    5 ar   
    10    7    6 am   
    11    9    6 1    
    12   21    6 2    
    13    8    7 1    
    14   40    7 1    
    15   11    8 ar   
    16   12    8 ar   
    17   23    9 1    
    18   41    9 1    
    19   16   10 ar   
    20   42   10 1    
    21   20   11 ar   
    22   27   11 1    
    23   19   12 ar   
    24   26   12 1    
    25   15   13 1    
    26   19   13 ar   
    27   20   13 ar   
    28   18   14 ar   
    29   43   14 1    
    30   22   15 ar   
    31   30   15 ar   
    32   18   16 ar   
    33   28   16 1    
    34   24   17 ar   
    35   25   17 ar   
    36   29   18 1    
    37   44   19 1    
    38   45   20 1    
    39   35   23 1    
    40   36   23 1    
    41   46   23 1    
    42   33   24 ar   
    43   47   24 1    
    44   32   25 ar   
    45   48   25 1    
    46   32   31 ar   
    47   33   31 ar   
    48   34   31 1    
    49   49   32 1    
    50   50   33 1    
    51   37   35 1    
    52   51   35 1    
    53   52   35 1    
    54   38   36 1    
    55   53   36 1    
    56   54   36 1    
    57   39   37 1    
    58   55   37 1    
    59   56   37 1    
    60   39   38 1    
    61   57   38 1    
    62   58   38 1    
    63   59   39 1    
    64   60   39 1    
@<TRIPOS>SUBSTRUCTURE
     1 OOK1        1 GROUP   
@<TRIPOS>SET

