#    Name: 4i94_ANP_1_INTS_M
#    Modification time : Tue Mar 25 02:35:58 2014

@<TRIPOS>MOLECULE
4i94_ANP_1_INTS_M
   74     0    15     0     0
SMALL
NO_CHARGES


@<TRIPOS>ATOM
      1 N          -6.0905   14.6570    0.8725 N.am      2 SEC2        0.0000 
      2 N          -5.2880   13.7080    1.6490 N.am     12 SEL2        0.0000 
      3 N          -6.8930   15.6060    0.0960 N.am      7 SEP2        0.0000 
      4 NZ         -2.3065   15.0625    3.1890 N.4       3 LYC4        0.0000 
      5 NZ         -3.6590   14.6980    3.3360 N.4      13 LYL4        0.0000 
      6 NZ         -0.9540   15.4270    3.0420 N.4       8 LYP4        0.0000 
      7 NZ         -3.5340   14.2045    4.7040 N.4       3 LYC4        0.0000 
      8 NZ         -4.6570   13.7600    6.4880 N.4       8 LYP4        0.0000 
      9 N          -2.3065   15.0625    3.1890 N.am      2 SEC2        0.0000 
     10 N          -3.6590   14.6980    3.3360 N.am     12 SEL2        0.0000 
     11 N          -0.9540   15.4270    3.0420 N.am      7 SEP2        0.0000 
     12 N          -3.5340   14.2045    4.7040 N.am      2 SEC2        0.0000 
     13 N          -3.4090   13.7110    6.0720 N.am      7 SEP2        0.0000 
     14 N          -4.6155   14.5480    4.5385 N.am      2 SEC2        0.0000 
     15 N          -5.5720   14.3980    5.7410 N.am      7 SEP2        0.0000 
     16 NZ         -1.8585   14.3630    2.2415 N.4       3 LYC4        0.0000 
     17 NZ         -2.7630   13.2990    1.4410 N.4      13 LYL4        0.0000 
     18 Zn         -2.1715   12.5025    1.1285 Zn        4 ZIC7        0.0000 
     19 Zn         -2.7630   13.2990    1.4410 Zn       14 ZIL7        0.0000 
     20 Zn         -1.5800   11.7060    0.8160 Zn        9 ZIP7        0.0000 
     21 N          -2.3965   13.9085    0.2150 N.am      2 SEC2        0.0000 
     22 N          -2.7630   13.2990    1.4410 N.am     12 SEL2        0.0000 
     23 N          -2.0300   14.5180   -1.0110 N.am      7 SEP2        0.0000 
     24 N          -1.8585   14.3630    2.2415 N.am      2 SEC2        0.0000 
     25 Zn         -2.0770   11.0830    1.4740 Zn        4 ZIC7        0.0000 
     26 Zn         -2.5740   10.4600    2.1320 Zn       14 ZIL7        0.0000 
     27 NZ         -0.4850   14.3800    3.8130 N.4       3 LYC4        0.0000 
     28 NZ         -0.0160   13.3330    4.5840 N.4      13 LYL4        0.0000 
     29 N          -0.4850   14.3800    3.8130 N.am      2 SEC2        0.0000 
     30 N          -0.0160   13.3330    4.5840 N.am     12 SEL2        0.0000 
     31 NZ         -0.5855   13.7830    2.6995 N.4       3 LYC4        0.0000 
     32 NZ         -0.2170   12.1390    2.3570 N.4      13 LYL4        0.0000 
     33 Zn         -0.8985   11.9225    1.5865 Zn        4 ZIC7        0.0000 
     34 Zn         -0.2170   12.1390    2.3570 Zn       14 ZIL7        0.0000 
     35 O          -1.1025    7.9760    7.4995 O.2       1 ALC1        0.0000 
     36 O          -0.4490    7.5330    6.2720 O.2      11 ALL1        0.0000 
     37 O          -1.7560    8.4190    8.7270 O.2       6 ALP1        0.0000 
     38 CA          4.8315    8.0690    4.9975 C.3       5 GLC5        0.0000 
     39 CA          3.0540    8.5690    5.8870 C.3      15 GLL5        0.0000 
     40 CA          6.6090    7.5690    4.1080 C.3      10 GLP5        0.0000 
     41 CA          4.2430    9.8655    4.7915 C.3       5 GLC5        0.0000 
     42 CA          5.4320   11.1620    3.6960 C.3      10 GLP5        0.0000 
     43 CA          5.8975   10.8460   10.9580 C.3       5 GLC5        0.0000 
     44 CA          5.6620   11.2570    8.9600 C.3      15 GLL5        0.0000 
     45 CA          6.1330   10.4350   12.9560 C.3      10 GLP5        0.0000 
     46 O           6.9585   12.8670   10.2520 O.2       1 ALC1        0.0000 
     47 O           5.7650   12.4400    9.5540 O.2      11 ALL1        0.0000 
     48 O           8.1520   13.2940   10.9500 O.2       6 ALP1        0.0000 
     49 N           7.5705   10.0505   10.2265 N.am      2 SEC2        0.0000 
     50 N           6.6290   10.3180    9.1480 N.am     12 SEL2        0.0000 
     51 N           8.5120    9.7830   11.3050 N.am      7 SEP2        0.0000 
     52 CA          7.2225   10.8485    7.5915 C.3       5 GLC5        0.0000 
     53 CA          6.5560    9.1340    8.4970 C.3      15 GLL5        0.0000 
     54 CA          7.8890   12.5630    6.6860 C.3      10 GLP5        0.0000 
     55 CA          6.5420    9.0940   10.4900 C.3       5 GLC5        0.0000 
     56 CA          6.5280    9.0540   12.4830 C.3      10 GLP5        0.0000 
     57 CA          5.5965    8.6540    5.7860 C.3       5 GLC5        0.0000 
     58 CA          4.5840    9.7390    7.4640 C.3      15 GLL5        0.0000 
     59 CA          1.4495    8.4147    2.7592 C.3       5 GLC5        0.0000 
     60 CA          1.0610    8.5810    4.7170 C.3      15 GLL5        0.0000 
     61 CA          2.2240    7.7170    1.2130 C.3      10 GLP5        0.0000 
     62 CA          1.9765   10.3932    3.4857 C.3       5 GLC5        0.0000 
     63 CA          3.2780   11.6740    2.6660 C.3      10 GLP5        0.0000 
     64 CA          0.9762    6.6945    7.7470 C.3       5 GLC5        0.0000 
     65 CA          0.7390    8.3640    6.2070 C.3      15 GLL5        0.0000 
     66 CA          0.5600    5.3590    9.0630 C.3      10 GLP5        0.0000 
     67 CA          1.6222    8.3550    8.4290 C.3       5 GLC5        0.0000 
     68 CA          2.0460    7.6960    6.6550 C.3      15 GLL5        0.0000 
     69 CA          1.8520    8.6800   10.4270 C.3      10 GLP5        0.0000 
     70 CA          5.0177   10.7550    5.7348 C.3       5 GLC5        0.0000 
     71 CA          6.3761   11.4930    7.3394 C.3       5 GLC5        0.0000 
     72 CA          4.6230   10.9570    8.0830 C.3      15 GLL5        0.0000 
     73 CA          3.8816   10.6505    9.5299 C.3       5 GLC5        0.0000 
     74 CA          2.9000   10.8780   11.0670 C.3      10 GLP5        0.0000 
@<TRIPOS>BOND
@<TRIPOS>SUBSTRUCTURE
     1 ALC1       35 GROUP        1 X    ALC  0     ROOT ALC X 1
     2 SEC2        1 GROUP        1 X    SEC  0     **** SEC X 2
     3 LYC4        4 GROUP        1 X    LYC  0     **** LYC X 4
     4 ZIC7       18 GROUP        1 X    ZIC  0     **** ZIC X 5
     5 GLC5       38 GROUP        1 X    GLC  0     **** GLC X 6
     6 ALP1       37 GROUP        1 Y    ALP  0     ROOT ALP Y 8
     7 SEP2        3 GROUP        1 Y    SEP  0     **** SEP Y 9
     8 LYP4        6 GROUP        1 Y    LYP  0     **** LYP Y 11
     9 ZIP7       20 GROUP        1 Y    ZIP  0     **** ZIP Y 12
    10 GLP5       40 GROUP        1 Y    GLP  0     **** GLP Y 13
    11 ALL1       36 GROUP        1 Z    ALL  0     ROOT ALL Z 15
    12 SEL2        2 GROUP        1 Z    SEL  0     **** SEL Z 16
    13 LYL4        5 GROUP        1 Z    LYL  0     **** LYL Z 18
    14 ZIL7       19 GROUP        1 Z    ZIL  0     **** ZIL Z 19
    15 GLL5       39 GROUP        1 Z    GLL  0     **** GLL Z 20
@<TRIPOS>SET

