#    Name: 4i94_ANP_1_ligand
#    Modification time : Tue Mar 25 02:35:58 2014

@<TRIPOS>MOLECULE
4i94_ANP_1_ligand
   43    45     1     0     0
SMALL
NO_CHARGES


@<TRIPOS>ATOM
      1 PG         -3.9510   13.5520    2.3900 P.3       1 ANP401      0.0000 
      2 O1G        -5.2880   13.7080    1.6490 O.co2     1 ANP401      0.0000 
      3 O2G        -3.6590   14.6980    3.3360 O.co2     1 ANP401      0.0000 
      4 O3G        -2.7630   13.2990    1.4410 O.co2     1 ANP401      0.0000 
      5 PB         -3.0680   11.0310    3.4560 P.3       1 ANP401      0.0000 
      6 O1B        -3.7540   10.0310    4.4420 O.co2     1 ANP401      0.0000 
      7 O2B        -2.5740   10.4600    2.1320 O.co2     1 ANP401      0.0000 
      8 N3B        -4.1810   12.1850    3.2830 N.4       1 ANP401      0.0000 
      9 PA         -0.3940   12.0770    3.8530 P.3       1 ANP401      0.0000 
     10 O1A        -0.0160   13.3330    4.5840 O.co2     1 ANP401      0.0000 
     11 O2A        -0.2170   12.1390    2.3570 O.co2     1 ANP401      0.0000 
     12 O3A        -1.8670   11.8610    4.2730 O.3       1 ANP401      0.0000 
     13 O5'         0.3960   10.8990    4.5580 O.3       1 ANP401      0.0000 
     14 C5'         0.2890    9.6440    3.8940 C.3       1 ANP401      0.0000 
     15 C4'         1.0610    8.5810    4.7170 C.3       1 ANP401      0.0000 
     16 O4'         2.4310    8.9820    4.6990 O.3       1 ANP401      0.0000 
     17 C3'         0.7390    8.3640    6.2070 C.3       1 ANP401      0.0000 
     18 O3'        -0.4490    7.5330    6.2720 O.3       1 ANP401      0.0000 
     19 C2'         2.0460    7.6960    6.6550 C.3       1 ANP401      0.0000 
     20 O2'         2.0420    6.3500    6.1420 O.3       1 ANP401      0.0000 
     21 C1'         3.0540    8.5690    5.8870 C.3       1 ANP401      0.0000 
     22 N9          3.4940    9.7010    6.7090 N.pl3     1 ANP401      0.0000 
     23 C8          2.8590   10.8900    6.8480 C.2       1 ANP401      0.0000 
     24 N7          3.5620   11.6650    7.6500 N.2       1 ANP401      0.0000 
     25 C5          4.6230   10.9570    8.0830 C.ar      1 ANP401      0.0000 
     26 C6          5.6620   11.2570    8.9600 C.ar      1 ANP401      0.0000 
     27 N6          5.7650   12.4400    9.5540 N.pl3     1 ANP401      0.0000 
     28 N1          6.6290   10.3180    9.1480 N.ar      1 ANP401      0.0000 
     29 C2          6.5560    9.1340    8.4970 C.ar      1 ANP401      0.0000 
     30 N3          5.5670    8.8270    7.6580 N.ar      1 ANP401      0.0000 
     31 C4          4.5840    9.7390    7.4640 C.ar      1 ANP401      0.0000 
     32 H           0.7295    9.6634    2.8972 H         1 ANP401      0.0000 
     33 H          -0.7435    9.3038    3.8143 H         1 ANP401      0.0000 
     34 H           0.9837    7.6221    4.2040 H         1 ANP401      0.0000 
     35 H           0.6519    9.3023    6.6473 H         1 ANP401      0.0000 
     36 H           2.1653    7.8076    7.6546 H         1 ANP401      0.0000 
     37 H           3.9083    7.9226    5.6686 H         1 ANP401      0.0000 
     38 H           2.0152   11.1163    6.4140 H         1 ANP401      0.0000 
     39 H           6.5525   12.5619   10.1581 H         1 ANP401      0.0000 
     40 H           5.0458   13.1021    9.3436 H         1 ANP401      0.0000 
     41 H           7.3277    8.4211    8.6685 H         1 ANP401      0.0000 
     42 H          -0.9063    7.8013    7.1199 H         1 ANP401      0.0000 
     43 H           1.0957    6.1810    5.8665 H         1 ANP401      0.0000 
@<TRIPOS>BOND
     1    2    1 ar   
     2    3    1 ar   
     3    4    1 ar   
     4    8    1 1    
     5    6    5 ar   
     6    7    5 ar   
     7    8    5 1    
     8   12    5 1    
     9   10    9 ar   
    10   11    9 ar   
    11   12    9 1    
    12   13    9 1    
    13   14   13 1    
    14   15   14 1    
    15   32   14 1    
    16   33   14 1    
    17   16   15 1    
    18   17   15 1    
    19   34   15 1    
    20   21   16 1    
    21   18   17 1    
    22   19   17 1    
    23   35   17 1    
    24   42   18 1    
    25   20   19 1    
    26   21   19 1    
    27   36   19 1    
    28   43   20 1    
    29   22   21 1    
    30   37   21 1    
    31   23   22 1    
    32   31   22 1    
    33   24   23 2    
    34   38   23 1    
    35   25   24 1    
    36   26   25 ar   
    37   31   25 ar   
    38   27   26 1    
    39   28   26 ar   
    40   39   27 1    
    41   40   27 1    
    42   29   28 ar   
    43   30   29 ar   
    44   41   29 1    
    45   31   30 ar   
@<TRIPOS>SUBSTRUCTURE
     1 ANP401      1 GROUP   
@<TRIPOS>SET

