#    Name: 3HR4_1_CAVITY_N1_ALL.mol2
#    Modification time : Mon Mar 10 23:43:01 2014

@<TRIPOS>MOLECULE
3HR4_1_CAVITY_N1_ALL.mol2
  102     0     7     0     0
SMALL
NO_CHARGES


@<TRIPOS>ATOM
      1 N          -1.0556   12.2238  -72.0325 N.2       2 ALA2        0.0000 
      2 O          -3.3409    8.8612  -69.5892 O.2       2 ALA2        0.0000 
      3 O          -2.4196    9.5354  -70.5620 O.2       2 ALA2        0.0000 
      4 CZ         -1.4982   10.2097  -71.5349 C.ar      5 PHE5        0.0000 
      5 N          -2.8622    7.5214  -70.0644 N.2       2 ALA2        0.0000 
      6 OD1        -1.9409    8.1957  -71.0373 O.3       3 ASP3        0.0000 
      7 N           0.9534   12.2892  -65.4591 N.2       2 ALA2        0.0000 
      8 OG          1.1866    4.9258  -63.4034 O.2       1 SER1        0.0000 
      9 OG          2.1080    5.6001  -64.3762 O.2       1 SER1        0.0000 
     10 NZ          3.0293    6.2744  -65.3491 N.2       4 LYS4        0.0000 
     11 OG          2.5867    4.2603  -64.8515 O.2       1 SER1        0.0000 
     12 NZ          3.5080    4.9346  -65.8243 N.2       4 LYS4        0.0000 
     13 CA          2.2332    8.2982  -62.3876 C.3       6 GLY6        0.0000 
     14 N           3.1545    8.9725  -63.3605 N.2       2 ALA2        0.0000 
     15 NZ         -9.8674   11.4763  -69.3321 N.2       4 LYS4        0.0000 
     16 DU         -8.9461   12.1505  -70.3049 H         7 CUB7        0.0000 
     17 N          -8.0247   12.8248  -71.2778 N.2       2 ALA2        0.0000 
     18 O          -8.4674   10.8108  -70.7802 O.2       2 ALA2        0.0000 
     19 N          -7.5460   11.4850  -71.7530 N.2       2 ALA2        0.0000 
     20 CA         -7.3848   10.8293  -69.7421 C.3       6 GLY6        0.0000 
     21 O          -6.9061    9.4895  -70.2173 O.2       2 ALA2        0.0000 
     22 CA         -5.9848   10.1638  -71.1902 C.3       6 GLY6        0.0000 
     23 CA         -5.0634   10.8381  -72.1630 C.3       6 GLY6        0.0000 
     24 N           1.5933   10.2937  -63.9234 N.2       2 ALA2        0.0000 
     25 CA          2.5146   10.9680  -64.8962 C.3       6 GLY6        0.0000 
     26 CA          1.1506    8.2797  -63.4257 C.3       6 GLY6        0.0000 
     27 N           2.0720    8.9539  -64.3986 N.2       2 ALA2        0.0000 
     28 CA          2.9933    9.6282  -65.3715 C.3       6 GLY6        0.0000 
     29 CZ          0.7080    6.2656  -62.9281 C.ar      5 PHE5        0.0000 
     30 CZ          1.6293    6.9399  -63.9010 C.ar      5 PHE5        0.0000 
     31 NZ          2.5507    7.6142  -64.8738 N.2       4 LYS4        0.0000 
     32 CA         -0.7331   10.9123  -68.0106 C.3       6 GLY6        0.0000 
     33 CZ          0.1882   11.5866  -68.9834 C.ar      5 PHE5        0.0000 
     34 CZ         -0.2544    9.5726  -68.4858 C.ar      5 PHE5        0.0000 
     35 CZ         -0.6971    7.5585  -67.9882 C.ar      5 PHE5        0.0000 
     36 OG          0.2243    8.2328  -68.9610 O.2       1 SER1        0.0000 
     37 CZ         -0.2184    6.2187  -68.4634 C.ar      5 PHE5        0.0000 
     38 OG          0.7030    6.8930  -69.4363 O.2       1 SER1        0.0000 
     39 N          -0.6610    4.2047  -67.9658 N.2       2 ALA2        0.0000 
     40 CA          0.2603    4.8789  -68.9387 C.3       6 GLY6        0.0000 
     41 NZ          1.1817    5.5532  -69.9115 N.2       4 LYS4        0.0000 
     42 CZ          1.8747   12.9635  -66.4320 C.ar      5 PHE5        0.0000 
     43 N           1.4320   10.9494  -65.9343 N.2       2 ALA2        0.0000 
     44 CZ          2.3534   11.6237  -66.9072 C.ar      5 PHE5        0.0000 
     45 N           0.9894    8.9354  -65.4367 N.2       2 ALA2        0.0000 
     46 N           1.9107    9.6097  -66.4096 N.2       2 ALA2        0.0000 
     47 CZ          1.4681    7.5956  -65.9120 C.ar      5 PHE5        0.0000 
     48 NZ          2.3894    8.2699  -66.8848 N.2       4 LYS4        0.0000 
     49 CZ          1.0254    5.5816  -65.4143 C.ar      5 PHE5        0.0000 
     50 NZ          1.9468    6.2558  -66.3872 N.2       4 LYS4        0.0000 
     51 NZ          2.8681    6.9301  -67.3601 N.2       4 LYS4        0.0000 
     52 NZ          3.7895    7.6044  -68.3329 N.2       4 LYS4        0.0000 
     53 CA          1.5041    4.2418  -65.8896 C.3       6 GLY6        0.0000 
     54 NZ          2.4255    4.9161  -66.8624 N.2       4 LYS4        0.0000 
     55 NZ          3.3468    5.5903  -67.8353 N.2       4 LYS4        0.0000 
     56 NZ          4.2682    6.2646  -68.8082 N.2       4 LYS4        0.0000 
     57 OG          5.1895    6.9389  -69.7810 O.2       1 SER1        0.0000 
     58 NZ          2.9041    3.5763  -67.3377 N.2       4 LYS4        0.0000 
     59 NZ          3.8255    4.2506  -68.3105 N.2       4 LYS4        0.0000 
     60 NZ          5.6682    5.5991  -70.2563 N.2       4 LYS4        0.0000 
     61 O          -4.4235    8.8426  -70.6273 O.2       2 ALA2        0.0000 
     62 CA         -3.5021    9.5169  -71.6002 C.3       6 GLY6        0.0000 
     63 NZ         -2.5808   10.1912  -72.5730 N.2       4 LYS4        0.0000 
     64 CA         -1.6594   10.8654  -73.5459 C.3       6 GLY6        0.0000 
     65 CZ         -2.2583    8.8797  -68.5511 C.ar      5 PHE5        0.0000 
     66 O          -1.3370    9.5540  -69.5239 O.2       2 ALA2        0.0000 
     67 CZ         -0.4156   10.2283  -70.4968 C.ar      5 PHE5        0.0000 
     68 CZ         -1.7796    7.5399  -69.0263 C.ar      5 PHE5        0.0000 
     69 OG         -0.8583    8.2142  -69.9992 O.2       1 SER1        0.0000 
     70 N          -1.3010    6.2002  -69.5015 N.2       2 ALA2        0.0000 
     71 NZ         -0.3796    6.8744  -70.4744 N.2       4 LYS4        0.0000 
     72 CA         -0.8223    4.8604  -69.9768 C.3       6 GLY6        0.0000 
     73 N          -3.0595   11.5309  -72.0978 N.2       2 ALA2        0.0000 
     74 N          -2.1381   12.2052  -73.0706 N.2       2 ALA2        0.0000 
     75 N          -0.1292   12.2707  -66.4972 N.2       2 ALA2        0.0000 
     76 CZ          0.7921   12.9449  -67.4701 C.ar      5 PHE5        0.0000 
     77 N           0.3495   10.9309  -66.9724 N.2       2 ALA2        0.0000 
     78 CZ          1.2708   11.6052  -67.9453 C.ar      5 PHE5        0.0000 
     79 N          -0.0932    8.9168  -66.4748 N.2       2 ALA2        0.0000 
     80 CZ          0.8282    9.5911  -67.4477 C.ar      5 PHE5        0.0000 
     81 CZ          0.3855    7.5771  -66.9501 C.ar      5 PHE5        0.0000 
     82 CZ          1.3069    8.2513  -67.9229 C.ar      5 PHE5        0.0000 
     83 CZ          0.8642    6.2373  -67.4253 C.ar      5 PHE5        0.0000 
     84 OG          1.7855    6.9116  -68.3982 O.2       1 SER1        0.0000 
     85 N           0.4215    4.2232  -66.9277 N.2       2 ALA2        0.0000 
     86 DU          1.3429    4.8975  -67.9005 H         7 CUB7        0.0000 
     87 OG          3.1856    6.2461  -69.8463 O.2       1 SER1        0.0000 
     88 N          -0.0211    2.2092  -66.4301 N.2       2 ALA2        0.0000 
     89 N           0.9002    2.8834  -67.4029 N.2       2 ALA2        0.0000 
     90 DU          1.8216    3.5577  -68.3758 H         7 CUB7        0.0000 
     91 NZ          2.7429    4.2320  -69.3487 N.2       4 LYS4        0.0000 
     92 NZ          3.6643    4.9063  -70.3215 N.2       4 LYS4        0.0000 
     93 NZ          4.5856    5.5806  -71.2944 N.2       4 LYS4        0.0000 
     94 NZ          4.1430    3.5665  -70.7968 N.2       4 LYS4        0.0000 
     95 N          -0.1824    2.8649  -68.4410 N.2       2 ALA2        0.0000 
     96 CA          0.7390    3.5392  -69.4139 C.3       6 GLY6        0.0000 
     97 N           0.2963    1.5251  -68.9163 N.2       2 ALA2        0.0000 
     98 OG          1.7905    6.2842  -61.8900 O.2       1 SER1        0.0000 
     99 DU          2.7119    6.9584  -62.8629 H         7 CUB7        0.0000 
    100 NZ          3.6332    7.6327  -63.8357 N.2       4 LYS4        0.0000 
    101 OD1         3.1906    5.6187  -63.3381 O.3       3 ASP3        0.0000 
    102 OD1         3.6693    4.2789  -63.8133 O.3       3 ASP3        0.0000 
@<TRIPOS>BOND
@<TRIPOS>SUBSTRUCTURE
     1 SER1        8 GROUP   
     2 ALA2        1 GROUP   
     3 ASP3        6 GROUP   
     4 LYS4       10 GROUP   
     5 PHE5        4 GROUP   
     6 GLY6       13 GROUP   
     7 CUB7       16 GROUP   
@<TRIPOS>SET

