#    Name: 3hr4_FMN_1_INTS_M
#    Modification time : Tue Mar 25 14:53:02 2014

@<TRIPOS>MOLECULE
3hr4_FMN_1_INTS_M
   80     0     9     0     0
SMALL
NO_CHARGES


@<TRIPOS>ATOM
      1 N           4.1210   13.0805  -64.9495 N.am      2 SEC2        0.0000 
      2 N           2.8740   14.1000  -64.9130 N.am      8 SEL2        0.0000 
      3 N           5.3680   12.0610  -64.9860 N.am      5 SEP2        0.0000 
      4 N           2.7395   15.2445  -64.1860 N.am      2 SEC2        0.0000 
      5 N           2.6050   16.3890  -63.4590 N.am      5 SEP2        0.0000 
      6 O           1.1255   15.4305  -66.5525 O.2       1 ALC1        0.0000 
      7 O           1.2370   14.0170  -66.5600 O.2       7 ALL1        0.0000 
      8 O           1.0140   16.8440  -66.5450 O.2       4 ALP1        0.0000 
      9 CA         -2.8190   10.4915  -69.6045 C.3       3 GLC5        0.0000 
     10 CA         -1.1230    9.0420  -69.5180 C.3       9 GLL5        0.0000 
     11 CA         -4.5150   11.9410  -69.6910 C.3       6 GLP5        0.0000 
     12 CA         -3.5935    6.1935  -71.5600 C.3       3 GLC5        0.0000 
     13 CA         -1.9340    7.0690  -70.6140 C.3       9 GLL5        0.0000 
     14 CA         -5.2530    5.3180  -72.5060 C.3       6 GLP5        0.0000 
     15 CA         -1.7970    5.9105  -72.0460 C.3       3 GLC5        0.0000 
     16 CA         -1.6600    4.7520  -73.4780 C.3       6 GLP5        0.0000 
     17 CA         -0.9390    5.9295  -67.1895 C.3       3 GLC5        0.0000 
     18 CA          0.1110    5.2500  -68.7070 C.3       9 GLL5        0.0000 
     19 CA         -1.9890    6.6090  -65.6720 C.3       6 GLP5        0.0000 
     20 CA         -1.9450    4.5560  -68.3715 C.3       3 GLC5        0.0000 
     21 CA         -4.0010    3.8620  -68.0360 C.3       6 GLP5        0.0000 
     22 CA         -0.2745    4.6635  -70.6200 C.3       3 GLC5        0.0000 
     23 CA         -0.6600    4.0770  -72.5330 C.3       6 GLP5        0.0000 
     24 CA         -1.1960   10.0310  -66.9835 C.3       3 GLC5        0.0000 
     25 CA          0.6840    9.0450  -67.6500 C.3       9 GLL5        0.0000 
     26 CA         -3.0760   11.0170  -66.3170 C.3       6 GLP5        0.0000 
     27 CA          4.1670    9.7005  -66.2825 C.3       3 GLC5        0.0000 
     28 CA          2.4800    9.0010  -65.8290 C.3       9 GLL5        0.0000 
     29 CA          5.8540   10.4000  -66.7360 C.3       6 GLP5        0.0000 
     30 CA          2.8090    9.6615  -67.8340 C.3       3 GLC5        0.0000 
     31 CA          3.1380   10.3220  -69.8390 C.3       6 GLP5        0.0000 
     32 CA          0.9475    8.9550  -62.4695 C.3       3 GLC5        0.0000 
     33 CA          1.9020    8.6200  -64.4480 C.3       9 GLL5        0.0000 
     34 CA         -0.0070    9.2900  -60.4910 C.3       6 GLP5        0.0000 
     35 CA          0.1135    7.6220  -64.3835 C.3       3 GLC5        0.0000 
     36 CA         -1.6750    6.6240  -64.3190 C.3       6 GLP5        0.0000 
     37 O           0.3565   10.2195  -64.2005 O.2       1 ALC1        0.0000 
     38 O           1.6700    9.7960  -63.8160 O.2       7 ALL1        0.0000 
     39 O          -0.9570   10.6430  -64.5850 O.2       4 ALP1        0.0000 
     40 O           4.3255    6.9350  -65.3005 O.2       1 ALC1        0.0000 
     41 O           3.0520    6.5500  -64.6720 O.2       7 ALL1        0.0000 
     42 O           5.5990    7.3200  -65.9290 O.2       4 ALP1        0.0000 
     43 CA          3.0605    8.5120  -60.7135 C.3       3 GLC5        0.0000 
     44 CA          2.7370    7.2950  -62.4280 C.3       9 GLL5        0.0000 
     45 CA          3.3840    9.7290  -58.9990 C.3       6 GLP5        0.0000 
     46 N           4.9740    5.6495  -62.0455 N.am      2 SEC2        0.0000 
     47 N           3.9460    6.6270  -62.1090 N.am      8 SEL2        0.0000 
     48 N           6.0020    4.6720  -61.9820 N.am      5 SEP2        0.0000 
     49 N           5.1890    7.4940  -61.3720 N.am      2 SEC2        0.0000 
     50 N           6.4320    8.3610  -60.6350 N.am      5 SEP2        0.0000 
     51 CA         -0.0290    6.4100  -63.2535 C.3       3 GLC5        0.0000 
     52 CA          1.6170    6.1960  -62.1880 C.3       9 GLL5        0.0000 
     53 N           0.0605    7.4765  -60.5940 N.am      2 SEC2        0.0000 
     54 N           1.3150    6.4200  -60.8330 N.am      8 SEL2        0.0000 
     55 N          -1.1940    8.5330  -60.3550 N.am      5 SEP2        0.0000 
     56 N           0.8015    5.7530  -57.4605 N.am      2 SEC2        0.0000 
     57 N           0.2500    6.1280  -58.7590 N.am      8 SEL2        0.0000 
     58 N           1.3530    5.3780  -56.1620 N.am      5 SEP2        0.0000 
     59 N           0.3035    7.1355  -57.8290 N.am      2 SEC2        0.0000 
     60 N           0.3570    8.1430  -56.8990 N.am      5 SEP2        0.0000 
     61 N          -1.3645    5.1905  -59.3705 N.am      2 SEC2        0.0000 
     62 N          -1.1330    5.6960  -60.6200 N.am      8 SEL2        0.0000 
     63 N          -1.5960    4.6850  -58.1210 N.am      5 SEP2        0.0000 
     64 N          -2.3605    5.3155  -60.5035 N.am      2 SEC2        0.0000 
     65 N          -3.5880    4.9350  -60.3870 N.am      5 SEP2        0.0000 
     66 N          -1.4860    4.3110  -60.9930 N.am      2 SEC2        0.0000 
     67 N          -1.8390    2.9260  -61.3660 N.am      5 SEP2        0.0000 
     68 N          -1.1635    7.1145  -60.4875 N.am      2 SEC2        0.0000 
     69 N           0.9860    3.6045  -60.8900 N.am      2 SEC2        0.0000 
     70 N           0.8770    4.2580  -59.9120 N.am      8 SEL2        0.0000 
     71 N           1.0950    2.9510  -61.8680 N.am      5 SEP2        0.0000 
     72 N           1.1865    3.6420  -58.7665 N.am      2 SEC2        0.0000 
     73 N           1.4960    3.0260  -57.6210 N.am      5 SEP2        0.0000 
     74 CA         -1.8920   10.2170  -67.6803 C.3       3 GLC5        0.0000 
     75 CA         -0.2930    9.7920  -68.5690 C.3       9 GLL5        0.0000 
     76 CA          3.2890   10.1442  -63.5160 C.3       3 GLC5        0.0000 
     77 CA          4.1590   12.0550  -62.8900 C.3       6 GLP5        0.0000 
     78 CA          3.2145    5.1582  -61.4780 C.3       3 GLC5        0.0000 
     79 CA          4.2520    3.5710  -60.6480 C.3       6 GLP5        0.0000 
     80 CA          1.0850    8.0177  -61.3995 C.3       3 GLC5        0.0000 
@<TRIPOS>BOND
@<TRIPOS>SUBSTRUCTURE
     1 ALC1        6 GROUP        1 X    ALC  0     ROOT ALC X 1
     2 SEC2        1 GROUP        1 X    SEC  0     **** SEC X 2
     3 GLC5        9 GROUP        1 X    GLC  0     **** GLC X 6
     4 ALP1        8 GROUP        1 Y    ALP  0     ROOT ALP Y 8
     5 SEP2        3 GROUP        1 Y    SEP  0     **** SEP Y 9
     6 GLP5       11 GROUP        1 Y    GLP  0     **** GLP Y 13
     7 ALL1        7 GROUP        1 Z    ALL  0     ROOT ALL Z 15
     8 SEL2        2 GROUP        1 Z    SEL  0     **** SEL Z 16
     9 GLL5       10 GROUP        1 Z    GLL  0     **** GLL Z 20
@<TRIPOS>SET

