#    Name: 3hr4_FMN_1_ligand
#    Modification time : Tue Mar 25 14:53:02 2014

@<TRIPOS>MOLECULE
3hr4_FMN_1_ligand
   50    52     1     0     0
SMALL
NO_CHARGES


@<TRIPOS>ATOM
      1 N1          2.2310   11.9810  -65.7590 N.2       1 FMN999      0.0000 
      2 C2          2.2060   13.3330  -65.6540 C.2       1 FMN999      0.0000 
      3 O2          2.8740   14.1000  -64.9130 O.2       1 FMN999      0.0000 
      4 N3          1.2370   14.0170  -66.5600 N.am      1 FMN999      0.0000 
      5 C4          0.3370   13.3100  -67.5390 C.2       1 FMN999      0.0000 
      6 O4         -0.3950   14.1100  -68.1990 O.2       1 FMN999      0.0000 
      7 C4A         0.4250   11.9690  -67.5890 C.2       1 FMN999      0.0000 
      8 N5         -0.3310   11.2760  -68.4380 N.2       1 FMN999      0.0000 
      9 C5A        -0.2930    9.7920  -68.5690 C.ar      1 FMN999      0.0000 
     10 C6         -1.1230    9.0420  -69.5180 C.ar      1 FMN999      0.0000 
     11 C7         -1.0090    7.5360  -69.5880 C.ar      1 FMN999      0.0000 
     12 C7M        -1.9340    7.0690  -70.6140 C.3       1 FMN999      0.0000 
     13 C8         -0.0420    6.7450  -68.6810 C.ar      1 FMN999      0.0000 
     14 C8M         0.1110    5.2500  -68.7070 C.3       1 FMN999      0.0000 
     15 C9          0.7400    7.4620  -67.7820 C.ar      1 FMN999      0.0000 
     16 C9A         0.6840    9.0450  -67.6500 C.ar      1 FMN999      0.0000 
     17 N10         1.5650    9.7380  -66.6680 N.pl3     1 FMN999      0.0000 
     18 C10         1.4660   11.2170  -66.6100 C.2       1 FMN999      0.0000 
     19 C1'         2.4800    9.0010  -65.8290 C.3       1 FMN999      0.0000 
     20 C2'         1.9020    8.6200  -64.4480 C.3       1 FMN999      0.0000 
     21 O2'         1.6700    9.7960  -63.8160 O.3       1 FMN999      0.0000 
     22 C3'         2.9360    7.8470  -63.8360 C.3       1 FMN999      0.0000 
     23 O3'         3.0520    6.5500  -64.6720 O.3       1 FMN999      0.0000 
     24 C4'         2.7370    7.2950  -62.4280 C.3       1 FMN999      0.0000 
     25 O4'         3.9460    6.6270  -62.1090 O.3       1 FMN999      0.0000 
     26 C5'         1.6170    6.1960  -62.1880 C.3       1 FMN999      0.0000 
     27 O5'         1.3150    6.4200  -60.8330 O.3       1 FMN999      0.0000 
     28 P           0.2730    5.5710  -60.0500 P.3       1 FMN999      0.0000 
     29 O1P         0.2500    6.1280  -58.7590 O.co2     1 FMN999      0.0000 
     30 O2P        -1.1330    5.6960  -60.6200 O.co2     1 FMN999      0.0000 
     31 O3P         0.8770    4.2580  -59.9120 O.co2     1 FMN999      0.0000 
     32 H           1.1757   15.0412  -66.5168 H         1 FMN999      0.0000 
     33 H          -1.7638    9.5039  -70.1211 H         1 FMN999      0.0000 
     34 H           1.4068    7.0247  -67.1414 H         1 FMN999      0.0000 
     35 H           3.4104    9.5800  -65.6460 H         1 FMN999      0.0000 
     36 H           2.8028    8.0581  -66.3202 H         1 FMN999      0.0000 
     37 H           1.0378    8.0384  -64.6412 H         1 FMN999      0.0000 
     38 H           3.9074    8.3027  -63.8977 H         1 FMN999      0.0000 
     39 H           2.5721    8.0926  -61.7331 H         1 FMN999      0.0000 
     40 H           2.0697    5.2578  -62.3791 H         1 FMN999      0.0000 
     41 H           0.8229    6.4256  -62.8500 H         1 FMN999      0.0000 
     42 H          -1.7239    7.4609  -71.5097 H         1 FMN999      0.0000 
     43 H          -1.9052    6.0745  -70.7151 H         1 FMN999      0.0000 
     44 H          -2.8797    7.3147  -70.4011 H         1 FMN999      0.0000 
     45 H           0.4041    4.9222  -69.6052 H         1 FMN999      0.0000 
     46 H           0.7899    4.9346  -68.0440 H         1 FMN999      0.0000 
     47 H          -0.7476    4.7850  -68.4911 H         1 FMN999      0.0000 
     48 H           0.7538   10.0703  -64.1081 H         1 FMN999      0.0000 
     49 H           3.8819    6.6672  -65.2174 H         1 FMN999      0.0000 
     50 H           3.8131    6.2812  -61.1802 H         1 FMN999      0.0000 
@<TRIPOS>BOND
     1    2    1 1    
     2   18    1 2    
     3    3    2 2    
     4    4    2 am   
     5    5    4 am   
     6   32    4 1    
     7    6    5 2    
     8    7    5 1    
     9    8    7 2    
    10   18    7 1    
    11    9    8 1    
    12   10    9 ar   
    13   16    9 ar   
    14   11   10 ar   
    15   33   10 1    
    16   12   11 1    
    17   13   11 ar   
    18   42   12 1    
    19   43   12 1    
    20   44   12 1    
    21   14   13 1    
    22   15   13 ar   
    23   45   14 1    
    24   46   14 1    
    25   47   14 1    
    26   16   15 ar   
    27   34   15 1    
    28   17   16 1    
    29   18   17 1    
    30   19   17 1    
    31   20   19 1    
    32   35   19 1    
    33   36   19 1    
    34   21   20 1    
    35   22   20 1    
    36   37   20 1    
    37   48   21 1    
    38   23   22 1    
    39   24   22 1    
    40   38   22 1    
    41   49   23 1    
    42   25   24 1    
    43   26   24 1    
    44   39   24 1    
    45   50   25 1    
    46   27   26 1    
    47   40   26 1    
    48   41   26 1    
    49   28   27 1    
    50   29   28 ar   
    51   30   28 ar   
    52   31   28 ar   
@<TRIPOS>SUBSTRUCTURE
     1 FMN999      1 GROUP   
@<TRIPOS>SET

