#    Name: 1tom_MIN_1_INTS_M
#    Modification time : Tue Mar 25 05:33:40 2014

@<TRIPOS>MOLECULE
1tom_MIN_1_INTS_M
   60     0    12     0     0
SMALL
NO_CHARGES


@<TRIPOS>ATOM
      1 N          15.9480  -13.4325   24.6955 N.am      2 SEC2        0.0000 
      2 N          16.9480  -14.0710   23.6920 N.am     10 SEL2        0.0000 
      3 N          14.9480  -12.7940   25.6990 N.am      6 SEP2        0.0000 
      4 CA         18.0605  -12.2915   23.4430 C.3       4 GLC5        0.0000 
      5 CA         18.5150  -13.0970   21.5690 C.3      12 GLL5        0.0000 
      6 CA         17.6060  -11.4860   25.3170 C.3       8 GLP5        0.0000 
      7 O          16.7420  -10.7685   21.9400 O.2       1 ALC1        0.0000 
      8 O          16.3250  -11.9530   21.1710 O.2       9 ALL1        0.0000 
      9 O          17.1590   -9.5840   22.7090 O.2       5 ALP1        0.0000 
     10 CA         10.2500   -9.8725   22.1045 C.3       4 GLC5        0.0000 
     11 CA         11.5480  -11.3550   21.9740 C.3      12 GLL5        0.0000 
     12 CA          8.9520   -8.3900   22.2350 C.3       8 GLP5        0.0000 
     13 CA          9.8215  -13.9935   21.9085 C.3       4 GLC5        0.0000 
     14 CA         11.3220  -12.7910   22.5040 C.3      12 GLL5        0.0000 
     15 CA          8.3210  -15.1960   21.3130 C.3       8 GLP5        0.0000 
     16 OD1         9.2040  -11.6600   24.6765 O.co2     3 ASC3        0.0000 
     17 OD1        10.3160  -12.8040   23.5250 O.co2    11 ASL3        0.0000 
     18 OD1         8.0920  -10.5160   25.8280 O.co2     7 ASP3        0.0000 
     19 OD1         9.0720  -12.7030   24.5400 O.co2     3 ASC3        0.0000 
     20 OD1         7.8280  -12.6020   25.5550 O.co2     7 ASP3        0.0000 
     21 O           9.1470  -12.1750   23.0510 O.2       1 ALC1        0.0000 
     22 O          10.3160  -12.8040   23.5250 O.2       9 ALL1        0.0000 
     23 O           7.9780  -11.5460   22.5770 O.2       5 ALP1        0.0000 
     24 O          10.2650  -14.1180   23.8615 O.2       1 ALC1        0.0000 
     25 O          10.2140  -15.4320   24.1980 O.2       5 ALP1        0.0000 
     26 O          10.5195  -11.7915   24.3515 O.2       1 ALC1        0.0000 
     27 O          10.7230  -10.7790   25.1780 O.2       5 ALP1        0.0000 
     28 CA         20.2290  -16.2995   27.0140 C.3       4 GLC5        0.0000 
     29 CA         18.5320  -16.1970   25.2170 C.3      12 GLL5        0.0000 
     30 CA         20.3520  -16.5870   28.9490 C.3       8 GLP5        0.0000 
     31 CA         19.0910  -12.7547   25.7007 C.3       4 GLC5        0.0000 
     32 CA         19.9680  -14.3310   26.0350 C.3      12 GLL5        0.0000 
     33 CA         23.0138  -13.2325   27.0625 C.3       4 GLC5        0.0000 
     34 CA         21.1840  -13.7160   26.1340 C.3      12 GLL5        0.0000 
     35 CA         24.2810  -12.4500   28.2560 C.3       8 GLP5        0.0000 
     36 CA         21.9763  -12.4865   24.8875 C.3       4 GLC5        0.0000 
     37 CA         22.3090  -14.3140   25.6040 C.3      12 GLL5        0.0000 
     38 CA         22.2060  -10.9580   23.9060 C.3       8 GLP5        0.0000 
     39 CA         20.8972  -15.3779   27.3966 C.3       4 GLC5        0.0000 
     40 CA         19.1032  -11.4830   19.8425 C.3       4 GLC5        0.0000 
     41 CA         19.1590   -9.8750   18.6480 C.3       8 GLP5        0.0000 
     42 CA         21.9145  -14.9012   20.7713 C.3       4 GLC5        0.0000 
     43 CA         20.5550  -14.1330   20.9450 C.3      12 GLL5        0.0000 
     44 CA         23.7010  -15.1480   20.2570 C.3       8 GLP5        0.0000 
     45 CA         20.3246  -12.1385   22.1470 C.3       4 GLC5        0.0000 
     46 CA         20.8480  -10.6650   23.3030 C.3       8 GLP5        0.0000 
     47 CA         19.4151  -15.3557   19.6807 C.3       4 GLC5        0.0000 
     48 CA         19.5800  -13.0850   20.5050 C.3      12 GLL5        0.0000 
     49 CA         18.9460  -16.3190   18.1860 C.3       8 GLP5        0.0000 
     50 CA         12.2778   -9.2547   21.6485 C.3       4 GLC5        0.0000 
     51 CA         12.4520   -7.1820   21.8390 C.3       8 GLP5        0.0000 
     52 CA         10.0944  -12.0946   20.9725 C.3       4 GLC5        0.0000 
     53 CA         12.6590  -11.3000   20.9420 C.3      12 GLL5        0.0000 
     54 CA          8.4760  -12.1300   19.9640 C.3       8 GLP5        0.0000 
     55 CA         13.5607  -13.3657   24.5675 C.3       4 GLC5        0.0000 
     56 CA         12.5960  -13.2860   23.1240 C.3      12 GLL5        0.0000 
     57 CA         13.9510  -13.4630   26.5000 C.3       8 GLP5        0.0000 
     58 CA         15.1545  -11.7731   23.2091 C.3       4 GLC5        0.0000 
     59 CA         13.7450  -13.2510   22.1460 C.3      12 GLL5        0.0000 
     60 CA         16.2070  -11.0090   24.8050 C.3       8 GLP5        0.0000 
@<TRIPOS>BOND
@<TRIPOS>SUBSTRUCTURE
     1 ALC1        7 GROUP        1 X    ALC  0     ROOT ALC X 1
     2 SEC2        1 GROUP        1 X    SEC  0     **** SEC X 2
     3 ASC3       16 GROUP        1 X    ASC  0     **** ASC X 3
     4 GLC5        4 GROUP        1 X    GLC  0     **** GLC X 6
     5 ALP1        9 GROUP        1 Y    ALP  0     ROOT ALP Y 8
     6 SEP2        3 GROUP        1 Y    SEP  0     **** SEP Y 9
     7 ASP3       18 GROUP        1 Y    ASP  0     **** ASP Y 10
     8 GLP5        6 GROUP        1 Y    GLP  0     **** GLP Y 13
     9 ALL1        8 GROUP        1 Z    ALL  0     ROOT ALL Z 15
    10 SEL2        2 GROUP        1 Z    SEL  0     **** SEL Z 16
    11 ASL3       17 GROUP        1 Z    ASL  0     **** ASL Z 17
    12 GLL5        5 GROUP        1 Z    GLL  0     **** GLL Z 20
@<TRIPOS>SET

