#    Name: 1tom_MIN_1_ligand
#    Modification time : Tue Mar 25 05:33:40 2014

@<TRIPOS>MOLECULE
1tom_MIN_1_ligand
   62    64     1     0     0
SMALL
NO_CHARGES


@<TRIPOS>ATOM
      1 N13        16.6180  -16.8730   23.8320 N.4       1 MIN1        0.0000 
      2 C15        17.9320  -16.2260   23.7760 C.3       1 MIN1        0.0000 
      3 C13        17.8220  -14.8100   23.2150 C.2       1 MIN1        0.0000 
      4 O13        16.9480  -14.0710   23.6920 O.2       1 MIN1        0.0000 
      5 C16        18.5320  -16.1970   25.2170 C.3       1 MIN1        0.0000 
      6 C17        19.8880  -15.5410   25.3810 C.ar      1 MIN1        0.0000 
      7 C18        21.0020  -16.1550   24.8590 C.ar      1 MIN1        0.0000 
      8 C22        19.9680  -14.3310   26.0350 C.ar      1 MIN1        0.0000 
      9 C19        22.2210  -15.5290   24.9600 C.ar      1 MIN1        0.0000 
     10 C21        21.1840  -13.7160   26.1340 C.ar      1 MIN1        0.0000 
     11 C20        22.3090  -14.3140   25.6040 C.ar      1 MIN1        0.0000 
     12 C14        15.8190  -17.0230   22.6010 C.3       1 MIN1        0.0000 
     13 N9         18.6620  -14.3740   22.2720 N.am      1 MIN1        0.0000 
     14 C9         18.5150  -13.0970   21.5690 C.3       1 MIN1        0.0000 
     15 C8         17.1170  -13.0170   20.9440 C.2       1 MIN1        0.0000 
     16 O8         16.7290  -13.9670   20.2610 O.2       1 MIN1        0.0000 
     17 C10        19.5800  -13.0850   20.5050 C.3       1 MIN1        0.0000 
     18 C11        20.5550  -14.1330   20.9450 C.3       1 MIN1        0.0000 
     19 C12        19.7010  -15.1760   21.6260 C.3       1 MIN1        0.0000 
     20 N7         16.3250  -11.9530   21.1710 N.am      1 MIN1        0.0000 
     21 C7         14.9980  -11.8090   20.5710 C.3       1 MIN1        0.0000 
     22 C4         13.9200  -11.8380   21.5900 C.3       1 MIN1        0.0000 
     23 C5         12.6590  -11.3000   20.9420 C.3       1 MIN1        0.0000 
     24 C6         11.5480  -11.3550   21.9740 C.3       1 MIN1        0.0000 
     25 C1         11.3220  -12.7910   22.5040 C.3       1 MIN1        0.0000 
     26 C2         12.5960  -13.2860   23.1240 C.3       1 MIN1        0.0000 
     27 C3         13.7450  -13.2510   22.1460 C.3       1 MIN1        0.0000 
     28 N1         10.3160  -12.8040   23.5250 N.4       1 MIN1        0.0000 
     29 H          18.6066  -16.7968   23.1595 H         1 MIN1        0.0000 
     30 H          18.5837  -17.2479   25.5811 H         1 MIN1        0.0000 
     31 H          17.7939  -15.6898   25.8786 H         1 MIN1        0.0000 
     32 H          20.9235  -17.0709   24.3990 H         1 MIN1        0.0000 
     33 H          19.1268  -13.9040   26.4385 H         1 MIN1        0.0000 
     34 H          23.0638  -15.9633   24.5579 H         1 MIN1        0.0000 
     35 H          21.2680  -12.7987   26.6068 H         1 MIN1        0.0000 
     36 H          23.2287  -13.8440   25.6916 H         1 MIN1        0.0000 
     37 H          18.6600  -12.2849   22.2319 H         1 MIN1        0.0000 
     38 H          20.0544  -12.1283   20.4766 H         1 MIN1        0.0000 
     39 H          19.1542  -13.3499   19.5618 H         1 MIN1        0.0000 
     40 H          21.2494  -13.7222   21.6445 H         1 MIN1        0.0000 
     41 H          21.0434  -14.5630   20.0983 H         1 MIN1        0.0000 
     42 H          19.2859  -15.8269   20.8906 H         1 MIN1        0.0000 
     43 H          20.2894  -15.6987   22.3454 H         1 MIN1        0.0000 
     44 H          16.6258  -11.1702   21.7948 H         1 MIN1        0.0000 
     45 H          14.8256  -12.6188   19.8377 H         1 MIN1        0.0000 
     46 H          14.9395  -10.8587   20.0083 H         1 MIN1        0.0000 
     47 H          14.1941  -11.1746   22.4051 H         1 MIN1        0.0000 
     48 H          12.3966  -11.9133   20.0945 H         1 MIN1        0.0000 
     49 H          12.8168  -10.2785   20.6340 H         1 MIN1        0.0000 
     50 H          10.6154  -10.9979   21.5308 H         1 MIN1        0.0000 
     51 H          11.7975  -10.7086   22.8188 H         1 MIN1        0.0000 
     52 H          11.0650  -13.4195   21.6832 H         1 MIN1        0.0000 
     53 H          12.4554  -14.3155   23.4783 H         1 MIN1        0.0000 
     54 H          12.8450  -12.6658   23.9950 H         1 MIN1        0.0000 
     55 H          14.6633  -13.5515   22.6458 H         1 MIN1        0.0000 
     56 H          13.5486  -13.9342   21.3225 H         1 MIN1        0.0000 
     57 H          16.2993  -17.5632   21.9100 H         1 MIN1        0.0000 
     58 H          14.9476  -17.4808   22.7773 H         1 MIN1        0.0000 
     59 H          15.6066  -16.1383   22.1860 H         1 MIN1        0.0000 
     60 H          10.5681  -12.2274   24.3022 H         1 MIN1        0.0000 
     61 H           9.4371  -12.4695   23.1848 H         1 MIN1        0.0000 
     62 H          10.1607  -13.7252   23.8817 H         1 MIN1        0.0000 
@<TRIPOS>BOND
     1    2    1 1    
     2   12    1 1    
     3    3    2 1    
     4    5    2 1    
     5   29    2 1    
     6    4    3 2    
     7   13    3 am   
     8    6    5 1    
     9   30    5 1    
    10   31    5 1    
    11    7    6 ar   
    12    8    6 ar   
    13    9    7 ar   
    14   32    7 1    
    15   10    8 ar   
    16   33    8 1    
    17   11    9 ar   
    18   34    9 1    
    19   11   10 ar   
    20   35   10 1    
    21   36   11 1    
    22   57   12 1    
    23   58   12 1    
    24   59   12 1    
    25   14   13 1    
    26   19   13 1    
    27   15   14 1    
    28   17   14 1    
    29   37   14 1    
    30   16   15 2    
    31   20   15 am   
    32   18   17 1    
    33   38   17 1    
    34   39   17 1    
    35   19   18 1    
    36   40   18 1    
    37   41   18 1    
    38   42   19 1    
    39   43   19 1    
    40   21   20 1    
    41   44   20 1    
    42   22   21 1    
    43   45   21 1    
    44   46   21 1    
    45   23   22 1    
    46   27   22 1    
    47   47   22 1    
    48   24   23 1    
    49   48   23 1    
    50   49   23 1    
    51   25   24 1    
    52   50   24 1    
    53   51   24 1    
    54   26   25 1    
    55   28   25 1    
    56   52   25 1    
    57   27   26 1    
    58   53   26 1    
    59   54   26 1    
    60   55   27 1    
    61   56   27 1    
    62   60   28 1    
    63   61   28 1    
    64   62   28 1    
@<TRIPOS>SUBSTRUCTURE
     1 MIN1        1 GROUP   
@<TRIPOS>SET

