#    Name: 2ixb_NAD_1_INTS_M
#    Modification time : Tue Mar 25 18:56:53 2014

@<TRIPOS>MOLECULE
2ixb_NAD_1_INTS_M
  100     0     9     0     0
SMALL
NO_CHARGES


@<TRIPOS>ATOM
      1 N         -16.4380   38.3355    2.1600 N.am      2 SEC2        0.0000 
      2 N         -17.6340   38.6440    1.3780 N.am      8 SEL2        0.0000 
      3 N         -15.2420   38.0270    2.9420 N.am      5 SEP2        0.0000 
      4 N         -19.6330   41.6425   -0.1855 N.am      2 SEC2        0.0000 
      5 N         -19.1400   40.5620    0.7870 N.am      8 SEL2        0.0000 
      6 N         -20.1260   42.7230   -1.1580 N.am      5 SEP2        0.0000 
      7 N         -19.8705   40.1710    1.8875 N.am      2 SEC2        0.0000 
      8 N         -20.6010   39.7800    2.9880 N.am      5 SEP2        0.0000 
      9 CA        -14.8655   40.1010   -3.7070 C.3       3 GLC5        0.0000 
     10 CA        -16.0750   39.1080   -2.4400 C.3       9 GLL5        0.0000 
     11 CA        -13.6560   41.0940   -4.9740 C.3       6 GLP5        0.0000 
     12 CA        -19.1845   38.0035   -3.2885 C.3       3 GLC5        0.0000 
     13 CA        -17.0550   37.9570   -2.6770 C.3       9 GLL5        0.0000 
     14 CA        -21.3140   38.0500   -3.9000 C.3       6 GLP5        0.0000 
     15 O         -17.7015   37.5865   -5.0245 O.2       1 ALC1        0.0000 
     16 O         -18.0060   38.3190   -3.6560 O.2       7 ALL1        0.0000 
     17 O         -17.3970   36.8540   -6.3930 O.2       4 ALP1        0.0000 
     18 O         -17.6745   38.6725   -4.9400 O.2       1 ALC1        0.0000 
     19 O         -17.3430   39.0260   -6.2240 O.2       4 ALP1        0.0000 
     20 O         -17.1185   36.3850   -5.2180 O.2       1 ALC1        0.0000 
     21 O         -16.8400   35.9160   -4.0430 O.2       7 ALL1        0.0000 
     22 CA        -14.3425   39.3350   -4.3760 C.3       3 GLC5        0.0000 
     23 CA        -15.0290   37.5760   -3.7780 C.3       9 GLL5        0.0000 
     24 CA        -14.9980   36.2440   -5.5555 C.3       3 GLC5        0.0000 
     25 CA        -14.9670   34.9120   -7.3330 C.3       6 GLP5        0.0000 
     26 CA        -13.5350   37.9130   -2.2810 C.3       3 GLC5        0.0000 
     27 CA        -12.0410   38.2500   -0.7840 C.3       6 GLP5        0.0000 
     28 CA        -10.7935   33.9530   -6.9625 C.3       3 GLC5        0.0000 
     29 CA        -11.0220   35.7970   -5.9070 C.3       9 GLL5        0.0000 
     30 CA        -10.5650   32.1090   -8.0180 C.3       6 GLP5        0.0000 
     31 O          -9.5860   34.4895   -7.1575 O.2       1 ALC1        0.0000 
     32 O          -9.9790   34.9950   -5.7340 O.2       7 ALL1        0.0000 
     33 O          -9.1930   33.9840   -8.5810 O.2       4 ALP1        0.0000 
     34 CA        -11.0820   39.0300   -7.6010 C.3       3 GLC5        0.0000 
     35 CA        -12.2520   37.3270   -7.2750 C.3       9 GLL5        0.0000 
     36 CA         -9.9120   40.7330   -7.9270 C.3       6 GLP5        0.0000 
     37 CA        -13.3320   39.2105   -6.7880 C.3       3 GLC5        0.0000 
     38 CA        -14.4120   41.0940   -6.3010 C.3       6 GLP5        0.0000 
     39 CA        -14.0920   37.2655   -8.1085 C.3       3 GLC5        0.0000 
     40 CA        -15.9320   37.2040   -8.9420 C.3       6 GLP5        0.0000 
     41 CA        -13.6095   36.1195   -7.3040 C.3       3 GLC5        0.0000 
     42 CA        -13.3470   38.9660   -5.0380 C.3       3 GLC5        0.0000 
     43 CA        -13.0380   36.8380   -5.1020 C.3       9 GLL5        0.0000 
     44 N         -17.2745   43.1070    4.1550 N.am      2 SEC2        0.0000 
     45 N         -17.6920   43.1200    2.9070 N.am      8 SEL2        0.0000 
     46 N         -16.8570   43.0940    5.4030 N.am      5 SEP2        0.0000 
     47 N         -18.0645   44.1785   -0.0615 N.am      2 SEC2        0.0000 
     48 N         -17.2450   43.1600    0.4320 N.am      8 SEL2        0.0000 
     49 N         -18.8840   45.1970   -0.5550 N.am      5 SEP2        0.0000 
     50 CA        -15.5690   44.6835    0.6865 C.3       3 GLC5        0.0000 
     51 CA        -14.2960   42.9840    1.1620 C.3       9 GLL5        0.0000 
     52 CA        -16.8420   46.3830    0.2110 C.3       6 GLP5        0.0000 
     53 CA        -14.2475   41.5340    2.5495 C.3       3 GLC5        0.0000 
     54 CA        -14.1990   40.0840    3.9370 C.3       6 GLP5        0.0000 
     55 CA        -12.8445   44.2320   -0.6385 C.3       3 GLC5        0.0000 
     56 CA        -13.1610   43.9260    1.5440 C.3       9 GLL5        0.0000 
     57 CA        -12.5280   44.5380   -2.8210 C.3       6 GLP5        0.0000 
     58 CA        -12.0150   45.5730    0.7280 C.3       3 GLC5        0.0000 
     59 CA        -10.8690   47.2200   -0.0880 C.3       6 GLP5        0.0000 
     60 O         -10.3755   45.1315    3.4035 O.2       1 ALC1        0.0000 
     61 O         -11.1120   43.8840    2.7860 O.2       7 ALL1        0.0000 
     62 O          -9.6390   46.3790    4.0210 O.2       4 ALP1        0.0000 
     63 N         -11.4760   43.6405    5.4615 N.am      2 SEC2        0.0000 
     64 N         -12.4310   44.7600    5.0170 N.am      8 SEL2        0.0000 
     65 N         -10.5210   42.5210    5.9060 N.am      5 SEP2        0.0000 
     66 N         -12.6685   45.8440    5.8115 N.am      2 SEC2        0.0000 
     67 N         -12.9060   46.9280    6.6060 N.am      5 SEP2        0.0000 
     68 O         -11.0350   45.5695    4.5190 O.2       1 ALC1        0.0000 
     69 O         -12.4310   44.7600    5.0170 O.2       7 ALL1        0.0000 
     70 CA        -14.7150   46.6950    1.6235 C.3       3 GLC5        0.0000 
     71 CA        -13.4280   45.7170    3.0140 C.3       9 GLL5        0.0000 
     72 CA        -16.0020   47.6730    0.2330 C.3       6 GLP5        0.0000 
     73 CA        -12.1485   46.4685    1.4630 C.3       3 GLC5        0.0000 
     74 CA        -15.1315   47.8120    1.8945 C.3       3 GLC5        0.0000 
     75 CA        -14.2610   47.9510    3.5560 C.3       9 GLL5        0.0000 
     76 CA        -12.4715   48.6815    4.2300 C.3       3 GLC5        0.0000 
     77 CA        -10.6820   49.4120    4.9040 C.3       6 GLP5        0.0000 
     78 N         -15.9740   52.5930    4.2160 N.am      2 SEC2        0.0000 
     79 N         -16.0000   51.2060    4.4390 N.am      8 SEL2        0.0000 
     80 N         -15.9480   53.9800    3.9930 N.am      5 SEP2        0.0000 
     81 O         -13.7405   52.2750    4.1345 O.2       1 ALC1        0.0000 
     82 O         -13.7520   50.7660    3.8550 O.2       7 ALL1        0.0000 
     83 O         -13.7290   53.7840    4.4140 O.2       4 ALP1        0.0000 
     84 O         -13.0030   49.9415    2.6315 O.2       1 ALC1        0.0000 
     85 O         -12.2540   49.1170    1.4080 O.2       4 ALP1        0.0000 
     86 CA        -14.0220   38.7815   -1.2468 C.3       3 GLC5        0.0000 
     87 CA        -17.8245   40.0165   -2.5591 C.3       3 GLC5        0.0000 
     88 CA        -15.9310   39.5180   -0.9790 C.3       9 GLL5        0.0000 
     89 CA        -19.1200   41.3980   -2.9250 C.3       6 GLP5        0.0000 
     90 CA        -13.6159   35.6377   -6.2923 C.3       3 GLC5        0.0000 
     91 CA        -11.2830   42.9875    4.1627 C.3       3 GLC5        0.0000 
     92 CA        -12.4900   43.5860    2.8630 C.3       9 GLL5        0.0000 
     93 CA         -9.7240   41.9410    4.9590 C.3       6 GLP5        0.0000 
     94 CA        -13.0035   42.2640    4.0537 C.3       3 GLC5        0.0000 
     95 CA        -13.1650   40.4940    4.7410 C.3       6 GLP5        0.0000 
     96 CA        -16.3850   48.7482    2.2865 C.3       3 GLC5        0.0000 
     97 CA        -15.2730   48.8500    3.9080 C.3       9 GLL5        0.0000 
     98 CA        -16.8530   48.8860    0.5630 C.3       6 GLP5        0.0000 
     99 CA        -16.5740   46.4830    2.0103 C.3       3 GLC5        0.0000 
    100 CA        -16.8180   47.0140    3.9860 C.3       9 GLL5        0.0000 
@<TRIPOS>BOND
@<TRIPOS>SUBSTRUCTURE
     1 ALC1       15 GROUP        1 X    ALC  0     ROOT ALC X 1
     2 SEC2        1 GROUP        1 X    SEC  0     **** SEC X 2
     3 GLC5        9 GROUP        1 X    GLC  0     **** GLC X 6
     4 ALP1       17 GROUP        1 Y    ALP  0     ROOT ALP Y 8
     5 SEP2        3 GROUP        1 Y    SEP  0     **** SEP Y 9
     6 GLP5       11 GROUP        1 Y    GLP  0     **** GLP Y 13
     7 ALL1       16 GROUP        1 Z    ALL  0     ROOT ALL Z 15
     8 SEL2        2 GROUP        1 Z    SEL  0     **** SEL Z 16
     9 GLL5       10 GROUP        1 Z    GLL  0     **** GLL Z 20
@<TRIPOS>SET

