#    Name: 2ixb_NAD_1_ligand
#    Modification time : Tue Mar 25 18:56:53 2014

@<TRIPOS>MOLECULE
2ixb_NAD_1_ligand
   70    74     1     0     0
SMALL
NO_CHARGES


@<TRIPOS>ATOM
      1 PA        -17.7420   40.0840    0.8650 P.3       1 NAD1445     0.0000 
      2 O1A       -17.6340   38.6440    1.3780 O.co2     1 NAD1445     0.0000 
      3 O2A       -19.1400   40.5620    0.7870 O.co2     1 NAD1445     0.0000 
      4 O5B       -17.0990   40.2120   -0.5990 O.3       1 NAD1445     0.0000 
      5 C5B       -15.9310   39.5180   -0.9790 C.3       1 NAD1445     0.0000 
      6 C4B       -16.0750   39.1080   -2.4400 C.3       1 NAD1445     0.0000 
      7 O4B       -14.8200   38.6610   -2.9040 O.3       1 NAD1445     0.0000 
      8 C3B       -17.0550   37.9570   -2.6770 C.3       1 NAD1445     0.0000 
      9 O3B       -18.0060   38.3190   -3.6560 O.3       1 NAD1445     0.0000 
     10 C2B       -16.1830   36.8030   -3.1510 C.3       1 NAD1445     0.0000 
     11 O2B       -16.8400   35.9160   -4.0430 O.3       1 NAD1445     0.0000 
     12 C1B       -15.0290   37.5760   -3.7780 C.3       1 NAD1445     0.0000 
     13 N9A       -13.7930   36.8060   -3.9610 N.pl3     1 NAD1445     0.0000 
     14 C8A       -13.1910   35.9600   -3.0740 C.2       1 NAD1445     0.0000 
     15 N7A       -12.0780   35.4640   -3.6510 N.2       1 NAD1445     0.0000 
     16 C5A       -11.9610   35.9810   -4.8950 C.ar      1 NAD1445     0.0000 
     17 C6A       -11.0220   35.7970   -5.9070 C.ar      1 NAD1445     0.0000 
     18 N6A        -9.9790   34.9950   -5.7340 N.pl3     1 NAD1445     0.0000 
     19 N1A       -11.1770   36.4750   -7.0900 N.ar      1 NAD1445     0.0000 
     20 C2A       -12.2520   37.3270   -7.2750 C.ar      1 NAD1445     0.0000 
     21 N3A       -13.1880   37.5050   -6.2770 N.ar      1 NAD1445     0.0000 
     22 C4A       -13.0380   36.8380   -5.1020 C.ar      1 NAD1445     0.0000 
     23 O3        -16.8300   41.0420    1.7970 O.3       1 NAD1445     0.0000 
     24 PN        -16.8730   42.6550    1.7670 P.3       1 NAD1445     0.0000 
     25 O1N       -17.6920   43.1200    2.9070 O.co2     1 NAD1445     0.0000 
     26 O2N       -17.2450   43.1600    0.4320 O.co2     1 NAD1445     0.0000 
     27 O5D       -15.3430   43.0260    2.1080 O.3       1 NAD1445     0.0000 
     28 C5D       -14.2960   42.9840    1.1620 C.3       1 NAD1445     0.0000 
     29 C4D       -13.1610   43.9260    1.5440 C.3       1 NAD1445     0.0000 
     30 O4D       -13.6990   45.2160    1.7090 O.3       1 NAD1445     0.0000 
     31 C3D       -12.4900   43.5860    2.8630 C.3       1 NAD1445     0.0000 
     32 O3D       -11.1120   43.8840    2.7860 O.3       1 NAD1445     0.0000 
     33 C2D       -13.1940   44.4820    3.8700 C.3       1 NAD1445     0.0000 
     34 O2D       -12.4310   44.7600    5.0170 O.3       1 NAD1445     0.0000 
     35 C1D       -13.4280   45.7170    3.0140 C.3       1 NAD1445     0.0000 
     36 N1N       -14.5330   46.6220    3.4230 N.pl3     1 NAD1445     0.0000 
     37 C2N       -14.2610   47.9510    3.5560 C.ar      1 NAD1445     0.0000 
     38 C3N       -15.2730   48.8500    3.9080 C.ar      1 NAD1445     0.0000 
     39 C7N       -14.9820   50.3120    4.0690 C.2       1 NAD1445     0.0000 
     40 O7N       -16.0000   51.2060    4.4390 O.2       1 NAD1445     0.0000 
     41 N7N       -13.7520   50.7660    3.8550 N.am      1 NAD1445     0.0000 
     42 C4N       -16.5610   48.3710    4.1120 C.ar      1 NAD1445     0.0000 
     43 C5N       -16.8180   47.0140    3.9860 C.ar      1 NAD1445     0.0000 
     44 C6N       -15.7940   46.1520    3.6330 C.ar      1 NAD1445     0.0000 
     45 H         -15.7791   38.6091   -0.3922 H         1 NAD1445     0.0000 
     46 H         -15.0347   40.1368   -0.8943 H         1 NAD1445     0.0000 
     47 H         -16.4078   39.9591   -3.0132 H         1 NAD1445     0.0000 
     48 H         -17.4817   37.6929   -1.7393 H         1 NAD1445     0.0000 
     49 H         -15.7916   36.3274   -2.2652 H         1 NAD1445     0.0000 
     50 H         -15.3866   37.9522   -4.7393 H         1 NAD1445     0.0000 
     51 H         -13.5140   35.7589   -2.1905 H         1 NAD1445     0.0000 
     52 H          -9.6201   34.9346   -4.8026 H         1 NAD1445     0.0000 
     53 H          -9.6463   34.5234   -6.5507 H         1 NAD1445     0.0000 
     54 H         -12.3531   37.8349   -8.1718 H         1 NAD1445     0.0000 
     55 H         -14.6409   43.2741    0.1521 H         1 NAD1445     0.0000 
     56 H         -13.8662   41.9695    1.0675 H         1 NAD1445     0.0000 
     57 H         -12.4195   43.9201    0.7670 H         1 NAD1445     0.0000 
     58 H         -12.7046   42.5780    3.0965 H         1 NAD1445     0.0000 
     59 H         -14.1547   44.0500    4.0627 H         1 NAD1445     0.0000 
     60 H         -12.4876   46.2765    2.9798 H         1 NAD1445     0.0000 
     61 H         -13.3044   48.3129    3.3989 H         1 NAD1445     0.0000 
     62 H         -13.0806   50.0907    3.5497 H         1 NAD1445     0.0000 
     63 H         -13.6086   51.7421    4.0185 H         1 NAD1445     0.0000 
     64 H         -17.3191   49.0201    4.3551 H         1 NAD1445     0.0000 
     65 H         -17.7648   46.6511    4.1542 H         1 NAD1445     0.0000 
     66 H         -15.9992   45.1393    3.5298 H         1 NAD1445     0.0000 
     67 H         -17.4721   38.4923   -4.4836 H         1 NAD1445     0.0000 
     68 H         -17.3879   36.5052   -4.6369 H         1 NAD1445     0.0000 
     69 H         -11.0081   44.7538    3.2683 H         1 NAD1445     0.0000 
     70 H         -11.6347   45.2638    4.6821 H         1 NAD1445     0.0000 
@<TRIPOS>BOND
     1    2    1 ar   
     2    3    1 ar   
     3    4    1 1    
     4   23    1 1    
     5    5    4 1    
     6    6    5 1    
     7   45    5 1    
     8   46    5 1    
     9    7    6 1    
    10    8    6 1    
    11   47    6 1    
    12   12    7 1    
    13    9    8 1    
    14   10    8 1    
    15   48    8 1    
    16   67    9 1    
    17   11   10 1    
    18   12   10 1    
    19   49   10 1    
    20   68   11 1    
    21   13   12 1    
    22   50   12 1    
    23   14   13 1    
    24   22   13 1    
    25   15   14 2    
    26   51   14 1    
    27   16   15 1    
    28   17   16 ar   
    29   22   16 ar   
    30   18   17 1    
    31   19   17 ar   
    32   52   18 1    
    33   53   18 1    
    34   20   19 ar   
    35   21   20 ar   
    36   54   20 1    
    37   22   21 ar   
    38   24   23 1    
    39   25   24 ar   
    40   26   24 ar   
    41   27   24 1    
    42   28   27 1    
    43   29   28 1    
    44   55   28 1    
    45   56   28 1    
    46   30   29 1    
    47   31   29 1    
    48   57   29 1    
    49   35   30 1    
    50   32   31 1    
    51   33   31 1    
    52   58   31 1    
    53   69   32 1    
    54   34   33 1    
    55   35   33 1    
    56   59   33 1    
    57   70   34 1    
    58   36   35 1    
    59   60   35 1    
    60   37   36 ar   
    61   44   36 ar   
    62   38   37 ar   
    63   61   37 1    
    64   39   38 1    
    65   42   38 ar   
    66   40   39 2    
    67   41   39 am   
    68   62   41 1    
    69   63   41 1    
    70   43   42 ar   
    71   64   42 1    
    72   44   43 ar   
    73   65   43 1    
    74   66   44 1    
@<TRIPOS>SUBSTRUCTURE
     1 NAD1445     1 GROUP   
@<TRIPOS>SET

