#    Name: 1w1t_CHQ_2_INTS_M
#    Modification time : Tue Mar 25 08:26:59 2014

@<TRIPOS>MOLECULE
1w1t_CHQ_2_INTS_M
   24     0     3     0     0
SMALL
NO_CHARGES


@<TRIPOS>ATOM
      1 CA         19.1680   41.0325   93.7655 C.3       1 GLC5        0.0000 
      2 CA         20.5420   40.3050   94.9040 C.3       3 GLL5        0.0000 
      3 CA         17.7940   41.7600   92.6270 C.3       2 GLP5        0.0000 
      4 CA         22.4525   38.9555   96.0615 C.3       1 GLC5        0.0000 
      5 CA         20.8830   40.3930   96.3920 C.3       3 GLL5        0.0000 
      6 CA         24.0220   37.5180   95.7310 C.3       2 GLP5        0.0000 
      7 CA         17.6305   41.0410   98.0560 C.3       1 GLC5        0.0000 
      8 CA         19.4980   39.9780   98.4930 C.3       3 GLL5        0.0000 
      9 CA         15.7630   42.1040   97.6190 C.3       2 GLP5        0.0000 
     10 CA         19.3250   40.5270   92.4185 C.3       1 GLC5        0.0000 
     11 CA         20.8560   39.2940   92.2100 C.3       3 GLL5        0.0000 
     12 CA         23.1040   37.3180   91.4850 C.3       1 GLC5        0.0000 
     13 CA         21.6460   38.4860   91.1790 C.3       3 GLL5        0.0000 
     14 CA         24.5620   36.1500   91.7910 C.3       2 GLP5        0.0000 
     15 CA         23.9770   38.3560   90.9920 C.3       1 GLC5        0.0000 
     16 CA         22.4870   39.6100   90.5690 C.3       3 GLL5        0.0000 
     17 CA         25.4670   37.1020   91.4150 C.3       2 GLP5        0.0000 
     18 CA         22.4095   38.5470   88.6985 C.3       1 GLC5        0.0000 
     19 CA         22.3320   37.4840   86.8280 C.3       2 GLP5        0.0000 
     20 CA         22.3200   42.1185   91.7405 C.3       1 GLC5        0.0000 
     21 CA         23.0450   40.2970   91.8190 C.3       3 GLL5        0.0000 
     22 CA         21.5950   43.9400   91.6620 C.3       2 GLP5        0.0000 
     23 CA         24.0035   38.9360   92.6835 C.3       1 GLC5        0.0000 
     24 CA         24.9620   37.5750   93.5480 C.3       2 GLP5        0.0000 
@<TRIPOS>BOND
@<TRIPOS>SUBSTRUCTURE
     1 GLC5        1 GROUP        1 X    GLC  0     ROOT GLC X 6
     2 GLP5        3 GROUP        1 Y    GLP  0     ROOT GLP Y 13
     3 GLL5        2 GROUP        1 Z    GLL  0     ROOT GLL Z 20
@<TRIPOS>SET

