#    Name: 1w1t_CHQ_2_ligand
#    Modification time : Tue Mar 25 08:26:59 2014

@<TRIPOS>MOLECULE
1w1t_CHQ_2_ligand
   31    33     1     0     0
SMALL
NO_CHARGES


@<TRIPOS>ATOM
      1 N          20.1470   38.9210   94.6020 N.am      1 CHQ1514     0.0000 
      2 CA         20.5420   40.3050   94.9040 C.3       1 CHQ1514     0.0000 
      3 C          21.7670   40.6700   94.0590 C.2       1 CHQ1514     0.0000 
      4 O          22.6280   41.4190   94.5190 O.2       1 CHQ1514     0.0000 
      5 CB         20.8830   40.3930   96.3920 C.3       1 CHQ1514     0.0000 
      6 ND1        19.0230   38.7050   96.8050 N.pl3     1 CHQ1514     0.0000 
      7 CE1        18.2670   38.4080   97.8550 C.2       1 CHQ1514     0.0000 
      8 NE2        18.5280   39.1680   98.9120 N.2       1 CHQ1514     0.0000 
      9 CD2        19.4980   39.9780   98.4930 C.2       1 CHQ1514     0.0000 
     10 CG         19.8000   39.7020   97.2250 C.2       1 CHQ1514     0.0000 
     11 NP         21.9070   40.1650   92.7580 N.am      1 CHQ1514     0.0000 
     12 CAP        20.8560   39.2940   92.2100 C.3       1 CHQ1514     0.0000 
     13 CP         20.2100   38.4270   93.2940 C.2       1 CHQ1514     0.0000 
     14 OP         19.7470   37.3170   93.0350 O.2       1 CHQ1514     0.0000 
     15 CBP        21.6460   38.4860   91.1790 C.3       1 CHQ1514     0.0000 
     16 CGP        22.4870   39.6100   90.5690 C.3       1 CHQ1514     0.0000 
     17 CDP        23.0450   40.2970   91.8190 C.3       1 CHQ1514     0.0000 
     18 H          19.8277   38.3389   95.3759 H         1 CHQ1514     0.0000 
     19 H          19.7503   40.9800   94.6857 H         1 CHQ1514     0.0000 
     20 H          20.9488   41.4364   96.6848 H         1 CHQ1514     0.0000 
     21 H          21.8373   39.9074   96.5716 H         1 CHQ1514     0.0000 
     22 H          19.0141   38.2998   95.9469 H         1 CHQ1514     0.0000 
     23 H          17.5716   37.6854   97.8505 H         1 CHQ1514     0.0000 
     24 H          19.9265   40.6739   99.0360 H         1 CHQ1514     0.0000 
     25 H          20.1347   39.8765   91.6986 H         1 CHQ1514     0.0000 
     26 H          20.9986   38.0951   90.4598 H         1 CHQ1514     0.0000 
     27 H          22.2659   37.7996   91.6625 H         1 CHQ1514     0.0000 
     28 H          21.8663   40.2761   90.0422 H         1 CHQ1514     0.0000 
     29 H          23.2747   39.2016   90.0040 H         1 CHQ1514     0.0000 
     30 H          23.8876   39.7601   92.1620 H         1 CHQ1514     0.0000 
     31 H          23.2421   41.3109   91.5978 H         1 CHQ1514     0.0000 
@<TRIPOS>BOND
     1    2    1 1    
     2   13    1 am   
     3   18    1 1    
     4    3    2 1    
     5    5    2 1    
     6   19    2 1    
     7    4    3 2    
     8   11    3 am   
     9   10    5 1    
    10   20    5 1    
    11   21    5 1    
    12    7    6 1    
    13   10    6 1    
    14   22    6 1    
    15    8    7 2    
    16   23    7 1    
    17    9    8 1    
    18   10    9 2    
    19   24    9 1    
    20   12   11 1    
    21   17   11 1    
    22   13   12 1    
    23   15   12 1    
    24   25   12 1    
    25   14   13 2    
    26   16   15 1    
    27   26   15 1    
    28   27   15 1    
    29   17   16 1    
    30   28   16 1    
    31   29   16 1    
    32   30   17 1    
    33   31   17 1    
@<TRIPOS>SUBSTRUCTURE
     1 CHQ1514     1 GROUP   
@<TRIPOS>SET

