#    Name: 4gbv_AMP_1_INTS_M
#    Modification time : Mon Mar 24 21:39:34 2014

@<TRIPOS>MOLECULE
4gbv_AMP_1_INTS_M
   37     0    12     0     0
SMALL
NO_CHARGES


@<TRIPOS>ATOM
      1 NZ         23.0355    7.3585    9.1485 N.4       3 LYC4        0.0000 
      2 NZ         24.1610    8.6740    8.9210 N.4      11 LYL4        0.0000 
      3 NZ         21.9100    6.0430    9.3760 N.4       7 LYP4        0.0000 
      4 N          24.0470    9.2255   10.0820 N.am      2 SEC2        0.0000 
      5 N          24.1610    8.6740    8.9210 N.am     10 SEL2        0.0000 
      6 N          23.9330    9.7770   11.2430 N.am      6 SEP2        0.0000 
      7 N          26.5385    8.5170    6.2410 N.am      2 SEC2        0.0000 
      8 N          25.7350    9.6490    7.1770 N.am     10 SEL2        0.0000 
      9 N          27.3420    7.3850    5.3050 N.am      6 SEP2        0.0000 
     10 N          25.0665   10.8690    7.3275 N.am      2 SEC2        0.0000 
     11 N          24.3980   12.0890    7.4780 N.am      6 SEP2        0.0000 
     12 N          26.4210    7.2640    6.3670 N.am      2 SEC2        0.0000 
     13 N          25.5000    7.1430    7.4290 N.am     10 SEL2        0.0000 
     14 CA         31.3555    9.0265   10.7510 C.3       4 GLC5        0.0000 
     15 CA         29.3710    9.2600   11.1780 C.3      12 GLL5        0.0000 
     16 CA         33.3400    8.7930   10.3240 C.3       8 GLP5        0.0000 
     17 CA         27.9415   12.3375    9.1610 C.3       4 GLC5        0.0000 
     18 CA         29.7700   12.2790    9.1350 C.3      12 GLL5        0.0000 
     19 CA         26.1130   12.3960    9.1870 C.3       8 GLP5        0.0000 
     20 O          31.6435   15.1375    7.3290 O.2       1 ALC1        0.0000 
     21 O          30.2130   14.3800    7.9530 O.2       9 ALL1        0.0000 
     22 O          33.0740   15.8950    6.7050 O.2       5 ALP1        0.0000 
     23 O          29.2645   14.3450    6.5610 O.2       1 ALC1        0.0000 
     24 O          28.3160   14.3100    5.1690 O.2       5 ALP1        0.0000 
     25 CA         32.0465   12.6430    9.2120 C.3       4 GLC5        0.0000 
     26 CA         31.6250   13.0790   11.0420 C.3      12 GLL5        0.0000 
     27 CA         32.4680   12.2070    7.3820 C.3       8 GLP5        0.0000 
     28 CA         30.2825   13.9065   12.0725 C.3       4 GLC5        0.0000 
     29 CA         28.9400   14.7340   13.1030 C.3       8 GLP5        0.0000 
     30 CA         31.7235   10.1255   10.3155 C.3       4 GLC5        0.0000 
     31 CA         30.1070   11.4580   10.3070 C.3      12 GLL5        0.0000 
     32 CA         28.0835   11.8715   10.5110 C.3       4 GLC5        0.0000 
     33 CA         26.0600   12.2850   10.7150 C.3       8 GLP5        0.0000 
     34 CA         29.5235   13.0960   11.7050 C.3       4 GLC5        0.0000 
     35 CA         26.9580   10.9050   11.4698 C.3       4 GLC5        0.0000 
     36 CA         28.5410    9.8370   12.3150 C.3      12 GLL5        0.0000 
     37 CA         31.2909   12.1991    8.5360 C.3       4 GLC5        0.0000 
@<TRIPOS>BOND
@<TRIPOS>SUBSTRUCTURE
     1 ALC1       20 GROUP        1 X    ALC  0     ROOT ALC X 1
     2 SEC2        4 GROUP        1 X    SEC  0     **** SEC X 2
     3 LYC4        1 GROUP        1 X    LYC  0     **** LYC X 4
     4 GLC5       14 GROUP        1 X    GLC  0     **** GLC X 6
     5 ALP1       22 GROUP        1 Y    ALP  0     ROOT ALP Y 8
     6 SEP2        6 GROUP        1 Y    SEP  0     **** SEP Y 9
     7 LYP4        3 GROUP        1 Y    LYP  0     **** LYP Y 11
     8 GLP5       16 GROUP        1 Y    GLP  0     **** GLP Y 13
     9 ALL1       21 GROUP        1 Z    ALL  0     ROOT ALL Z 15
    10 SEL2        5 GROUP        1 Z    SEL  0     **** SEL Z 16
    11 LYL4        2 GROUP        1 Z    LYL  0     **** LYL Z 18
    12 GLL5       15 GROUP        1 Z    GLL  0     **** GLL Z 20
@<TRIPOS>SET

