#    Name: 4gbv_AMP_1_ligand
#    Modification time : Mon Mar 24 21:39:34 2014

@<TRIPOS>MOLECULE
4gbv_AMP_1_ligand
   35    37     1     0     0
SMALL
NO_CHARGES


@<TRIPOS>ATOM
      1 P          25.4140    8.4900    8.0900 P.3       1 AMP405      0.0000 
      2 O1P        24.1610    8.6740    8.9210 O.co2     1 AMP405      0.0000 
      3 O2P        25.7350    9.6490    7.1770 O.co2     1 AMP405      0.0000 
      4 O3P        25.5000    7.1430    7.4290 O.co2     1 AMP405      0.0000 
      5 O5'        26.6180    8.3820    9.1430 O.3       1 AMP405      0.0000 
      6 C5'        26.3720    7.6170   10.3130 C.3       1 AMP405      0.0000 
      7 C4'        27.4400    7.9330   11.3480 C.3       1 AMP405      0.0000 
      8 O4'        28.6860    8.1070   10.6750 O.3       1 AMP405      0.0000 
      9 C3'        27.1710    9.2130   12.1340 C.3       1 AMP405      0.0000 
     10 O3'        26.5570    8.9440   13.3930 O.3       1 AMP405      0.0000 
     11 C2'        28.5410    9.8370   12.3150 C.3       1 AMP405      0.0000 
     12 O2'        29.1380    9.5530   13.5860 O.3       1 AMP405      0.0000 
     13 C1'        29.3710    9.2600   11.1780 C.3       1 AMP405      0.0000 
     14 N9         29.3710   10.3580   10.1850 N.pl3     1 AMP405      0.0000 
     15 C8         28.6100   10.4460    9.0720 C.2       1 AMP405      0.0000 
     16 N7         28.8500   11.6080    8.4170 N.2       1 AMP405      0.0000 
     17 C5         29.7700   12.2790    9.1350 C.ar      1 AMP405      0.0000 
     18 C6         30.4710   13.5700    9.0110 C.ar      1 AMP405      0.0000 
     19 N6         30.2130   14.3800    7.9530 N.pl3     1 AMP405      0.0000 
     20 N1         31.3630   13.8880    9.9870 N.ar      1 AMP405      0.0000 
     21 C2         31.6250   13.0790   11.0420 C.ar      1 AMP405      0.0000 
     22 N3         31.0200   11.8920   11.2140 N.ar      1 AMP405      0.0000 
     23 C4         30.1070   11.4580   10.3070 C.ar      1 AMP405      0.0000 
     24 H          26.4062    6.5406   10.1130 H         1 AMP405      0.0000 
     25 H          25.3969    7.8477   10.7554 H         1 AMP405      0.0000 
     26 H          27.5059    7.1119   12.0458 H         1 AMP405      0.0000 
     27 H          26.5911    9.8636   11.5130 H         1 AMP405      0.0000 
     28 H          28.4471   10.8977   12.1305 H         1 AMP405      0.0000 
     29 H          30.3329    9.0709   11.5270 H         1 AMP405      0.0000 
     30 H          27.9717    9.7646    8.7770 H         1 AMP405      0.0000 
     31 H          30.7303   15.2350    7.9170 H         1 AMP405      0.0000 
     32 H          29.5284   14.0502    7.3030 H         1 AMP405      0.0000 
     33 H          32.3376   13.4005   11.7586 H         1 AMP405      0.0000 
     34 H          27.2899    9.0474   14.0656 H         1 AMP405      0.0000 
     35 H          29.8723   10.2249   13.6828 H         1 AMP405      0.0000 
@<TRIPOS>BOND
     1    2    1 ar   
     2    3    1 ar   
     3    4    1 ar   
     4    5    1 1    
     5    6    5 1    
     6    7    6 1    
     7   24    6 1    
     8   25    6 1    
     9    8    7 1    
    10    9    7 1    
    11   26    7 1    
    12   13    8 1    
    13   10    9 1    
    14   11    9 1    
    15   27    9 1    
    16   34   10 1    
    17   12   11 1    
    18   13   11 1    
    19   28   11 1    
    20   35   12 1    
    21   14   13 1    
    22   29   13 1    
    23   15   14 1    
    24   23   14 1    
    25   16   15 2    
    26   30   15 1    
    27   17   16 1    
    28   18   17 ar   
    29   23   17 ar   
    30   19   18 1    
    31   20   18 ar   
    32   31   19 1    
    33   32   19 1    
    34   21   20 ar   
    35   22   21 ar   
    36   33   21 1    
    37   23   22 ar   
@<TRIPOS>SUBSTRUCTURE
     1 AMP405      1 GROUP   
@<TRIPOS>SET

