#    Name: 2fgh_ATP_2_INTS_M
#    Modification time : Tue Mar 25 12:33:30 2014

@<TRIPOS>MOLECULE
2fgh_ATP_2_INTS_M
   60     0    12     0     0
SMALL
NO_CHARGES


@<TRIPOS>ATOM
      1 NZ         44.8145   92.6540   53.1425 N.4       3 LYC4        0.0000 
      2 NZ         45.4160   91.9820   54.2440 N.4      11 LYL4        0.0000 
      3 NZ         44.2130   93.3260   52.0410 N.4       7 LYP4        0.0000 
      4 NZ         46.6930   92.4270   54.9015 N.4       3 LYC4        0.0000 
      5 NZ         49.1540   92.6040   55.0360 N.4       7 LYP4        0.0000 
      6 N          46.6930   92.4270   54.9015 N.am      2 SEC2        0.0000 
      7 N          45.4160   91.9820   54.2440 N.am     10 SEL2        0.0000 
      8 N          47.9700   92.8720   55.5590 N.am      6 SEP2        0.0000 
      9 NZ         44.3540   91.5885   52.6735 N.4       3 LYC4        0.0000 
     10 NZ         44.4950   89.8510   53.3060 N.4      11 LYL4        0.0000 
     11 NZ         48.1445   90.8140   53.9500 N.4       3 LYC4        0.0000 
     12 NZ         47.0010   90.0420   53.6910 N.4      11 LYL4        0.0000 
     13 N          48.1445   90.8140   53.9500 N.am      2 SEC2        0.0000 
     14 N          47.0010   90.0420   53.6910 N.am     10 SEL2        0.0000 
     15 N          49.2880   91.5860   54.2090 N.am      6 SEP2        0.0000 
     16 N          44.9010   86.8020   57.8690 N.am      2 SEC2        0.0000 
     17 N          45.6010   88.2720   57.5650 N.am     10 SEL2        0.0000 
     18 N          44.2010   85.3320   58.1730 N.am      6 SEP2        0.0000 
     19 NZ         48.4485   90.8975   55.7770 N.4       3 LYC4        0.0000 
     20 NZ         47.7430   89.1910   56.5180 N.4      11 LYL4        0.0000 
     21 NZ         48.7325   89.9525   57.0925 N.4       3 LYC4        0.0000 
     22 NZ         50.2060   91.7400   58.3390 N.4       7 LYP4        0.0000 
     23 N          48.7325   89.9525   57.0925 N.am      2 SEC2        0.0000 
     24 N          47.7430   89.1910   56.5180 N.am     10 SEL2        0.0000 
     25 N          49.7220   90.7140   57.6670 N.am      6 SEP2        0.0000 
     26 NZ         46.7965   85.2470   57.9070 N.4       3 LYC4        0.0000 
     27 NZ         47.5610   86.4450   57.1040 N.4      11 LYL4        0.0000 
     28 NZ         44.7160   84.2280   58.7010 N.4       7 LYP4        0.0000 
     29 N          46.7965   85.2470   57.9070 N.am      2 SEC2        0.0000 
     30 N          47.5610   86.4450   57.1040 N.am     10 SEL2        0.0000 
     31 N          46.0320   84.0490   58.7100 N.am      6 SEP2        0.0000 
     32 CA         46.8385   83.7845   53.2080 C.3       4 GLC5        0.0000 
     33 CA         45.8760   85.4080   53.8020 C.3      12 GLL5        0.0000 
     34 CA         47.8010   82.1610   52.6140 C.3       8 GLP5        0.0000 
     35 N          41.2635   84.8380   56.2950 N.am      2 SEC2        0.0000 
     36 N          42.1050   83.6660   55.6640 N.am     10 SEL2        0.0000 
     37 N          40.4220   86.0100   56.9260 N.am      6 SEP2        0.0000 
     38 O          42.4730   82.3795   56.1080 O.2       1 ALC1        0.0000 
     39 O          42.1050   83.6660   55.6640 O.2       9 ALL1        0.0000 
     40 O          42.8410   81.0930   56.5520 O.2       5 ALP1        0.0000 
     41 CA         45.7375   82.7015   53.2490 C.3       4 GLC5        0.0000 
     42 CA         43.6740   83.2420   53.8840 C.3      12 GLL5        0.0000 
     43 CA         46.9310   78.1750   52.5245 C.3       4 GLC5        0.0000 
     44 CA         45.7050   78.8690   53.9720 C.3      12 GLL5        0.0000 
     45 CA         48.1570   77.4810   51.0770 C.3       8 GLP5        0.0000 
     46 O          46.5315   77.1675   55.5795 O.2       1 ALC1        0.0000 
     47 O          46.5170   78.1130   54.7030 O.2       9 ALL1        0.0000 
     48 O          46.5460   76.2220   56.4560 O.2       5 ALP1        0.0000 
     49 CA         42.7765   77.6545   51.9245 C.3       4 GLC5        0.0000 
     50 CA         43.8860   79.1390   52.4400 C.3      12 GLL5        0.0000 
     51 CA         41.6670   76.1700   51.4090 C.3       8 GLP5        0.0000 
     52 CA         42.2930   79.3470   53.6325 C.3       4 GLC5        0.0000 
     53 CA         40.7000   79.5550   54.8250 C.3       8 GLP5        0.0000 
     54 CA         45.1265   80.0455   51.1940 C.3       4 GLC5        0.0000 
     55 CA         46.3670   80.9520   49.9480 C.3       8 GLP5        0.0000 
     56 CA         42.6265   80.2540   54.2860 C.3       4 GLC5        0.0000 
     57 CA         44.5530   80.9530   53.7470 C.3      12 GLL5        0.0000 
     58 CA         45.4600   80.9525   51.8475 C.3       4 GLC5        0.0000 
     59 CA         46.4460   81.2003   53.2832 C.3       4 GLC5        0.0000 
     60 CA         45.5530   80.1830   54.3440 C.3      12 GLL5        0.0000 
@<TRIPOS>BOND
@<TRIPOS>SUBSTRUCTURE
     1 ALC1       38 GROUP        1 X    ALC  0     ROOT ALC X 1
     2 SEC2        6 GROUP        1 X    SEC  0     **** SEC X 2
     3 LYC4        1 GROUP        1 X    LYC  0     **** LYC X 4
     4 GLC5       32 GROUP        1 X    GLC  0     **** GLC X 6
     5 ALP1       40 GROUP        1 Y    ALP  0     ROOT ALP Y 8
     6 SEP2        8 GROUP        1 Y    SEP  0     **** SEP Y 9
     7 LYP4        3 GROUP        1 Y    LYP  0     **** LYP Y 11
     8 GLP5       34 GROUP        1 Y    GLP  0     **** GLP Y 13
     9 ALL1       39 GROUP        1 Z    ALL  0     ROOT ALL Z 15
    10 SEL2        7 GROUP        1 Z    SEL  0     **** SEL Z 16
    11 LYL4        2 GROUP        1 Z    LYL  0     **** LYL Z 18
    12 GLL5       33 GROUP        1 Z    GLL  0     **** GLL Z 20
@<TRIPOS>SET

