#    Name: 2fgh_ATP_2_ligand
#    Modification time : Tue Mar 25 12:33:31 2014

@<TRIPOS>MOLECULE
2fgh_ATP_2_ligand
   43    45     1     0     0
SMALL
NO_CHARGES


@<TRIPOS>ATOM
      1 PG         45.5940   90.4920   54.1770 P.3       1 ATP9380     0.0000 
      2 O1G        45.4160   91.9820   54.2440 O.co2     1 ATP9380     0.0000 
      3 O2G        44.4950   89.8510   53.3060 O.co2     1 ATP9380     0.0000 
      4 O3G        47.0010   90.0420   53.6910 O.co2     1 ATP9380     0.0000 
      5 PB         46.2550   88.8500   56.3540 P.3       1 ATP9380     0.0000 
      6 O1B        45.6010   88.2720   57.5650 O.co2     1 ATP9380     0.0000 
      7 O2B        47.7430   89.1910   56.5180 O.co2     1 ATP9380     0.0000 
      8 O3B        45.3560   90.0390   55.7140 O.3       1 ATP9380     0.0000 
      9 PA         47.2460   86.5390   55.6060 P.3       1 ATP9380     0.0000 
     10 O1A        48.4000   86.4700   54.6490 O.co2     1 ATP9380     0.0000 
     11 O2A        47.5610   86.4450   57.1040 O.co2     1 ATP9380     0.0000 
     12 O3A        46.2200   87.7250   55.2400 O.3       1 ATP9380     0.0000 
     13 O5'        46.1930   85.3920   55.2040 O.3       1 ATP9380     0.0000 
     14 C5'        45.8760   85.4080   53.8020 C.3       1 ATP9380     0.0000 
     15 C4'        44.3910   85.4100   53.5070 C.3       1 ATP9380     0.0000 
     16 O4'        44.0770   84.1810   52.8640 O.3       1 ATP9380     0.0000 
     17 C3'        43.4940   85.4420   54.7190 C.3       1 ATP9380     0.0000 
     18 O3'        42.2530   86.0040   54.3240 O.3       1 ATP9380     0.0000 
     19 C2'        43.3820   84.0050   55.1670 C.3       1 ATP9380     0.0000 
     20 O2'        42.1050   83.6660   55.6640 O.3       1 ATP9380     0.0000 
     21 C1'        43.6740   83.2420   53.8840 C.3       1 ATP9380     0.0000 
     22 N9         44.6300   82.2030   54.2740 N.pl3     1 ATP9380     0.0000 
     23 C8         45.6480   82.1960   55.2190 C.2       1 ATP9380     0.0000 
     24 N7         46.2180   80.9510   55.2440 N.2       1 ATP9380     0.0000 
     25 C5         45.5530   80.1830   54.3440 C.ar      1 ATP9380     0.0000 
     26 C6         45.7050   78.8690   53.9720 C.ar      1 ATP9380     0.0000 
     27 N6         46.5170   78.1130   54.7030 N.pl3     1 ATP9380     0.0000 
     28 N1         44.8660   78.3400   53.0110 N.ar      1 ATP9380     0.0000 
     29 C2         43.8860   79.1390   52.4400 C.ar      1 ATP9380     0.0000 
     30 N3         43.7290   80.4540   52.8110 N.ar      1 ATP9380     0.0000 
     31 C4         44.5530   80.9530   53.7470 C.ar      1 ATP9380     0.0000 
     32 H          46.3240   84.5284   53.2852 H         1 ATP9380     0.0000 
     33 H          46.3223   86.3003   53.3058 H         1 ATP9380     0.0000 
     34 H          44.1471   86.2317   52.8646 H         1 ATP9380     0.0000 
     35 H          43.9875   86.0079   55.4756 H         1 ATP9380     0.0000 
     36 H          44.1822   83.8013   55.8445 H         1 ATP9380     0.0000 
     37 H          42.7202   82.7633   53.6149 H         1 ATP9380     0.0000 
     38 H          45.9010   82.9442   55.7585 H         1 ATP9380     0.0000 
     39 H          47.4763   78.3945   54.7283 H         1 ATP9380     0.0000 
     40 H          46.0956   77.3309   55.1619 H         1 ATP9380     0.0000 
     41 H          43.2594   78.7300   51.7165 H         1 ATP9380     0.0000 
     42 H          42.4774   86.9213   53.9951 H         1 ATP9380     0.0000 
     43 H          42.2174   82.7584   56.0684 H         1 ATP9380     0.0000 
@<TRIPOS>BOND
     1    2    1 ar   
     2    3    1 ar   
     3    4    1 ar   
     4    8    1 1    
     5    6    5 ar   
     6    7    5 ar   
     7    8    5 1    
     8   12    5 1    
     9   10    9 ar   
    10   11    9 ar   
    11   12    9 1    
    12   13    9 1    
    13   14   13 1    
    14   15   14 1    
    15   32   14 1    
    16   33   14 1    
    17   16   15 1    
    18   17   15 1    
    19   34   15 1    
    20   21   16 1    
    21   18   17 1    
    22   19   17 1    
    23   35   17 1    
    24   42   18 1    
    25   20   19 1    
    26   21   19 1    
    27   36   19 1    
    28   43   20 1    
    29   22   21 1    
    30   37   21 1    
    31   23   22 1    
    32   31   22 1    
    33   24   23 2    
    34   38   23 1    
    35   25   24 1    
    36   26   25 ar   
    37   31   25 ar   
    38   27   26 1    
    39   28   26 ar   
    40   39   27 1    
    41   40   27 1    
    42   29   28 ar   
    43   30   29 ar   
    44   41   29 1    
    45   31   30 ar   
@<TRIPOS>SUBSTRUCTURE
     1 ATP9380     1 GROUP   
@<TRIPOS>SET

