#    Name: 1nlm_UD1_2_INTS_M
#    Modification time : Mon Mar 24 18:25:46 2014

@<TRIPOS>MOLECULE
1nlm_UD1_2_INTS_M
   70     0     9     0     0
SMALL
NO_CHARGES


@<TRIPOS>ATOM
      1 CA         75.1975  -56.8055   19.3690 C.3       3 GLC5        0.0000 
      2 CA         73.7600  -55.5820   18.7620 C.3       9 GLL5        0.0000 
      3 CA         76.6350  -58.0290   19.9760 C.3       6 GLP5        0.0000 
      4 CA         72.5720  -51.4520   21.8795 C.3       3 GLC5        0.0000 
      5 CA         73.5490  -53.1770   21.5900 C.3       9 GLL5        0.0000 
      6 CA         71.5950  -49.7270   22.1690 C.3       6 GLP5        0.0000 
      7 CA         73.4860  -53.6315   23.7465 C.3       3 GLC5        0.0000 
      8 CA         73.4230  -54.0860   25.9030 C.3       6 GLP5        0.0000 
      9 CA         74.5910  -51.7925   22.3215 C.3       3 GLC5        0.0000 
     10 CA         75.6330  -50.4080   23.0530 C.3       6 GLP5        0.0000 
     11 CA         72.5675  -59.3305   17.4745 C.3       3 GLC5        0.0000 
     12 CA         70.8870  -58.4980   18.3380 C.3       9 GLL5        0.0000 
     13 CA         74.2480  -60.1630   16.6110 C.3       6 GLP5        0.0000 
     14 O          68.9315  -54.5295   19.5785 O.2       1 ALC1        0.0000 
     15 O          70.0030  -55.4560   19.1180 O.2       7 ALL1        0.0000 
     16 O          67.8600  -53.6030   20.0390 O.2       4 ALP1        0.0000 
     17 N          71.0715  -52.0610   21.3615 N.am      2 SEC2        0.0000 
     18 N          70.8430  -52.9940   20.2900 N.am      8 SEL2        0.0000 
     19 N          71.3000  -51.1280   22.4330 N.am      5 SEP2        0.0000 
     20 O          69.3515  -53.2985   20.1645 O.2       1 ALC1        0.0000 
     21 O          70.8430  -52.9940   20.2900 O.2       7 ALL1        0.0000 
     22 O          82.9080  -59.3540   23.5680 O.2       1 ALC1        0.0000 
     23 O          82.1670  -58.5770   22.5720 O.2       7 ALL1        0.0000 
     24 O          83.6490  -60.1310   24.5640 O.2       4 ALP1        0.0000 
     25 N          81.6445  -55.8835   25.1640 N.am      2 SEC2        0.0000 
     26 N          81.4190  -57.3170   24.2880 N.am      8 SEL2        0.0000 
     27 N          81.8700  -54.4500   26.0400 N.am      5 SEP2        0.0000 
     28 N          83.5470  -60.9995   21.6400 N.am      2 SEC2        0.0000 
     29 N          82.9770  -59.8880   20.9350 N.am      8 SEL2        0.0000 
     30 N          84.1170  -62.1110   22.3450 N.am      5 SEP2        0.0000 
     31 CA         82.9205  -54.6325   22.8740 C.3       3 GLC5        0.0000 
     32 CA         80.9690  -54.1410   22.3220 C.3       9 GLL5        0.0000 
     33 CA         84.8720  -55.1240   23.4260 C.3       6 GLP5        0.0000 
     34 N          81.9455  -54.1530   24.6305 N.am      2 SEC2        0.0000 
     35 N          82.0210  -53.8560   23.2210 N.am      8 SEL2        0.0000 
     36 O          81.5035  -52.3705   23.6435 O.2       1 ALC1        0.0000 
     37 O          82.0210  -53.8560   23.2210 O.2       7 ALL1        0.0000 
     38 O          80.9860  -50.8850   24.0660 O.2       4 ALP1        0.0000 
     39 O          82.3555  -52.5830   22.9650 O.2       1 ALC1        0.0000 
     40 O          82.6900  -51.3100   22.7090 O.2       4 ALP1        0.0000 
     41 O          80.2605  -51.8475   23.9175 O.2       1 ALC1        0.0000 
     42 O          79.5350  -52.8100   23.7690 O.2       7 ALL1        0.0000 
     43 CA         79.7440  -52.2285   19.3150 C.3       3 GLC5        0.0000 
     44 CA         78.4120  -53.6700   20.3660 C.3       9 GLL5        0.0000 
     45 CA         81.0760  -50.7870   18.2640 C.3       6 GLP5        0.0000 
     46 N          78.9155  -52.2955   19.4740 N.am      2 SEC2        0.0000 
     47 N          77.4340  -52.6340   20.2150 N.am      8 SEL2        0.0000 
     48 N          80.3970  -51.9570   18.7330 N.am      5 SEP2        0.0000 
     49 N          76.7665  -49.4175   19.4145 N.am      2 SEC2        0.0000 
     50 N          76.2280  -50.9240   18.9770 N.am      8 SEL2        0.0000 
     51 N          77.3050  -47.9110   19.8520 N.am      5 SEP2        0.0000 
     52 N          79.1605  -52.1935   18.2745 N.am      2 SEC2        0.0000 
     53 N          77.9240  -52.4300   17.8160 N.am      8 SEL2        0.0000 
     54 N          77.2050  -56.3615   17.7510 N.am      2 SEC2        0.0000 
     55 N          76.4360  -55.3240   17.4760 N.am      8 SEL2        0.0000 
     56 N          77.9740  -57.3990   18.0260 N.am      5 SEP2        0.0000 
     57 N          75.9160  -56.5955   18.3970 N.am      2 SEC2        0.0000 
     58 N          75.3960  -57.8670   19.3180 N.am      5 SEP2        0.0000 
     59 CA         71.9683  -53.3126   22.3843 C.3       3 GLC5        0.0000 
     60 CA         70.9650  -53.0610   23.8580 C.3       6 GLP5        0.0000 
     61 CA         82.5842  -57.0572   19.0602 C.3       3 GLC5        0.0000 
     62 CA         81.0330  -56.9160   20.8130 C.3       9 GLL5        0.0000 
     63 CA         83.8090  -56.6630   17.5460 C.3       6 GLP5        0.0000 
     64 CA         79.5422  -57.9522   19.7837 C.3       3 GLC5        0.0000 
     65 CA         81.6860  -57.9870   20.3360 C.3       9 GLL5        0.0000 
     66 CA         77.7250  -58.4530   18.9930 C.3       6 GLP5        0.0000 
     67 CA         80.3108  -58.8528   21.4862 C.3       3 GLC5        0.0000 
     68 CA         79.2620  -60.2540   22.3980 C.3       6 GLP5        0.0000 
     69 CA         83.2982  -56.9582   21.4378 C.3       3 GLC5        0.0000 
     70 CA         85.2370  -56.4650   22.3010 C.3       6 GLP5        0.0000 
@<TRIPOS>BOND
@<TRIPOS>SUBSTRUCTURE
     1 ALC1       14 GROUP        1 X    ALC  0     ROOT ALC X 1
     2 SEC2       17 GROUP        1 X    SEC  0     **** SEC X 2
     3 GLC5        1 GROUP        1 X    GLC  0     **** GLC X 6
     4 ALP1       16 GROUP        1 Y    ALP  0     ROOT ALP Y 8
     5 SEP2       19 GROUP        1 Y    SEP  0     **** SEP Y 9
     6 GLP5        3 GROUP        1 Y    GLP  0     **** GLP Y 13
     7 ALL1       15 GROUP        1 Z    ALL  0     ROOT ALL Z 15
     8 SEL2       18 GROUP        1 Z    SEL  0     **** SEL Z 16
     9 GLL5        2 GROUP        1 Z    GLL  0     **** GLL Z 20
@<TRIPOS>SET

