#    Name: 1nlm_UD1_2_ligand
#    Modification time : Mon Mar 24 18:25:46 2014

@<TRIPOS>MOLECULE
1nlm_UD1_2_ligand
   64    66     1     0     0
SMALL
NO_CHARGES


@<TRIPOS>ATOM
      1 C1'        73.7600  -55.5820   18.7620 C.3       1 UD1402      0.0000 
      2 C2'        72.3120  -56.0580   18.6490 C.3       1 UD1402      0.0000 
      3 C3'        71.3270  -54.9140   18.9390 C.3       1 UD1402      0.0000 
      4 C4'        71.6570  -54.1580   20.2210 C.3       1 UD1402      0.0000 
      5 C5'        73.1310  -53.7450   20.2410 C.3       1 UD1402      0.0000 
      6 C6'        73.5490  -53.1770   21.5900 C.3       1 UD1402      0.0000 
      7 C7'        71.5720  -57.8040   17.1530 C.2       1 UD1402      0.0000 
      8 C8'        70.8870  -58.4980   18.3380 C.3       1 UD1402      0.0000 
      9 N2'        72.0660  -56.5780   17.3140 N.am      1 UD1402      0.0000 
     10 O1'        74.0800  -54.6880   17.6910 O.3       1 UD1402      0.0000 
     11 O3'        70.0030  -55.4560   19.1180 O.3       1 UD1402      0.0000 
     12 O4'        70.8430  -52.9940   20.2900 O.3       1 UD1402      0.0000 
     13 O5'        73.9540  -54.8940   20.0080 O.3       1 UD1402      0.0000 
     14 O6'        73.5470  -54.1860   22.5910 O.3       1 UD1402      0.0000 
     15 O7'        71.6640  -58.3570   16.0510 O.2       1 UD1402      0.0000 
     16 N1         80.9380  -56.6460   22.1580 N.am      1 UD1402      0.0000 
     17 C2         81.5030  -57.4980   23.0920 C.2       1 UD1402      0.0000 
     18 N3         82.1670  -58.5770   22.5720 N.am      1 UD1402      0.0000 
     19 C4         82.3150  -58.8980   21.2430 C.2       1 UD1402      0.0000 
     20 C5         81.6860  -57.9870   20.3360 C.2       1 UD1402      0.0000 
     21 C6         81.0330  -56.9160   20.8130 C.2       1 UD1402      0.0000 
     22 O2         81.4190  -57.3170   24.2880 O.2       1 UD1402      0.0000 
     23 O4         82.9770  -59.8880   20.9350 O.2       1 UD1402      0.0000 
     24 C1B        80.2510  -55.4460   22.6590 C.3       1 UD1402      0.0000 
     25 C2B        80.9690  -54.1410   22.3220 C.3       1 UD1402      0.0000 
     26 O2'        82.0210  -53.8560   23.2210 O.3       1 UD1402      0.0000 
     27 C3B        79.8190  -53.1490   22.4130 C.3       1 UD1402      0.0000 
     28 C4B        78.6520  -53.9360   21.8310 C.3       1 UD1402      0.0000 
     29 O4B        78.9820  -55.3450   22.0370 O.3       1 UD1402      0.0000 
     30 O3B        79.5350  -52.8100   23.7690 O.3       1 UD1402      0.0000 
     31 C5B        78.4120  -53.6700   20.3660 C.3       1 UD1402      0.0000 
     32 O5B        77.4340  -52.6340   20.2150 O.3       1 UD1402      0.0000 
     33 PA         76.8150  -52.2720   18.7910 P.3       1 UD1402      0.0000 
     34 O1A        76.2280  -50.9240   18.9770 O.co2     1 UD1402      0.0000 
     35 O2A        77.9240  -52.4300   17.8160 O.co2     1 UD1402      0.0000 
     36 O3A        75.6410  -53.2020   18.7120 O.3       1 UD1402      0.0000 
     37 PB         75.5600  -54.1270   17.5230 P.3       1 UD1402      0.0000 
     38 O1B        75.6160  -53.5480   16.1640 O.co2     1 UD1402      0.0000 
     39 O2B        76.4360  -55.3240   17.4760 O.co2     1 UD1402      0.0000 
     40 H          74.3962  -56.4598   18.7214 H         1 UD1402      0.0000 
     41 H          72.1496  -56.8326   19.3873 H         1 UD1402      0.0000 
     42 H          71.3397  -54.2227   18.1189 H         1 UD1402      0.0000 
     43 H          71.4774  -54.8114   21.0568 H         1 UD1402      0.0000 
     44 H          73.2972  -52.9990   19.4890 H         1 UD1402      0.0000 
     45 H          72.8547  -52.3564   21.8369 H         1 UD1402      0.0000 
     46 H          74.5480  -52.7259   21.4678 H         1 UD1402      0.0000 
     47 H          72.2923  -55.9543   16.5255 H         1 UD1402      0.0000 
     48 H          82.6269  -59.2531   23.2839 H         1 UD1402      0.0000 
     49 H          81.7569  -58.1876   19.3294 H         1 UD1402      0.0000 
     50 H          80.5692  -56.2459   20.1405 H         1 UD1402      0.0000 
     51 H          80.1358  -55.4922   23.7294 H         1 UD1402      0.0000 
     52 H          81.2628  -54.1988   21.2967 H         1 UD1402      0.0000 
     53 H          80.0178  -52.3315   21.7897 H         1 UD1402      0.0000 
     54 H          77.7660  -53.6938   22.3977 H         1 UD1402      0.0000 
     55 H          78.0799  -54.6046   19.8958 H         1 UD1402      0.0000 
     56 H          79.3677  -53.3875   19.9059 H         1 UD1402      0.0000 
     57 H          71.5075  -58.6051   19.1149 H         1 UD1402      0.0000 
     58 H          70.0955  -57.9811   18.6641 H         1 UD1402      0.0000 
     59 H          70.5607  -59.4116   18.0953 H         1 UD1402      0.0000 
     60 H          69.4525  -54.6899   19.4497 H         1 UD1402      0.0000 
     61 H          69.9079  -53.3243   20.1619 H         1 UD1402      0.0000 
     62 H          73.7882  -55.0286   22.1095 H         1 UD1402      0.0000 
     63 H          82.2404  -52.8929   23.0654 H         1 UD1402      0.0000 
     64 H          80.3862  -52.4221   24.1224 H         1 UD1402      0.0000 
@<TRIPOS>BOND
     1    2    1 1    
     2   10    1 1    
     3   13    1 1    
     4   40    1 1    
     5    3    2 1    
     6    9    2 1    
     7   41    2 1    
     8    4    3 1    
     9   11    3 1    
    10   42    3 1    
    11    5    4 1    
    12   12    4 1    
    13   43    4 1    
    14    6    5 1    
    15   13    5 1    
    16   44    5 1    
    17   14    6 1    
    18   45    6 1    
    19   46    6 1    
    20    8    7 1    
    21    9    7 am   
    22   15    7 2    
    23   57    8 1    
    24   58    8 1    
    25   59    8 1    
    26   47    9 1    
    27   37   10 1    
    28   60   11 1    
    29   61   12 1    
    30   62   14 1    
    31   17   16 1    
    32   21   16 1    
    33   24   16 1    
    34   18   17 1    
    35   22   17 2    
    36   19   18 1    
    37   48   18 1    
    38   20   19 1    
    39   23   19 2    
    40   21   20 2    
    41   49   20 1    
    42   50   21 1    
    43   25   24 1    
    44   29   24 1    
    45   51   24 1    
    46   26   25 1    
    47   27   25 1    
    48   52   25 1    
    49   63   26 1    
    50   28   27 1    
    51   30   27 1    
    52   53   27 1    
    53   29   28 1    
    54   31   28 1    
    55   54   28 1    
    56   64   30 1    
    57   32   31 1    
    58   55   31 1    
    59   56   31 1    
    60   33   32 1    
    61   34   33 ar   
    62   35   33 ar   
    63   36   33 1    
    64   37   36 1    
    65   38   37 ar   
    66   39   37 ar   
@<TRIPOS>SUBSTRUCTURE
     1 UD1402      1 GROUP   
@<TRIPOS>SET

