#    Name: 4lok_1YD_1_INTS_M
#    Modification time : Tue Mar 25 11:19:09 2014

@<TRIPOS>MOLECULE
4lok_1YD_1_INTS_M
   60     0    12     0     0
SMALL
NO_CHARGES


@<TRIPOS>ATOM
      1 O          23.0585    3.7105   15.0955 O.2       1 ALC1        0.0000 
      2 O          23.5230    3.4980   16.4830 O.2       9 ALL1        0.0000 
      3 O          22.5940    3.9230   13.7080 O.2       5 ALP1        0.0000 
      4 O          24.1505    2.9365   15.0365 O.2       1 ALC1        0.0000 
      5 O          24.7780    2.3750   13.5900 O.2       5 ALP1        0.0000 
      6 N          17.4800    2.9135   19.5800 N.am      2 SEC2        0.0000 
      7 N          18.7300    3.0090   18.6510 N.am     10 SEL2        0.0000 
      8 N          16.2300    2.8180   20.5090 N.am      6 SEP2        0.0000 
      9 CA         20.7390   -1.0655   15.6035 C.3       4 GLC5        0.0000 
     10 CA         19.8620   -0.0110   17.0660 C.3      12 GLL5        0.0000 
     11 CA         21.6160   -2.1200   14.1410 C.3       8 GLP5        0.0000 
     12 CA         22.4275   -1.7340   18.4880 C.3       4 GLC5        0.0000 
     13 CA         20.6250   -0.9510   18.0580 C.3      12 GLL5        0.0000 
     14 CA         24.2300   -2.5170   18.9180 C.3       8 GLP5        0.0000 
     15 O          23.2095   -1.4750   17.9605 O.2       1 ALC1        0.0000 
     16 O          21.6360   -1.6920   17.4130 O.2       9 ALL1        0.0000 
     17 O          24.7830   -1.2580   18.5080 O.2       5 ALP1        0.0000 
     18 NZ         14.3010    1.8740   20.4230 N.4       3 LYC4        0.0000 
     19 NZ         14.5730    0.6260   19.7450 N.4      11 LYL4        0.0000 
     20 NZ         15.2320    3.6090   20.9070 N.4       7 LYP4        0.0000 
     21 N          14.3010    1.8740   20.4230 N.am      2 SEC2        0.0000 
     22 N          14.5730    0.6260   19.7450 N.am     10 SEL2        0.0000 
     23 N          14.0290    3.1220   21.1010 N.am      6 SEP2        0.0000 
     24 N          15.4015    1.7220   20.1270 N.am      2 SEC2        0.0000 
     25 CA         20.4410   -3.8015   17.5660 C.3       4 GLC5        0.0000 
     26 CA         19.6350   -1.9780   18.3860 C.3      12 GLL5        0.0000 
     27 CA         21.2470   -5.6250   16.7460 C.3       8 GLP5        0.0000 
     28 NZ         20.6920    0.3725   21.4165 N.4       3 LYC4        0.0000 
     29 NZ         21.0040   -0.9950   21.3070 N.4      11 LYL4        0.0000 
     30 NZ         21.6320    2.1570   21.3190 N.4       7 LYP4        0.0000 
     31 N          21.7715    0.1745   21.0370 N.am      2 SEC2        0.0000 
     32 N          21.0040   -0.9950   21.3070 N.am     10 SEL2        0.0000 
     33 N          22.5390    1.3440   20.7670 N.am      6 SEP2        0.0000 
     34 N          20.6920    0.3725   21.4165 N.am      2 SEC2        0.0000 
     35 N          20.3800    1.7400   21.5260 N.am      6 SEP2        0.0000 
     36 CA         19.3970   -3.0070   23.7720 C.3       4 GLC5        0.0000 
     37 CA         17.8230   -2.6600   22.2140 C.3      12 GLL5        0.0000 
     38 CA         20.9710   -3.3540   25.3300 C.3       8 GLP5        0.0000 
     39 CA         12.8015   -0.4090   22.3390 C.3       4 GLC5        0.0000 
     40 CA         14.8070   -0.6660   22.6730 C.3      12 GLL5        0.0000 
     41 CA         10.7960   -0.1520   22.0050 C.3       8 GLP5        0.0000 
     42 CA         14.5605   -1.9125   24.9760 C.3       4 GLC5        0.0000 
     43 CA         15.7080   -0.4690   23.9420 C.3      12 GLL5        0.0000 
     44 CA         13.4130   -3.3560   26.0100 C.3       8 GLP5        0.0000 
     45 CA         16.5645   -0.8415   25.4905 C.3       4 GLC5        0.0000 
     46 CA         17.4210   -1.2140   27.0390 C.3       8 GLP5        0.0000 
     47 N          19.2370    1.9715   22.5655 N.am      2 SEC2        0.0000 
     48 N          18.0940    2.2030   23.6050 N.am     10 SEL2        0.0000 
     49 CA         16.7500    0.3540   25.6325 C.3       4 GLC5        0.0000 
     50 CA         16.0790    1.9220   24.2260 C.3      12 GLL5        0.0000 
     51 CA         14.5235    4.7200   23.2420 C.3       4 GLC5        0.0000 
     52 CA         14.6140    3.5820   24.9750 C.3      12 GLL5        0.0000 
     53 CA         14.4330    5.8580   21.5090 C.3       8 GLP5        0.0000 
     54 CA         15.6065    4.9840   22.9260 C.3       4 GLC5        0.0000 
     55 CA         16.7800    4.1100   24.3430 C.3      12 GLL5        0.0000 
     56 CA         19.3407    1.1930   15.7152 C.3       4 GLC5        0.0000 
     57 CA         20.4220    2.2910   17.5910 C.3      12 GLL5        0.0000 
     58 CA         17.9090    0.8380   14.1710 C.3       8 GLP5        0.0000 
     59 CA         20.3170   -2.1887   16.2890 C.3       4 GLC5        0.0000 
     60 CA         20.5040   -2.9130   14.3560 C.3       8 GLP5        0.0000 
@<TRIPOS>BOND
@<TRIPOS>SUBSTRUCTURE
     1 ALC1        1 GROUP        1 X    ALC  0     ROOT ALC X 1
     2 SEC2        6 GROUP        1 X    SEC  0     **** SEC X 2
     3 LYC4       18 GROUP        1 X    LYC  0     **** LYC X 4
     4 GLC5        9 GROUP        1 X    GLC  0     **** GLC X 6
     5 ALP1        3 GROUP        1 Y    ALP  0     ROOT ALP Y 8
     6 SEP2        8 GROUP        1 Y    SEP  0     **** SEP Y 9
     7 LYP4       20 GROUP        1 Y    LYP  0     **** LYP Y 11
     8 GLP5       11 GROUP        1 Y    GLP  0     **** GLP Y 13
     9 ALL1        2 GROUP        1 Z    ALL  0     ROOT ALL Z 15
    10 SEL2        7 GROUP        1 Z    SEL  0     **** SEL Z 16
    11 LYL4       19 GROUP        1 Z    LYL  0     **** LYL Z 18
    12 GLL5       10 GROUP        1 Z    GLL  0     **** GLL Z 20
@<TRIPOS>SET

