#    Name: 4lok_1YD_1_ligand
#    Modification time : Tue Mar 25 11:19:09 2014

@<TRIPOS>MOLECULE
4lok_1YD_1_ligand
   67    73     1     0     0
SMALL
NO_CHARGES


@<TRIPOS>ATOM
      1 OAC        20.1620    5.4760   18.8610 O.2       1 1YD401      0.0000 
      2 CBC        20.5880    4.4780   18.2990 C.2       1 1YD401      0.0000 
      3 NAT        21.8310    4.5540   17.7240 N.am      1 1YD401      0.0000 
      4 CBA        22.3300    3.4450   17.0760 C.2       1 1YD401      0.0000 
      5 NAA        23.5230    3.4980   16.4830 N.pl3     1 1YD401      0.0000 
      6 NAS        21.6120    2.3360   17.0360 N.2       1 1YD401      0.0000 
      7 CBG        20.4220    2.2910   17.5910 C.2       1 1YD401      0.0000 
      8 CBE        19.9050    3.3560   18.2090 C.2       1 1YD401      0.0000 
      9 NAR        18.7300    3.0090   18.6510 N.2       1 1YD401      0.0000 
     10 CAL        18.5130    1.7520   18.2980 C.2       1 1YD401      0.0000 
     11 NBQ        19.5720    1.3040   17.6360 N.pl3     1 1YD401      0.0000 
     12 CBO        19.8620   -0.0110   17.0660 C.3       1 1YD401      0.0000 
     13 CBI        20.6250   -0.9510   18.0580 C.3       1 1YD401      0.0000 
     14 OAG        21.6360   -1.6920   17.4130 O.3       1 1YD401      0.0000 
     15 OAX        18.6540   -0.6600   16.9870 O.3       1 1YD401      0.0000 
     16 CBK        18.4640   -1.1450   18.3020 C.3       1 1YD401      0.0000 
     17 CAN        17.1200   -1.7590   18.2690 C.3       1 1YD401      0.0000 
     18 OAV        16.1900   -0.6370   18.5480 O.3       1 1YD401      0.0000 
     19 PBR        14.9940   -0.8370   19.4320 P.3       1 1YD401      0.0000 
     20 O3'        15.7190   -1.5050   20.5990 O.3       1 1YD401      0.0000 
     21 OAH        14.5730    0.6260   19.7450 O.co2     1 1YD401      0.0000 
     22 OAD        14.0690   -1.6620   18.7120 O.co2     1 1YD401      0.0000 
     23 CBM        19.6350   -1.9780   18.3860 C.3       1 1YD401      0.0000 
     24 OAZ        19.9130   -2.5810   19.6430 O.3       1 1YD401      0.0000 
     25 PBS        20.1330   -2.1630   21.1630 P.3       1 1YD401      0.0000 
     26 OAI        21.0040   -0.9950   21.3070 O.co2     1 1YD401      0.0000 
     27 OAE        20.6850   -3.3990   21.6850 O.co2     1 1YD401      0.0000 
     28 O5'        18.8590   -1.7680   21.8340 O.3       1 1YD401      0.0000 
     29 C5'        17.8230   -2.6600   22.2140 C.3       1 1YD401      0.0000 
     30 C4'        16.7940   -1.6350   22.6020 C.3       1 1YD401      0.0000 
     31 O4'        16.5240   -1.6090   23.9250 O.3       1 1YD401      0.0000 
     32 C3'        15.4550   -1.7510   21.9350 C.3       1 1YD401      0.0000 
     33 C2'        14.8070   -0.6660   22.6730 C.3       1 1YD401      0.0000 
     34 O2'        13.5620   -1.2640   23.0310 O.3       1 1YD401      0.0000 
     35 C1'        15.7080   -0.4690   23.9420 C.3       1 1YD401      0.0000 
     36 N9         16.5500    0.7470   23.8820 N.pl3     1 1YD401      0.0000 
     37 C8         17.8010    0.9270   23.4920 C.2       1 1YD401      0.0000 
     38 N7         18.0940    2.2030   23.6050 N.2       1 1YD401      0.0000 
     39 C5         17.0300    2.8340   24.0580 C.ar      1 1YD401      0.0000 
     40 C4         16.0790    1.9220   24.2260 C.ar      1 1YD401      0.0000 
     41 N3         14.8850    2.2580   24.6760 N.ar      1 1YD401      0.0000 
     42 C2         14.6140    3.5820   24.9750 C.ar      1 1YD401      0.0000 
     43 N1         15.6050    4.5250   24.7950 N.ar      1 1YD401      0.0000 
     44 C6         16.7800    4.1100   24.3430 C.ar      1 1YD401      0.0000 
     45 N6         17.7340    4.9880   24.1700 N.pl3     1 1YD401      0.0000 
     46 H          22.3803    5.4177   17.7738 H         1 1YD401      0.0000 
     47 H          24.3052    3.2249   17.0429 H         1 1YD401      0.0000 
     48 H          23.5282    3.8061   15.5317 H         1 1YD401      0.0000 
     49 H          17.7053    1.2363   18.4923 H         1 1YD401      0.0000 
     50 H          20.3743    0.0193   16.1727 H         1 1YD401      0.0000 
     51 H          20.9115   -0.4323   18.8895 H         1 1YD401      0.0000 
     52 H          18.5128   -0.3281   18.9719 H         1 1YD401      0.0000 
     53 H          17.0333   -2.5091   19.0328 H         1 1YD401      0.0000 
     54 H          16.9212   -2.1704   17.2971 H         1 1YD401      0.0000 
     55 H          19.6270   -2.6774   17.5659 H         1 1YD401      0.0000 
     56 H          18.0740   -3.2349   23.0628 H         1 1YD401      0.0000 
     57 H          17.4568   -3.2257   21.4017 H         1 1YD401      0.0000 
     58 H          17.1931   -0.6279   22.2916 H         1 1YD401      0.0000 
     59 H          15.0626   -2.6704   22.1812 H         1 1YD401      0.0000 
     60 H          14.7469    0.1845   22.1334 H         1 1YD401      0.0000 
     61 H          15.0631   -0.4643   24.7866 H         1 1YD401      0.0000 
     62 H          18.4031    0.2246   23.1736 H         1 1YD401      0.0000 
     63 H          13.6909    3.8556   25.3246 H         1 1YD401      0.0000 
     64 H          18.6136    4.6268   23.8603 H         1 1YD401      0.0000 
     65 H          17.4963    5.9399   24.3633 H         1 1YD401      0.0000 
     66 H          22.4771   -1.4632   17.9031 H         1 1YD401      0.0000 
     67 H          13.1275   -0.6075   23.6475 H         1 1YD401      0.0000 
@<TRIPOS>BOND
     1    2    1 2    
     2    3    2 am   
     3    8    2 1    
     4    4    3 1    
     5   46    3 1    
     6    5    4 1    
     7    6    4 2    
     8   47    5 1    
     9   48    5 1    
    10    7    6 1    
    11    8    7 2    
    12   11    7 1    
    13    9    8 1    
    14   10    9 2    
    15   11   10 1    
    16   49   10 1    
    17   12   11 1    
    18   13   12 1    
    19   15   12 1    
    20   50   12 1    
    21   14   13 1    
    22   23   13 1    
    23   51   13 1    
    24   66   14 1    
    25   16   15 1    
    26   17   16 1    
    27   23   16 1    
    28   52   16 1    
    29   18   17 1    
    30   53   17 1    
    31   54   17 1    
    32   19   18 1    
    33   20   19 1    
    34   21   19 ar   
    35   22   19 ar   
    36   32   20 1    
    37   24   23 1    
    38   55   23 1    
    39   25   24 1    
    40   26   25 ar   
    41   27   25 ar   
    42   28   25 1    
    43   29   28 1    
    44   30   29 1    
    45   56   29 1    
    46   57   29 1    
    47   31   30 1    
    48   32   30 1    
    49   58   30 1    
    50   35   31 1    
    51   33   32 1    
    52   59   32 1    
    53   34   33 1    
    54   35   33 1    
    55   60   33 1    
    56   67   34 1    
    57   36   35 1    
    58   61   35 1    
    59   37   36 1    
    60   40   36 1    
    61   38   37 2    
    62   62   37 1    
    63   39   38 1    
    64   40   39 ar   
    65   44   39 ar   
    66   41   40 ar   
    67   42   41 ar   
    68   43   42 ar   
    69   63   42 1    
    70   44   43 ar   
    71   45   44 1    
    72   64   45 1    
    73   65   45 1    
@<TRIPOS>SUBSTRUCTURE
     1 1YD401      1 GROUP   
@<TRIPOS>SET

