#    Name: 3euv_GBO_1_INTS_M
#    Modification time : Tue Mar 25 02:33:19 2014

@<TRIPOS>MOLECULE
3euv_GBO_1_INTS_M
   89     0     9     0     0
SMALL
NO_CHARGES


@<TRIPOS>ATOM
      1 N          55.0495  -43.3225    1.3010 N.am      1 SEC2        0.0000 
      2 N          54.0620  -42.5760    1.4980 N.am      7 SEL2        0.0000 
      3 N          56.0370  -44.0690    1.1040 N.am      4 SEP2        0.0000 
      4 NZ         51.4075  -39.8650    0.0125 N.4       2 LYC4        0.0000 
      5 NZ         52.2250  -40.7580    0.6900 N.4       8 LYL4        0.0000 
      6 NZ         50.5900  -38.9720   -0.6650 N.4       5 LYP4        0.0000 
      7 N          51.4075  -39.8650    0.0125 N.am      1 SEC2        0.0000 
      8 N          52.2250  -40.7580    0.6900 N.am      7 SEL2        0.0000 
      9 N          50.5900  -38.9720   -0.6650 N.am      4 SEP2        0.0000 
     10 NZ         53.6600  -40.3970   -1.9540 N.4       2 LYC4        0.0000 
     11 NZ         54.3610  -41.3070   -0.7470 N.4       8 LYL4        0.0000 
     12 NZ         53.9120  -38.5750   -3.0920 N.4       5 LYP4        0.0000 
     13 N          55.6595  -41.6210   -1.1050 N.am      1 SEC2        0.0000 
     14 N          54.3610  -41.3070   -0.7470 N.am      7 SEL2        0.0000 
     15 N          56.9580  -41.9350   -1.4630 N.am      4 SEP2        0.0000 
     16 N          54.5740  -39.9705   -1.4215 N.am      1 SEC2        0.0000 
     17 N          54.7870  -38.6340   -2.0960 N.am      4 SEP2        0.0000 
     18 N          53.6600  -40.3970   -1.9540 N.am      1 SEC2        0.0000 
     19 N          52.9590  -39.4870   -3.1610 N.am      4 SEP2        0.0000 
     20 NZ         49.5640  -43.6725   -2.2855 N.4       2 LYC4        0.0000 
     21 NZ         51.3500  -44.3810   -2.2850 N.4       8 LYL4        0.0000 
     22 NZ         47.7780  -42.9640   -2.2860 N.4       5 LYP4        0.0000 
     23 NZ         49.5895  -42.4100   -2.2700 N.4       2 LYC4        0.0000 
     24 NZ         51.4010  -41.8560   -2.2540 N.4       8 LYL4        0.0000 
     25 NZ         50.9955  -40.4140   -1.4595 N.4       2 LYC4        0.0000 
     26 N          52.1800  -40.6715   -2.7075 N.am      1 SEC2        0.0000 
     27 N          51.4010  -41.8560   -2.2540 N.am      7 SEL2        0.0000 
     28 N          50.9955  -40.4140   -1.4595 N.am      1 SEC2        0.0000 
     29 CA         56.3645  -42.6270   -2.8845 C.3       3 GLC5        0.0000 
     30 CA         55.1440  -44.2880   -3.5630 C.3       9 GLL5        0.0000 
     31 CA         57.5850  -40.9660   -2.2060 C.3       6 GLP5        0.0000 
     32 CA         55.4640  -46.2370   -7.2330 C.3       3 GLC5        0.0000 
     33 CA         54.9070  -44.5930   -6.0840 C.3       9 GLL5        0.0000 
     34 CA         56.0210  -47.8810   -8.3820 C.3       6 GLP5        0.0000 
     35 CA         54.5730  -42.6560   -6.4955 C.3       3 GLC5        0.0000 
     36 CA         54.2390  -40.7190   -6.9070 C.3       6 GLP5        0.0000 
     37 CA         53.3095  -44.4635   -7.5465 C.3       3 GLC5        0.0000 
     38 CA         51.7120  -44.3340   -9.0090 C.3       6 GLP5        0.0000 
     39 CA         57.9385  -45.8175    0.4210 C.3       3 GLC5        0.0000 
     40 CA         57.7680  -47.0440   -1.3030 C.3       9 GLL5        0.0000 
     41 CA         58.1090  -44.5910    2.1450 C.3       6 GLP5        0.0000 
     42 CA         60.3310  -49.8080   -0.9350 C.3       3 GLC5        0.0000 
     43 CA         59.3210  -48.6780   -2.4880 C.3       9 GLL5        0.0000 
     44 CA         61.3410  -50.9380    0.6180 C.3       6 GLP5        0.0000 
     45 CA         62.3325  -49.8080   -5.4150 C.3       3 GLC5        0.0000 
     46 CA         62.3330  -50.6460   -3.8310 C.3       9 GLL5        0.0000 
     47 CA         62.3320  -48.9700   -6.9990 C.3       6 GLP5        0.0000 
     48 CA         62.4510  -50.9385   -1.8850 C.3       3 GLC5        0.0000 
     49 CA         62.5690  -51.2310    0.0610 C.3       6 GLP5        0.0000 
     50 CA         61.6380  -50.6805   -6.0365 C.3       3 GLC5        0.0000 
     51 CA         62.3730  -51.7190   -4.9600 C.3       9 GLL5        0.0000 
     52 CA         60.9030  -49.6420   -7.1130 C.3       6 GLP5        0.0000 
     53 CA         62.9295  -50.8325   -5.9245 C.3       3 GLC5        0.0000 
     54 CA         63.5270  -52.6950   -4.8500 C.3       9 GLL5        0.0000 
     55 CA         65.5720  -52.3860   -4.7175 C.3       3 GLC5        0.0000 
     56 CA         67.6170  -52.0770   -4.5850 C.3       6 GLP5        0.0000 
     57 CA         62.7810  -58.1235   -0.8230 C.3       3 GLC5        0.0000 
     58 CA         63.0900  -57.1660   -2.2160 C.3       9 GLL5        0.0000 
     59 CA         62.4720  -59.0810    0.5700 C.3       6 GLP5        0.0000 
     60 CA         62.8885  -56.9410   -0.1610 C.3       3 GLC5        0.0000 
     61 CA         62.6500  -55.8310   -1.5400 C.3       9 GLL5        0.0000 
     62 CA         63.1270  -58.0510    1.2180 C.3       6 GLP5        0.0000 
     63 CA         62.0150  -54.9125    0.3390 C.3       3 GLC5        0.0000 
     64 CA         61.3800  -53.9940    2.2180 C.3       6 GLP5        0.0000 
     65 CA         62.6605  -52.9105   -1.2195 C.3       3 GLC5        0.0000 
     66 CA         62.7520  -54.5900   -2.5000 C.3       9 GLL5        0.0000 
     67 N          58.9915  -55.8105   -0.5155 N.am      1 SEC2        0.0000 
     68 N          59.3280  -54.5610   -1.5330 N.am      7 SEL2        0.0000 
     69 N          58.6550  -57.0600    0.5020 N.am      4 SEP2        0.0000 
     70 CA         58.2558  -43.2040   -3.2875 C.3       3 GLC5        0.0000 
     71 CA         57.9810  -45.2830   -3.5280 C.3       9 GLL5        0.0000 
     72 CA         58.8720  -41.3720   -2.3890 C.3       6 GLP5        0.0000 
     73 CA         60.1302  -45.6665   -2.5303 C.3       3 GLC5        0.0000 
     74 CA         61.9220  -45.4470   -1.4990 C.3       6 GLP5        0.0000 
     75 CA         58.9164  -44.6852   -5.4012 C.3       3 GLC5        0.0000 
     76 CA         58.6960  -46.4890   -3.5950 C.3       9 GLL5        0.0000 
     77 CA         59.6650  -43.6080   -6.9120 C.3       6 GLP5        0.0000 
     78 CA         60.3436  -46.6929   -1.8484 C.3       3 GLC5        0.0000 
     79 CA         58.6510  -47.3550   -2.5120 C.3       9 GLL5        0.0000 
     80 CA         63.8245  -49.8818   -4.3603 C.3       3 GLC5        0.0000 
     81 CA         65.2960  -48.5810   -4.3250 C.3       6 GLP5        0.0000 
     82 CA         64.2878  -53.7692   -6.4043 C.3       3 GLC5        0.0000 
     83 CA         65.3190  -54.1390   -7.8550 C.3       6 GLP5        0.0000 
     84 CA         64.5445  -56.9040   -4.8402 C.3       3 GLC5        0.0000 
     85 CA         63.3750  -55.0150   -3.8640 C.3       9 GLL5        0.0000 
     86 CA         65.9820  -57.9180   -5.7680 C.3       6 GLP5        0.0000 
     87 CA         62.5942  -58.8107   -3.5232 C.3       3 GLC5        0.0000 
     88 CA         62.8390  -56.7650   -3.9610 C.3       9 GLL5        0.0000 
     89 CA         62.2240  -60.6560   -3.9580 C.3       6 GLP5        0.0000 
@<TRIPOS>BOND
@<TRIPOS>SUBSTRUCTURE
     1 SEC2        1 GROUP        1 X    SEC  0     ROOT SEC X 2
     2 LYC4        4 GROUP        1 X    LYC  0     **** LYC X 4
     3 GLC5       29 GROUP        1 X    GLC  0     **** GLC X 6
     4 SEP2        3 GROUP        1 Y    SEP  0     ROOT SEP Y 9
     5 LYP4        6 GROUP        1 Y    LYP  0     **** LYP Y 11
     6 GLP5       31 GROUP        1 Y    GLP  0     **** GLP Y 13
     7 SEL2        2 GROUP        1 Z    SEL  0     ROOT SEL Z 16
     8 LYL4        5 GROUP        1 Z    LYL  0     **** LYL Z 18
     9 GLL5       30 GROUP        1 Z    GLL  0     **** GLL Z 20
@<TRIPOS>SET

