#    Name: 3euv_GBO_1_ligand
#    Modification time : Tue Mar 25 02:33:19 2014

@<TRIPOS>MOLECULE
3euv_GBO_1_ligand
   67    68     1     0     0
SMALL
NO_CHARGES


@<TRIPOS>ATOM
      1 O2         54.0620  -42.5760    1.4980 O.co2     1 GBO429      0.0000 
      2 P1         53.3380  -41.9110    0.1780 P.3       1 GBO429      0.0000 
      3 O8         52.2250  -40.7580    0.6900 O.co2     1 GBO429      0.0000 
      4 O1         54.3610  -41.3070   -0.7470 O.co2     1 GBO429      0.0000 
      5 O3         52.4330  -43.1110   -0.4100 O.3       1 GBO429      0.0000 
      6 P2         52.0640  -43.1430   -1.9190 P.3       1 GBO429      0.0000 
      7 O4         51.3500  -44.3810   -2.2850 O.co2     1 GBO429      0.0000 
      8 O9         51.4010  -41.8560   -2.2540 O.co2     1 GBO429      0.0000 
      9 O5         53.5550  -43.2850   -2.4140 O.3       1 GBO429      0.0000 
     10 C1         53.7970  -44.0880   -3.4600 C.3       1 GBO429      0.0000 
     11 C2         55.1440  -44.2880   -3.5630 C.2       1 GBO429      0.0000 
     12 C3         55.7610  -44.5440   -4.7770 C.2       1 GBO429      0.0000 
     13 C4         54.9070  -44.5930   -6.0840 C.3       1 GBO429      0.0000 
     14 C5         57.2980  -44.7890   -4.8440 C.3       1 GBO429      0.0000 
     15 C6         57.9810  -45.2830   -3.5280 C.3       1 GBO429      0.0000 
     16 C7         58.6960  -46.4890   -3.5950 C.2       1 GBO429      0.0000 
     17 C8         58.6510  -47.3550   -2.5120 C.2       1 GBO429      0.0000 
     18 C9         57.7680  -47.0440   -1.3030 C.3       1 GBO429      0.0000 
     19 C10        59.3210  -48.6780   -2.4880 C.3       1 GBO429      0.0000 
     20 N1         60.7110  -48.9030   -2.9290 N.am      1 GBO429      0.0000 
     21 C11        60.8950  -50.1790   -3.3730 C.2       1 GBO429      0.0000 
     22 O6         59.9360  -50.9830   -3.4170 O.2       1 GBO429      0.0000 
     23 C12        62.3330  -50.6460   -3.8310 C.3       1 GBO429      0.0000 
     24 C13        62.3730  -51.7190   -4.9600 C.3       1 GBO429      0.0000 
     25 C14        63.5270  -52.6950   -4.8500 C.3       1 GBO429      0.0000 
     26 C15        62.9860  -54.1040   -5.0570 C.3       1 GBO429      0.0000 
     27 C16        63.3750  -55.0150   -3.8640 C.3       1 GBO429      0.0000 
     28 S1         62.8390  -56.7650   -3.9610 S.3       1 GBO429      0.0000 
     29 C17        63.0900  -57.1660   -2.2160 C.3       1 GBO429      0.0000 
     30 C18        62.6500  -55.8310   -1.5400 C.3       1 GBO429      0.0000 
     31 C19        62.7520  -54.5900   -2.5000 C.3       1 GBO429      0.0000 
     32 N2         61.3380  -54.0640   -2.5210 N.am      1 GBO429      0.0000 
     33 C20        60.5330  -54.7930   -1.7130 C.2       1 GBO429      0.0000 
     34 O7         59.3280  -54.5610   -1.5330 O.2       1 GBO429      0.0000 
     35 N3         61.2060  -55.8200   -1.1500 N.am      1 GBO429      0.0000 
     36 H          53.3939  -43.6525   -4.4111 H         1 GBO429      0.0000 
     37 H          53.2645  -45.0687   -3.3538 H         1 GBO429      0.0000 
     38 H          55.7382  -44.2483   -2.7002 H         1 GBO429      0.0000 
     39 H          57.7898  -43.8493   -5.1591 H         1 GBO429      0.0000 
     40 H          57.5010  -45.5301   -5.6402 H         1 GBO429      0.0000 
     41 H          57.1609  -45.3229   -2.7552 H         1 GBO429      0.0000 
     42 H          58.6299  -44.4284   -3.1818 H         1 GBO429      0.0000 
     43 H          59.2364  -46.7176   -4.4276 H         1 GBO429      0.0000 
     44 H          58.6428  -49.4228   -3.0605 H         1 GBO429      0.0000 
     45 H          59.2167  -49.1023   -1.4149 H         1 GBO429      0.0000 
     46 H          61.3625  -48.1981   -2.8849 H         1 GBO429      0.0000 
     47 H          62.8605  -51.0401   -2.9468 H         1 GBO429      0.0000 
     48 H          62.8892  -49.7553   -4.1668 H         1 GBO429      0.0000 
     49 H          62.4228  -51.1935   -5.9271 H         1 GBO429      0.0000 
     50 H          61.4188  -52.2694   -4.9401 H         1 GBO429      0.0000 
     51 H          63.9735  -52.6226   -3.8688 H         1 GBO429      0.0000 
     52 H          64.2623  -52.4775   -5.6111 H         1 GBO429      0.0000 
     53 H          63.4007  -54.5265   -5.9666 H         1 GBO429      0.0000 
     54 H          61.9038  -54.0742   -5.1331 H         1 GBO429      0.0000 
     55 H          64.4296  -55.1266   -3.7282 H         1 GBO429      0.0000 
     56 H          64.0960  -57.3303   -2.1591 H         1 GBO429      0.0000 
     57 H          62.4318  -57.9302   -2.0576 H         1 GBO429      0.0000 
     58 H          63.2526  -55.6231   -0.6879 H         1 GBO429      0.0000 
     59 H          63.3929  -53.8851   -2.0017 H         1 GBO429      0.0000 
     60 H          61.1218  -53.3077   -3.0631 H         1 GBO429      0.0000 
     61 H          60.8668  -56.5030   -0.5587 H         1 GBO429      0.0000 
     62 H          55.4689  -44.7887   -6.8877 H         1 GBO429      0.0000 
     63 H          54.2015  -45.3003   -6.0403 H         1 GBO429      0.0000 
     64 H          54.4415  -43.7249   -6.2562 H         1 GBO429      0.0000 
     65 H          57.8347  -47.7540   -0.6019 H         1 GBO429      0.0000 
     66 H          58.0226  -46.1794   -0.8697 H         1 GBO429      0.0000 
     67 H          56.8033  -46.9720   -1.5564 H         1 GBO429      0.0000 
@<TRIPOS>BOND
     1    2    1 ar   
     2    3    2 ar   
     3    4    2 ar   
     4    5    2 1    
     5    6    5 1    
     6    7    6 ar   
     7    8    6 ar   
     8    9    6 1    
     9   10    9 1    
    10   11   10 1    
    11   36   10 1    
    12   37   10 1    
    13   12   11 2    
    14   38   11 1    
    15   13   12 1    
    16   14   12 1    
    17   62   13 1    
    18   63   13 1    
    19   64   13 1    
    20   15   14 1    
    21   39   14 1    
    22   40   14 1    
    23   16   15 1    
    24   41   15 1    
    25   42   15 1    
    26   17   16 2    
    27   43   16 1    
    28   18   17 1    
    29   19   17 1    
    30   65   18 1    
    31   66   18 1    
    32   67   18 1    
    33   20   19 1    
    34   44   19 1    
    35   45   19 1    
    36   21   20 am   
    37   46   20 1    
    38   22   21 2    
    39   23   21 1    
    40   24   23 1    
    41   47   23 1    
    42   48   23 1    
    43   25   24 1    
    44   49   24 1    
    45   50   24 1    
    46   26   25 1    
    47   51   25 1    
    48   52   25 1    
    49   27   26 1    
    50   53   26 1    
    51   54   26 1    
    52   28   27 1    
    53   31   27 1    
    54   55   27 1    
    55   29   28 1    
    56   30   29 1    
    57   56   29 1    
    58   57   29 1    
    59   31   30 1    
    60   35   30 1    
    61   58   30 1    
    62   32   31 1    
    63   59   31 1    
    64   33   32 am   
    65   60   32 1    
    66   34   33 2    
    67   35   33 am   
    68   61   35 1    
@<TRIPOS>SUBSTRUCTURE
     1 GBO429      1 GROUP   
@<TRIPOS>SET

