#    Name: 4EMF_1_CAVITY_N1_6.mol2
#    Modification time : Mon Mar 10 17:32:19 2014

@<TRIPOS>MOLECULE
4EMF_1_CAVITY_N1_6.mol2
  105     0     6     0     0
SMALL
NO_CHARGES


@<TRIPOS>ATOM
      1 DU        -14.3218  -23.2286  -18.2548 H         6 CUB7        0.0000 
      2 O          -5.6980  -20.2645  -24.4471 O.2       2 ALA2        0.0000 
      3 O          -6.7280  -20.3048  -23.3574 O.2       2 ALA2        0.0000 
      4 CA         -9.8181  -20.4259  -20.0884 C.3       5 GLY6        0.0000 
      5 NZ        -10.8482  -20.4662  -18.9987 N.2       3 LYS4        0.0000 
      6 O          -6.8961  -21.7800  -23.5709 O.2       2 ALA2        0.0000 
      7 DU         -9.9862  -21.9011  -20.3019 H         6 CUB7        0.0000 
      8 NZ        -11.0162  -21.9414  -19.2122 N.2       3 LYS4        0.0000 
      9 NZ        -12.0463  -21.9818  -18.1225 N.2       3 LYS4        0.0000 
     10 CZ        -12.2143  -23.4570  -18.3360 C.ar      4 PHE5        0.0000 
     11 CA        -13.2444  -23.4973  -17.2463 C.3       5 GLY6        0.0000 
     12 CZ        -12.3824  -24.9322  -18.5495 C.ar      4 PHE5        0.0000 
     13 CZ        -13.4124  -24.9725  -17.4598 C.ar      4 PHE5        0.0000 
     14 CA        -14.4425  -25.0128  -16.3701 C.3       5 GLY6        0.0000 
     15 CZ        -12.5505  -26.4073  -18.7629 C.ar      4 PHE5        0.0000 
     16 N          -3.5906  -20.4928  -24.5283 N.2       2 ALA2        0.0000 
     17 CA         -4.6206  -20.5332  -23.4386 C.3       5 GLY6        0.0000 
     18 O          -5.6506  -20.5735  -22.3489 O.2       2 ALA2        0.0000 
     19 O          -6.6807  -20.6139  -21.2593 O.2       2 ALA2        0.0000 
     20 O          -8.7407  -20.6946  -19.0799 O.2       2 ALA2        0.0000 
     21 O          -9.7708  -20.7349  -17.9902 O.2       2 ALA2        0.0000 
     22 CZ         -4.7887  -22.0084  -23.6521 C.ar      4 PHE5        0.0000 
     23 DU         -5.8187  -22.0487  -22.5624 H         6 CUB7        0.0000 
     24 DU         -6.8487  -22.0891  -21.4727 H         6 CUB7        0.0000 
     25 CA         -7.8788  -22.1294  -20.3831 C.3       5 GLY6        0.0000 
     26 DU         -8.9088  -22.1698  -19.2934 H         6 CUB7        0.0000 
     27 CZ         -9.9388  -22.2101  -18.2037 C.ar      4 PHE5        0.0000 
     28 NZ        -10.9689  -22.2505  -17.1140 N.2       3 LYS4        0.0000 
     29 DU         -4.9567  -23.4836  -23.8656 H         6 CUB7        0.0000 
     30 DU         -7.0168  -23.5643  -21.6862 H         6 CUB7        0.0000 
     31 OG         -8.0468  -23.6046  -20.5965 O.2       1 SER1        0.0000 
     32 CZ         -9.0769  -23.6450  -19.5069 C.ar      4 PHE5        0.0000 
     33 CZ        -10.1069  -23.6853  -18.4172 C.ar      4 PHE5        0.0000 
     34 CZ        -11.1369  -23.7257  -17.3275 C.ar      4 PHE5        0.0000 
     35 CZ        -12.1670  -23.7660  -16.2378 C.ar      4 PHE5        0.0000 
     36 DU         -6.1548  -24.9991  -22.9894 H         6 CUB7        0.0000 
     37 OG         -7.1849  -25.0394  -21.8997 O.2       1 SER1        0.0000 
     38 OG         -8.2149  -25.0798  -20.8100 O.2       1 SER1        0.0000 
     39 CZ        -12.3350  -25.2412  -16.4513 C.ar      4 PHE5        0.0000 
     40 CA        -13.3651  -25.2815  -15.3616 C.3       5 GLY6        0.0000 
     41 CA         -6.3229  -26.4743  -23.2029 C.3       5 GLY6        0.0000 
     42 OG         -7.3529  -26.5146  -22.1132 O.2       1 SER1        0.0000 
     43 CZ        -12.5031  -26.7164  -16.6648 C.ar      4 PHE5        0.0000 
     44 CA         -7.5210  -27.9898  -22.3267 C.3       5 GLY6        0.0000 
     45 O          -5.6033  -20.8826  -20.2508 O.2       2 ALA2        0.0000 
     46 N          -6.6333  -20.9229  -19.1611 N.2       2 ALA2        0.0000 
     47 N          -8.6934  -21.0036  -16.9817 N.2       2 ALA2        0.0000 
     48 NZ         -9.7234  -21.0440  -15.8921 N.2       3 LYS4        0.0000 
     49 N          -2.6812  -22.2367  -23.7333 N.2       2 ALA2        0.0000 
     50 CZ         -3.7113  -22.2771  -22.6436 C.ar      4 PHE5        0.0000 
     51 CZ         -4.7413  -22.3174  -21.5539 C.ar      4 PHE5        0.0000 
     52 DU         -5.7713  -22.3578  -20.4643 H         6 CUB7        0.0000 
     53 N          -6.8014  -22.3981  -19.3746 N.2       2 ALA2        0.0000 
     54 N          -7.8314  -22.4385  -18.2849 N.2       2 ALA2        0.0000 
     55 CZ         -8.8614  -22.4788  -17.1952 C.ar      4 PHE5        0.0000 
     56 CZ         -9.8915  -22.5191  -16.1055 C.ar      4 PHE5        0.0000 
     57 CA         -2.8493  -23.7119  -23.9468 C.3       5 GLY6        0.0000 
     58 N          -3.8793  -23.7522  -22.8571 N.2       2 ALA2        0.0000 
     59 DU         -4.9094  -23.7926  -21.7674 H         6 CUB7        0.0000 
     60 DU         -5.9394  -23.8329  -20.6778 H         6 CUB7        0.0000 
     61 CZ         -6.9694  -23.8733  -19.5881 C.ar      4 PHE5        0.0000 
     62 CZ         -7.9995  -23.9136  -18.4984 C.ar      4 PHE5        0.0000 
     63 N          -3.0174  -25.1871  -24.1603 N.2       2 ALA2        0.0000 
     64 N          -4.0474  -25.2274  -23.0706 N.2       2 ALA2        0.0000 
     65 DU         -5.0774  -25.2678  -21.9809 H         6 CUB7        0.0000 
     66 OG         -6.1075  -25.3081  -20.8912 O.2       1 SER1        0.0000 
     67 CA         -4.2155  -26.7026  -23.2841 C.3       5 GLY6        0.0000 
     68 CA         -5.2455  -26.7430  -22.1944 C.3       5 GLY6        0.0000 
     69 OG         -6.2755  -26.7833  -21.1047 O.2       1 SER1        0.0000 
     70 CA         -6.4436  -28.2585  -21.3182 C.3       5 GLY6        0.0000 
     71 CZ         -4.5259  -21.1513  -19.2423 C.ar      4 PHE5        0.0000 
     72 N          -5.5559  -21.1916  -18.1526 N.2       2 ALA2        0.0000 
     73 N          -6.5860  -21.2320  -17.0629 N.2       2 ALA2        0.0000 
     74 N          -7.6160  -21.2723  -15.9733 N.2       2 ALA2        0.0000 
     75 CZ         -2.6339  -22.5457  -21.6352 C.ar      4 PHE5        0.0000 
     76 CZ         -3.6639  -22.5861  -20.5455 C.ar      4 PHE5        0.0000 
     77 CZ         -4.6939  -22.6264  -19.4558 C.ar      4 PHE5        0.0000 
     78 DU         -5.7240  -22.6668  -18.3661 H         6 CUB7        0.0000 
     79 CZ         -6.7540  -22.7071  -17.2764 C.ar      4 PHE5        0.0000 
     80 CZ         -7.7840  -22.7475  -16.1868 C.ar      4 PHE5        0.0000 
     81 N          -2.8019  -24.0209  -21.8486 N.2       2 ALA2        0.0000 
     82 N          -3.8320  -24.0613  -20.7590 N.2       2 ALA2        0.0000 
     83 DU         -4.8620  -24.1016  -19.6693 H         6 CUB7        0.0000 
     84 CZ         -5.8920  -24.1420  -18.5796 C.ar      4 PHE5        0.0000 
     85 N          -2.9700  -25.4961  -22.0621 N.2       2 ALA2        0.0000 
     86 N          -4.0000  -25.5365  -20.9724 N.2       2 ALA2        0.0000 
     87 CZ         -5.0301  -25.5768  -19.8828 C.ar      4 PHE5        0.0000 
     88 O          -3.1381  -26.9713  -22.2756 O.2       2 ALA2        0.0000 
     89 CZ         -4.1681  -27.0117  -21.1859 C.ar      4 PHE5        0.0000 
     90 CZ         -5.1981  -27.0520  -20.0962 C.ar      4 PHE5        0.0000 
     91 CA         -5.3405  -20.0254  -15.8410 C.3       5 GLY6        0.0000 
     92 CA         -4.4785  -21.4603  -17.1442 C.3       5 GLY6        0.0000 
     93 N          -5.5086  -21.5006  -16.0545 N.2       2 ALA2        0.0000 
     94 O          -6.5386  -21.5410  -14.9648 O.2       2 ALA2        0.0000 
     95 NZ         -3.6165  -22.8951  -18.4473 N.2       3 LYS4        0.0000 
     96 O          -4.6466  -22.9355  -17.3576 O.2       2 ALA2        0.0000 
     97 CZ         -5.6766  -22.9758  -16.2680 C.ar      4 PHE5        0.0000 
     98 NZ         -2.7546  -24.3300  -19.7505 N.2       3 LYS4        0.0000 
     99 O          -3.7846  -24.3703  -18.6608 O.2       2 ALA2        0.0000 
    100 O          -4.8146  -24.4107  -17.5711 O.2       2 ALA2        0.0000 
    101 O          -2.9226  -25.8052  -19.9640 O.2       2 ALA2        0.0000 
    102 O          -3.9527  -25.8455  -18.8743 O.2       2 ALA2        0.0000 
    103 CA         -4.4312  -21.7693  -15.0460 C.3       5 GLY6        0.0000 
    104 O          -3.5692  -23.2042  -16.3492 O.2       2 ALA2        0.0000 
    105 N          -4.5992  -23.2445  -15.2595 N.2       2 ALA2        0.0000 
@<TRIPOS>BOND
@<TRIPOS>SUBSTRUCTURE
     1 SER1       31 GROUP   
     2 ALA2        2 GROUP   
     3 LYS4        5 GROUP   
     4 PHE5       10 GROUP   
     5 GLY6        4 GROUP   
     6 CUB7        1 GROUP   
@<TRIPOS>SET

