#    Name: 4emf_M7G_1_INTS_M
#    Modification time : Mon Mar 24 18:16:39 2014

@<TRIPOS>MOLECULE
4emf_M7G_1_INTS_M
   49     0     9     0     0
SMALL
NO_CHARGES


@<TRIPOS>ATOM
      1 N          -5.8185  -19.0645  -21.9285 N.am      2 SEC2        0.0000 
      2 N          -5.7330  -20.2010  -22.5810 N.am      8 SEL2        0.0000 
      3 N          -5.9040  -17.9280  -21.2760 N.am      5 SEP2        0.0000 
      4 N          -5.9660  -19.4735  -20.6920 N.am      2 SEC2        0.0000 
      5 N          -6.0280  -21.0190  -20.1080 N.am      8 SEL2        0.0000 
      6 N          -3.8990  -25.8200  -22.9010 N.am      2 SEC2        0.0000 
      7 N          -4.6720  -24.6590  -22.6530 N.am      8 SEL2        0.0000 
      8 N          -3.1260  -26.9810  -23.1490 N.am      5 SEP2        0.0000 
      9 CA         -6.5485  -19.4005  -19.9970 C.3       3 GLC5        0.0000 
     10 CA         -4.8520  -20.5280  -19.4610 C.3       9 GLL5        0.0000 
     11 CA         -8.2450  -18.2730  -20.5330 C.3       6 GLP5        0.0000 
     12 CA         -3.5905  -20.2665  -20.4060 C.3       3 GLC5        0.0000 
     13 CA         -2.3290  -20.0050  -21.3510 C.3       6 GLP5        0.0000 
     14 CA         -2.7795  -20.6535  -18.7325 C.3       3 GLC5        0.0000 
     15 CA         -4.5140  -21.2830  -18.1860 C.3       9 GLL5        0.0000 
     16 CA         -1.0450  -20.0240  -19.2790 C.3       6 GLP5        0.0000 
     17 CA         -2.6310  -21.6375  -19.4565 C.3       3 GLC5        0.0000 
     18 CA         -3.8140  -22.6120  -18.4780 C.3       9 GLL5        0.0000 
     19 CA         -1.4480  -20.6630  -20.4350 C.3       6 GLP5        0.0000 
     20 N          -2.5600  -24.3905  -17.1120 N.am      2 SEC2        0.0000 
     21 N          -3.1960  -23.1630  -17.2830 N.am      8 SEL2        0.0000 
     22 N          -1.9240  -25.6180  -16.9410 N.am      5 SEP2        0.0000 
     23 CA         -6.1730  -24.8870  -18.1050 C.3       3 GLC5        0.0000 
     24 CA         -4.9950  -23.4680  -18.8290 C.3       9 GLL5        0.0000 
     25 CA         -7.3510  -26.3060  -17.3810 C.3       6 GLP5        0.0000 
     26 N          -3.3085  -25.2145  -17.7115 N.am      2 SEC2        0.0000 
     27 N          -4.6930  -24.8110  -18.4820 N.am      8 SEL2        0.0000 
     28 N          -4.2790  -25.6350  -17.2700 N.am      2 SEC2        0.0000 
     29 N          -3.8650  -26.4590  -16.0580 N.am      5 SEP2        0.0000 
     30 CA         -6.6720  -24.3240  -16.9860 C.3       3 GLC5        0.0000 
     31 CA         -6.0450  -22.9560  -17.8740 C.3       9 GLL5        0.0000 
     32 CA         -7.2990  -25.6920  -16.0980 C.3       6 GLP5        0.0000 
     33 CA         -8.1455  -25.0165  -18.8355 C.3       3 GLC5        0.0000 
     34 CA         -7.6890  -23.5620  -19.6610 C.3       9 GLL5        0.0000 
     35 CA         -8.6020  -26.4710  -18.0100 C.3       6 GLP5        0.0000 
     36 CA         -9.2105  -25.1190  -19.4250 C.3       3 GLC5        0.0000 
     37 CA         -9.8190  -23.7670  -20.8400 C.3       9 GLL5        0.0000 
     38 O         -11.6975  -20.4985  -16.7320 O.2       1 ALC1        0.0000 
     39 O         -10.8170  -21.5190  -16.8010 O.2       7 ALL1        0.0000 
     40 O         -12.5780  -19.4780  -16.6630 O.2       4 ALP1        0.0000 
     41 O         -11.7165  -21.0180  -15.7590 O.2       1 ALC1        0.0000 
     42 O         -12.6160  -20.5170  -14.7170 O.2       4 ALP1        0.0000 
     43 O         -11.1405  -20.6285  -14.7895 O.2       1 ALC1        0.0000 
     44 O          -9.6650  -20.7400  -14.8620 O.2       7 ALL1        0.0000 
     45 CA         -8.4195  -23.4950  -15.8690 C.3       3 GLC5        0.0000 
     46 CA         -8.3860  -22.3930  -17.6790 C.3       9 GLL5        0.0000 
     47 CA         -8.4530  -24.5970  -14.0590 C.3       6 GLP5        0.0000 
     48 CA         -3.0635  -21.2278  -16.8815 C.3       3 GLC5        0.0000 
     49 CA         -1.9630  -20.5080  -15.4310 C.3       6 GLP5        0.0000 
@<TRIPOS>BOND
@<TRIPOS>SUBSTRUCTURE
     1 ALC1       38 GROUP        1 X    ALC  0     ROOT ALC X 1
     2 SEC2        1 GROUP        1 X    SEC  0     **** SEC X 2
     3 GLC5        9 GROUP        1 X    GLC  0     **** GLC X 6
     4 ALP1       40 GROUP        1 Y    ALP  0     ROOT ALP Y 8
     5 SEP2        3 GROUP        1 Y    SEP  0     **** SEP Y 9
     6 GLP5       11 GROUP        1 Y    GLP  0     **** GLP Y 13
     7 ALL1       39 GROUP        1 Z    ALL  0     ROOT ALL Z 15
     8 SEL2        2 GROUP        1 Z    SEL  0     **** SEL Z 16
     9 GLL5       10 GROUP        1 Z    GLL  0     **** GLL Z 20
@<TRIPOS>SET

