#    Name: 4emf_M7G_1_ligand
#    Modification time : Mon Mar 24 18:16:39 2014

@<TRIPOS>MOLECULE
4emf_M7G_1_ligand
   45    47     1     0     0
SMALL
NO_CHARGES


@<TRIPOS>ATOM
      1 PA         -6.0820  -21.3320  -21.6960 P.3       1 M7G304      0.0000 
      2 O1A        -7.3790  -22.0970  -21.9020 O.co2     1 M7G304      0.0000 
      3 O2A        -5.7330  -20.2010  -22.5810 O.co2     1 M7G304      0.0000 
      4 O3A        -4.8800  -22.4190  -21.6680 O.3       1 M7G304      0.0000 
      5 O5'        -6.0280  -21.0190  -20.1080 O.3       1 M7G304      0.0000 
      6 PB         -4.1330  -23.2600  -22.8240 P.3       1 M7G304      0.0000 
      7 O1B        -4.4320  -22.6630  -24.1840 O.co2     1 M7G304      0.0000 
      8 O2B        -2.6890  -23.1200  -22.4910 O.co2     1 M7G304      0.0000 
      9 O3B        -4.6720  -24.6590  -22.6530 O.co2     1 M7G304      0.0000 
     10 C5'        -4.8520  -20.5280  -19.4610 C.3       1 M7G304      0.0000 
     11 C4'        -4.5140  -21.2830  -18.1860 C.3       1 M7G304      0.0000 
     12 O4'        -5.7480  -21.6040  -17.5590 O.3       1 M7G304      0.0000 
     13 C3'        -3.8140  -22.6120  -18.4780 C.3       1 M7G304      0.0000 
     14 O3'        -3.1960  -23.1630  -17.2830 O.3       1 M7G304      0.0000 
     15 C2'        -4.9950  -23.4680  -18.8290 C.3       1 M7G304      0.0000 
     16 O2'        -4.6930  -24.8110  -18.4820 O.3       1 M7G304      0.0000 
     17 C1'        -6.0450  -22.9560  -17.8740 C.3       1 M7G304      0.0000 
     18 N9         -7.4150  -22.9460  -18.3650 N.3       1 M7G304      0.0000 
     19 C8         -7.6890  -23.5620  -19.6610 C.3       1 M7G304      0.0000 
     20 N7         -9.1230  -23.2650  -19.6190 N.3       1 M7G304      0.0000 
     21 CM7        -9.8190  -23.7670  -20.8400 C.3       1 M7G304      0.0000 
     22 C5         -9.5530  -22.6140  -18.5180 C.2       1 M7G304      0.0000 
     23 C6        -10.8400  -22.1250  -18.0160 C.2       1 M7G304      0.0000 
     24 O6        -11.8750  -22.2950  -18.6940 O.2       1 M7G304      0.0000 
     25 N1        -10.8170  -21.5190  -16.8010 N.am      1 M7G304      0.0000 
     26 C2         -9.6800  -21.3380  -16.0710 C.2       1 M7G304      0.0000 
     27 N2         -9.6650  -20.7400  -14.8620 N.pl3     1 M7G304      0.0000 
     28 N3         -8.4930  -21.7860  -16.4780 N.2       1 M7G304      0.0000 
     29 C4         -8.3860  -22.3930  -17.6790 C.2       1 M7G304      0.0000 
     30 H          -4.9572  -19.4540  -19.1974 H         1 M7G304      0.0000 
     31 H          -3.9689  -20.5897  -20.1320 H         1 M7G304      0.0000 
     32 H          -3.9011  -20.6885  -17.5654 H         1 M7G304      0.0000 
     33 H          -3.1928  -22.5139  -19.2896 H         1 M7G304      0.0000 
     34 H          -5.2838  -23.3110  -19.7984 H         1 M7G304      0.0000 
     35 H          -5.9936  -23.5448  -16.9539 H         1 M7G304      0.0000 
     36 H          -7.5220  -24.5892  -19.6295 H         1 M7G304      0.0000 
     37 H          -7.2239  -23.0368  -20.4303 H         1 M7G304      0.0000 
     38 H         -11.7337  -21.1660  -16.3954 H         1 M7G304      0.0000 
     39 H         -10.5379  -20.3709  -14.5428 H         1 M7G304      0.0000 
     40 H          -8.7823  -20.7189  -14.3924 H         1 M7G304      0.0000 
     41 H          -9.4568  -23.3480  -21.6726 H         1 M7G304      0.0000 
     42 H          -9.7205  -24.7568  -20.9432 H         1 M7G304      0.0000 
     43 H         -10.7993  -23.5710  -20.8157 H         1 M7G304      0.0000 
     44 H          -3.8481  -22.9808  -16.5471 H         1 M7G304      0.0000 
     45 H          -3.8718  -24.7531  -17.9143 H         1 M7G304      0.0000 
@<TRIPOS>BOND
     1    2    1 ar   
     2    3    1 ar   
     3    4    1 1    
     4    5    1 1    
     5    6    4 1    
     6   10    5 1    
     7    7    6 ar   
     8    8    6 ar   
     9    9    6 ar   
    10   11   10 1    
    11   30   10 1    
    12   31   10 1    
    13   12   11 1    
    14   13   11 1    
    15   32   11 1    
    16   17   12 1    
    17   14   13 1    
    18   15   13 1    
    19   33   13 1    
    20   44   14 1    
    21   16   15 1    
    22   17   15 1    
    23   34   15 1    
    24   45   16 1    
    25   18   17 1    
    26   35   17 1    
    27   19   18 1    
    28   29   18 1    
    29   20   19 1    
    30   36   19 1    
    31   37   19 1    
    32   21   20 1    
    33   22   20 1    
    34   41   21 1    
    35   42   21 1    
    36   43   21 1    
    37   23   22 1    
    38   29   22 2    
    39   24   23 2    
    40   25   23 am   
    41   26   25 1    
    42   38   25 1    
    43   27   26 1    
    44   28   26 2    
    45   39   27 1    
    46   40   27 1    
    47   29   28 1    
@<TRIPOS>SUBSTRUCTURE
     1 M7G304      1 GROUP   
@<TRIPOS>SET

