#    Name: 1yqz_FAD_2_INTS_M
#    Modification time : Mon Apr  7 15:52:27 2014

@<TRIPOS>MOLECULE
1yqz_FAD_2_INTS_M
  124     0     9     0     0
SMALL
NO_CHARGES


@<TRIPOS>ATOM
      1 N          25.4040    7.6060  -10.6090 N.am      2 SEC2        0.0000 
      2 N          24.7800    8.8780  -11.3180 N.am      8 SEL2        0.0000 
      3 N          26.0280    6.3340   -9.9000 N.am      5 SEP2        0.0000 
      4 N          25.3425   10.0665  -10.6610 N.am      2 SEC2        0.0000 
      5 N          25.9050   11.2550  -10.0040 N.am      5 SEP2        0.0000 
      6 CA         22.5805    8.6570  -15.3290 C.3       3 GLC5        0.0000 
      7 CA         24.5620    8.4190  -15.1050 C.3       9 GLL5        0.0000 
      8 CA         20.5990    8.8950  -15.5530 C.3       6 GLP5        0.0000 
      9 CA         26.1065    6.2150  -16.4725 C.3       3 GLC5        0.0000 
     10 CA         25.7610    8.0470  -15.9150 C.3       9 GLL5        0.0000 
     11 CA         26.4520    4.3830  -17.0300 C.3       6 GLP5        0.0000 
     12 O          28.5655    8.2220  -16.3365 O.2       1 ALC1        0.0000 
     13 O          27.9390    9.3040  -15.8560 O.2       7 ALL1        0.0000 
     14 O          29.1920    7.1400  -16.8170 O.2       4 ALP1        0.0000 
     15 N          27.1300   11.0865  -19.5665 N.am      2 SEC2        0.0000 
     16 N          27.4750   10.0880  -18.4290 N.am      8 SEL2        0.0000 
     17 N          26.7850   12.0850  -20.7040 N.am      5 SEP2        0.0000 
     18 O          28.6475    9.4015  -18.3315 O.2       1 ALC1        0.0000 
     19 O          27.4750   10.0880  -18.4290 O.2       7 ALL1        0.0000 
     20 O          29.8200    8.7150  -18.2340 O.2       4 ALP1        0.0000 
     21 CA         26.3425    6.1845  -17.6085 C.3       3 GLC5        0.0000 
     22 CA         26.2330    7.9860  -18.1870 C.3       9 GLL5        0.0000 
     23 CA         24.2190    7.1860  -18.0390 C.3       3 GLC5        0.0000 
     24 CA         22.2050    6.3860  -17.8910 C.3       6 GLP5        0.0000 
     25 CA         23.3990    6.6970  -20.4130 C.3       3 GLC5        0.0000 
     26 CA         25.1470    7.0980  -21.5140 C.3       9 GLL5        0.0000 
     27 CA         21.6510    6.2960  -19.3120 C.3       6 GLP5        0.0000 
     28 CA         26.4260    7.1635  -24.2945 C.3       3 GLC5        0.0000 
     29 CA         25.4540    6.3940  -22.6510 C.3       9 GLL5        0.0000 
     30 CA         27.3980    7.9330  -25.9380 C.3       6 GLP5        0.0000 
     31 CA         25.5375    4.5465  -23.8370 C.3       3 GLC5        0.0000 
     32 CA         25.6210    2.6990  -25.0230 C.3       6 GLP5        0.0000 
     33 O          24.7190    5.8695  -25.0590 O.2       1 ALC1        0.0000 
     34 O          24.6170    6.4280  -23.7150 O.2       7 ALL1        0.0000 
     35 O          24.8210    5.3110  -26.4030 O.2       4 ALP1        0.0000 
     36 N          26.9435    5.0685  -24.0745 N.am      2 SEC2        0.0000 
     37 N          26.5920    5.6540  -22.7560 N.am      8 SEL2        0.0000 
     38 N          27.2950    4.4830  -25.3930 N.am      5 SEP2        0.0000 
     39 CA         25.9985    4.3610  -21.4290 C.3       3 GLC5        0.0000 
     40 CA         27.4780    5.5830  -21.7390 C.3       9 GLL5        0.0000 
     41 CA         24.5190    3.1390  -21.1190 C.3       6 GLP5        0.0000 
     42 CA         29.0540    5.4950  -20.6065 C.3       3 GLC5        0.0000 
     43 CA         30.6300    5.4070  -19.4740 C.3       6 GLP5        0.0000 
     44 CA         28.3205    7.1805  -22.1990 C.3       3 GLC5        0.0000 
     45 CA         29.1630    8.7780  -22.6590 C.3       6 GLP5        0.0000 
     46 CA         28.2875    5.8445  -23.5520 C.3       3 GLC5        0.0000 
     47 CA         29.0970    6.1060  -25.3650 C.3       6 GLP5        0.0000 
     48 N          28.6845    6.7495  -20.7990 N.am      2 SEC2        0.0000 
     49 N          27.2280    6.2580  -20.6010 N.am      8 SEL2        0.0000 
     50 N          30.1410    7.2410  -20.9970 N.am      5 SEP2        0.0000 
     51 CA         26.2780    5.6905  -18.7500 C.3       3 GLC5        0.0000 
     52 CA         26.1040    6.9980  -20.4700 C.3       9 GLL5        0.0000 
     53 CA         27.2390    8.3370  -21.0835 C.3       3 GLC5        0.0000 
     54 CA         28.3740    9.6760  -21.6970 C.3       6 GLP5        0.0000 
     55 N          19.9395   11.1635   -4.8185 N.am      2 SEC2        0.0000 
     56 N          20.4370   12.8200   -4.7580 N.am      8 SEL2        0.0000 
     57 N          19.4420    9.5070   -4.8790 N.am      5 SEP2        0.0000 
     58 N          19.4730   10.5995   -3.9855 N.am      2 SEC2        0.0000 
     59 N          19.5040   11.6920   -3.0920 N.am      8 SEL2        0.0000 
     60 O          20.0795   13.3215   -1.1365 O.2       1 ALC1        0.0000 
     61 O          20.5800   13.6010   -2.5090 O.2       7 ALL1        0.0000 
     62 O          19.5790   13.0420    0.2360 O.2       4 ALP1        0.0000 
     63 CA         24.9155   15.9045   -5.3815 C.3       3 GLC5        0.0000 
     64 CA         23.6570   17.0680   -6.4020 C.3       9 GLL5        0.0000 
     65 CA         26.1740   14.7410   -4.3610 C.3       6 GLP5        0.0000 
     66 CA         25.4065   18.2475   -5.7315 C.3       3 GLC5        0.0000 
     67 CA         27.1560   19.4270   -5.0610 C.3       6 GLP5        0.0000 
     68 CA         27.1705   18.2520   -7.9125 C.3       3 GLC5        0.0000 
     69 CA         25.0510   18.3120   -8.1110 C.3       9 GLL5        0.0000 
     70 CA         29.2900   18.1920   -7.7140 C.3       6 GLP5        0.0000 
     71 CA         26.1035   18.8695   -6.5860 C.3       3 GLC5        0.0000 
     72 CA         25.9195   19.8675   -8.6145 C.3       3 GLC5        0.0000 
     73 CA         26.7880   21.4230   -9.1180 C.3       6 GLP5        0.0000 
     74 CA         25.1035   16.7880  -11.7840 C.3       3 GLC5        0.0000 
     75 CA         24.1380   16.2580  -10.1660 C.3       9 GLL5        0.0000 
     76 CA         26.0690   17.3180  -13.4020 C.3       6 GLP5        0.0000 
     77 CA         19.2145   11.7570   -6.7000 C.3       3 GLC5        0.0000 
     78 CA         20.8940   13.0010   -7.4550 C.3       9 GLL5        0.0000 
     79 CA         17.5350   10.5130   -5.9450 C.3       6 GLP5        0.0000 
     80 CA         22.8630   12.3625   -5.8775 C.3       3 GLC5        0.0000 
     81 CA         21.7170   11.7460   -7.6500 C.3       9 GLL5        0.0000 
     82 CA         24.0090   12.9790   -4.1050 C.3       6 GLP5        0.0000 
     83 CA         23.2605   11.5615   -6.4575 C.3       3 GLC5        0.0000 
     84 CA         24.8040   11.3770   -5.2650 C.3       6 GLP5        0.0000 
     85 CA         19.2960   10.7035   -7.3310 C.3       3 GLC5        0.0000 
     86 CA         21.0570   10.8940   -8.7170 C.3       9 GLL5        0.0000 
     87 O          18.8990   10.1715   -9.3460 O.2       1 ALC1        0.0000 
     88 O          19.7490   10.5190   -8.2750 O.2       7 ALL1        0.0000 
     89 O          18.0490    9.8240  -10.4170 O.2       4 ALP1        0.0000 
     90 CA         20.8700    7.0535   -9.0260 C.3       3 GLC5        0.0000 
     91 CA         21.1770    8.8000  -10.0960 C.3       9 GLL5        0.0000 
     92 CA         20.5630    5.3070   -7.9560 C.3       6 GLP5        0.0000 
     93 N          23.3620    5.2465  -11.0820 N.am      2 SEC2        0.0000 
     94 N          22.9110    6.0900  -12.1580 N.am      8 SEL2        0.0000 
     95 N          23.8130    4.4030  -10.0060 N.am      5 SEP2        0.0000 
     96 N          22.4345    4.8915  -12.6810 N.am      2 SEC2        0.0000 
     97 N          21.9580    3.6930  -13.2040 N.am      5 SEP2        0.0000 
     98 N          24.0200    5.5600  -12.8235 N.am      2 SEC2        0.0000 
     99 N          25.1290    5.0300  -13.4890 N.am      5 SEP2        0.0000 
    100 N          19.2155    7.2225  -12.3300 N.am      2 SEC2        0.0000 
    101 N          20.6620    7.1760  -12.5390 N.am      8 SEL2        0.0000 
    102 N          17.7690    7.2690  -12.1210 N.am      5 SEP2        0.0000 
    103 CA         23.6832    7.3095  -16.7005 C.3       3 GLC5        0.0000 
    104 CA         27.4195    8.2787  -14.5520 C.3       3 GLC5        0.0000 
    105 CA         28.6840    7.8750  -13.0070 C.3       6 GLP5        0.0000 
    106 CA         26.2312    9.8270  -19.7188 C.3       3 GLC5        0.0000 
    107 CA         26.3560    9.4200  -17.7940 C.3       9 GLL5        0.0000 
    108 CA         26.1680   10.9510  -21.4470 C.3       6 GLP5        0.0000 
    109 CA         26.2108    8.4865  -22.2368 C.3       3 GLC5        0.0000 
    110 CA         27.1210   10.2270  -22.3910 C.3       6 GLP5        0.0000 
    111 CA         25.1106    5.0055  -21.1976 C.3       3 GLC5        0.0000 
    112 CA         23.2933   14.2535   -5.2955 C.3       3 GLC5        0.0000 
    113 CA         22.3570   15.0470   -6.9570 C.3       9 GLL5        0.0000 
    114 CA         23.5695   19.1570   -7.6867 C.3       3 GLC5        0.0000 
    115 CA         24.1010   17.1640   -7.7520 C.3       9 GLL5        0.0000 
    116 CA         22.5630   20.5760   -7.4420 C.3       6 GLP5        0.0000 
    117 CA         24.7719   14.2734   -8.5381 C.3       3 GLC5        0.0000 
    118 CA         23.6690   16.1990   -8.7010 C.3       9 GLL5        0.0000 
    119 CA         26.1880   12.8520   -8.1970 C.3       6 GLP5        0.0000 
    120 CA         21.7061   17.4484   -6.7039 C.3       3 GLC5        0.0000 
    121 CA         20.6200   19.1040   -6.8250 C.3       6 GLP5        0.0000 
    122 CA         22.9053    8.1182   -8.9280 C.3       3 GLC5        0.0000 
    123 CA         21.8660    9.6290   -9.0160 C.3       9 GLL5        0.0000 
    124 CA         24.2890    7.0220   -8.3000 C.3       6 GLP5        0.0000 
@<TRIPOS>BOND
@<TRIPOS>SUBSTRUCTURE
     1 ALC1       12 GROUP        1 X    ALC  0     ROOT ALC X 1
     2 SEC2        1 GROUP        1 X    SEC  0     **** SEC X 2
     3 GLC5        6 GROUP        1 X    GLC  0     **** GLC X 6
     4 ALP1       14 GROUP        1 Y    ALP  0     ROOT ALP Y 8
     5 SEP2        3 GROUP        1 Y    SEP  0     **** SEP Y 9
     6 GLP5        8 GROUP        1 Y    GLP  0     **** GLP Y 13
     7 ALL1       13 GROUP        1 Z    ALL  0     ROOT ALL Z 15
     8 SEL2        2 GROUP        1 Z    SEL  0     **** SEL Z 16
     9 GLL5        7 GROUP        1 Z    GLL  0     **** GLL Z 20
@<TRIPOS>SET

