#    Name: 1yqz_FAD_2_ligand
#    Modification time : Mon Apr  7 15:52:27 2014

@<TRIPOS>MOLECULE
1yqz_FAD_2_ligand
   84    89     1     0     0
SMALL
NO_CHARGES


@<TRIPOS>ATOM
      1 PA         24.1760    9.1670  -12.6410 P.3       1 FAD439      0.0000 
      2 O1A        24.0470   10.5630  -13.0560 O.co2     1 FAD439      0.0000 
      3 O2A        24.7800    8.8780  -11.3180 O.co2     1 FAD439      0.0000 
      4 O5B        25.0200    8.3860  -13.7310 O.3       1 FAD439      0.0000 
      5 C5B        24.5620    8.4190  -15.1050 C.3       1 FAD439      0.0000 
      6 C4B        25.7610    8.0470  -15.9150 C.3       1 FAD439      0.0000 
      7 O4B        25.5060    7.3310  -17.1540 O.3       1 FAD439      0.0000 
      8 C3B        26.5490    9.3180  -16.2790 C.3       1 FAD439      0.0000 
      9 O3B        27.9390    9.3040  -15.8560 O.3       1 FAD439      0.0000 
     10 C2B        26.3560    9.4200  -17.7940 C.3       1 FAD439      0.0000 
     11 O2B        27.4750   10.0880  -18.4290 O.3       1 FAD439      0.0000 
     12 C1B        26.2330    7.9860  -18.1870 C.3       1 FAD439      0.0000 
     13 N9A        25.5880    7.7650  -19.4920 N.pl3     1 FAD439      0.0000 
     14 C8A        24.4350    8.2730  -19.9040 C.2       1 FAD439      0.0000 
     15 N7A        24.1350    7.8770  -21.1570 N.2       1 FAD439      0.0000 
     16 C5A        25.1470    7.0980  -21.5140 C.ar      1 FAD439      0.0000 
     17 C6A        25.4540    6.3940  -22.6510 C.ar      1 FAD439      0.0000 
     18 N6A        24.6170    6.4280  -23.7150 N.pl3     1 FAD439      0.0000 
     19 N1A        26.5920    5.6540  -22.7560 N.ar      1 FAD439      0.0000 
     20 C2A        27.4780    5.5830  -21.7390 C.ar      1 FAD439      0.0000 
     21 N3A        27.2280    6.2580  -20.6010 N.ar      1 FAD439      0.0000 
     22 C4A        26.1040    6.9980  -20.4700 C.ar      1 FAD439      0.0000 
     23 N1         20.4370   12.8200   -4.7580 N.2       1 FAD439      0.0000 
     24 C2         20.1340   12.6640   -3.4520 C.2       1 FAD439      0.0000 
     25 O2         19.5040   11.6920   -3.0920 O.2       1 FAD439      0.0000 
     26 N3         20.5800   13.6010   -2.5090 N.am      1 FAD439      0.0000 
     27 C4         21.3340   14.7000   -2.8920 C.2       1 FAD439      0.0000 
     28 O4         21.8070   15.4490   -1.9980 O.2       1 FAD439      0.0000 
     29 C4X        21.6680   14.8560   -4.2440 C.2       1 FAD439      0.0000 
     30 N5         22.4260   15.8940   -4.6850 N.2       1 FAD439      0.0000 
     31 C5X        22.7980   16.0090   -6.0150 C.ar      1 FAD439      0.0000 
     32 C6         23.6570   17.0680   -6.4020 C.ar      1 FAD439      0.0000 
     33 C7         24.1010   17.1640   -7.7520 C.ar      1 FAD439      0.0000 
     34 C7M        25.0510   18.3120   -8.1110 C.3       1 FAD439      0.0000 
     35 C8         23.6690   16.1990   -8.7010 C.ar      1 FAD439      0.0000 
     36 C8M        24.1380   16.2580  -10.1660 C.3       1 FAD439      0.0000 
     37 C9         22.8080   15.1610   -8.3250 C.ar      1 FAD439      0.0000 
     38 C9A        22.3570   15.0470   -6.9570 C.ar      1 FAD439      0.0000 
     39 N10        21.5210   13.9850   -6.5360 N.pl3     1 FAD439      0.0000 
     40 C10        21.1900   13.8670   -5.1770 C.2       1 FAD439      0.0000 
     41 C1'        20.8940   13.0010   -7.4550 C.3       1 FAD439      0.0000 
     42 C2'        21.7170   11.7460   -7.6500 C.3       1 FAD439      0.0000 
     43 O2'        23.0310   12.1490   -8.0360 O.3       1 FAD439      0.0000 
     44 C3'        21.0570   10.8940   -8.7170 C.3       1 FAD439      0.0000 
     45 O3'        19.7490   10.5190   -8.2750 O.3       1 FAD439      0.0000 
     46 C4'        21.8660    9.6290   -9.0160 C.3       1 FAD439      0.0000 
     47 O4'        23.1700    9.9810   -9.4550 O.3       1 FAD439      0.0000 
     48 C5'        21.1770    8.8000  -10.0960 C.3       1 FAD439      0.0000 
     49 O5'        21.9580    7.6610  -10.4670 O.3       1 FAD439      0.0000 
     50 P          22.0230    7.2840  -12.0260 P.3       1 FAD439      0.0000 
     51 O1P        22.9110    6.0900  -12.1580 O.co2     1 FAD439      0.0000 
     52 O2P        20.6620    7.1760  -12.5390 O.co2     1 FAD439      0.0000 
     53 O3P        22.7060    8.5540  -12.7090 O.3       1 FAD439      0.0000 
     54 H          24.2351    9.4068  -15.3836 H         1 FAD439      0.0000 
     55 H          23.7797    7.6979  -15.2729 H         1 FAD439      0.0000 
     56 H          26.4460    7.4546  -15.2839 H         1 FAD439      0.0000 
     57 H          25.9961   10.1535  -15.8421 H         1 FAD439      0.0000 
     58 H          25.4238    9.9068  -17.9641 H         1 FAD439      0.0000 
     59 H          27.2525    7.5645  -18.2173 H         1 FAD439      0.0000 
     60 H          23.8557    8.8716  -19.3660 H         1 FAD439      0.0000 
     61 H          24.8943    5.8890  -24.5104 H         1 FAD439      0.0000 
     62 H          23.7958    6.9891  -23.6111 H         1 FAD439      0.0000 
     63 H          28.3401    5.0148  -21.8353 H         1 FAD439      0.0000 
     64 H          20.3389   13.4641   -1.5120 H         1 FAD439      0.0000 
     65 H          23.9575   17.7596   -5.7193 H         1 FAD439      0.0000 
     66 H          22.4864   14.4722   -9.0052 H         1 FAD439      0.0000 
     67 H          20.7237   13.4688   -8.4435 H         1 FAD439      0.0000 
     68 H          19.8969   12.7133   -7.0704 H         1 FAD439      0.0000 
     69 H          21.7237   11.2050   -6.7242 H         1 FAD439      0.0000 
     70 H          20.9953   11.4748   -9.6297 H         1 FAD439      0.0000 
     71 H          21.9036    9.0355   -8.1128 H         1 FAD439      0.0000 
     72 H          20.9933    9.4627  -10.9600 H         1 FAD439      0.0000 
     73 H          20.1870    8.5021   -9.7082 H         1 FAD439      0.0000 
     74 H          25.8982   18.2724   -7.5812 H         1 FAD439      0.0000 
     75 H          25.3083   18.2928   -9.0771 H         1 FAD439      0.0000 
     76 H          24.6371   19.2052   -7.9356 H         1 FAD439      0.0000 
     77 H          25.1327   16.1875  -10.2406 H         1 FAD439      0.0000 
     78 H          23.7498   15.5145  -10.7105 H         1 FAD439      0.0000 
     79 H          23.8710   17.1147  -10.6072 H         1 FAD439      0.0000 
     80 H          28.3214    8.4689  -16.2515 H         1 FAD439      0.0000 
     81 H          28.2558    9.4807  -18.2825 H         1 FAD439      0.0000 
     82 H          23.3594   11.4196   -8.6361 H         1 FAD439      0.0000 
     83 H          19.2364   10.3323   -9.1131 H         1 FAD439      0.0000 
     84 H          23.5792    9.1227   -9.7646 H         1 FAD439      0.0000 
@<TRIPOS>BOND
     1    2    1 ar   
     2    3    1 ar   
     3    4    1 1    
     4   53    1 1    
     5    5    4 1    
     6    6    5 1    
     7   54    5 1    
     8   55    5 1    
     9    7    6 1    
    10    8    6 1    
    11   56    6 1    
    12   12    7 1    
    13    9    8 1    
    14   10    8 1    
    15   57    8 1    
    16   80    9 1    
    17   11   10 1    
    18   12   10 1    
    19   58   10 1    
    20   81   11 1    
    21   13   12 1    
    22   59   12 1    
    23   14   13 1    
    24   22   13 1    
    25   15   14 2    
    26   60   14 1    
    27   16   15 1    
    28   17   16 ar   
    29   22   16 ar   
    30   18   17 1    
    31   19   17 ar   
    32   61   18 1    
    33   62   18 1    
    34   20   19 ar   
    35   21   20 ar   
    36   63   20 1    
    37   22   21 ar   
    38   24   23 1    
    39   40   23 2    
    40   25   24 2    
    41   26   24 am   
    42   27   26 am   
    43   64   26 1    
    44   28   27 2    
    45   29   27 1    
    46   30   29 2    
    47   40   29 1    
    48   31   30 1    
    49   32   31 ar   
    50   38   31 ar   
    51   33   32 ar   
    52   65   32 1    
    53   34   33 1    
    54   35   33 ar   
    55   74   34 1    
    56   75   34 1    
    57   76   34 1    
    58   36   35 1    
    59   37   35 ar   
    60   77   36 1    
    61   78   36 1    
    62   79   36 1    
    63   38   37 ar   
    64   66   37 1    
    65   39   38 1    
    66   40   39 1    
    67   41   39 1    
    68   42   41 1    
    69   67   41 1    
    70   68   41 1    
    71   43   42 1    
    72   44   42 1    
    73   69   42 1    
    74   82   43 1    
    75   45   44 1    
    76   46   44 1    
    77   70   44 1    
    78   83   45 1    
    79   47   46 1    
    80   48   46 1    
    81   71   46 1    
    82   84   47 1    
    83   49   48 1    
    84   72   48 1    
    85   73   48 1    
    86   50   49 1    
    87   51   50 ar   
    88   52   50 ar   
    89   53   50 1    
@<TRIPOS>SUBSTRUCTURE
     1 FAD439      1 GROUP   
@<TRIPOS>SET

