#    Name: 3o02_JN3_1_INTS_M
#    Modification time : Tue Mar 25 03:02:19 2014

@<TRIPOS>MOLECULE
3o02_JN3_1_INTS_M
   52     0     9     0     0
SMALL
NO_CHARGES


@<TRIPOS>ATOM
      1 CA         10.9150  -28.1295   10.7955 C.3       3 GLC5        0.0000 
      2 CA         12.5510  -27.3450   10.4810 C.3       9 GLL5        0.0000 
      3 CA          9.2790  -28.9140   11.1100 C.3       6 GLP5        0.0000 
      4 CA         14.7900  -23.0470   11.8405 C.3       3 GLC5        0.0000 
      5 CA         13.6880  -24.8240   11.4130 C.3       9 GLL5        0.0000 
      6 CA         15.8920  -21.2700   12.2680 C.3       6 GLP5        0.0000 
      7 CA         16.3415  -22.9680    4.9100 C.3       3 GLC5        0.0000 
      8 CA         16.2890  -24.5370    5.9950 C.3       9 GLL5        0.0000 
      9 CA         16.3940  -21.3990    3.8250 C.3       6 GLP5        0.0000 
     10 CA         17.5240  -23.9505    3.6205 C.3       3 GLC5        0.0000 
     11 CA         16.9460  -25.4070    4.9400 C.3       9 GLL5        0.0000 
     12 CA         18.1020  -22.4940    2.3010 C.3       6 GLP5        0.0000 
     13 CA         12.8800  -26.1785    3.8735 C.3       3 GLC5        0.0000 
     14 CA         14.2040  -26.9850    4.8900 C.3       9 GLL5        0.0000 
     15 CA         11.5560  -25.3720    2.8570 C.3       6 GLP5        0.0000 
     16 CA         14.9470  -26.2050    3.0595 C.3       3 GLC5        0.0000 
     17 CA         15.6900  -25.4250    1.2290 C.3       6 GLP5        0.0000 
     18 CA         13.3585  -28.7595    5.4315 C.3       3 GLC5        0.0000 
     19 CA         12.5130  -30.5340    5.9730 C.3       6 GLP5        0.0000 
     20 CA         11.4020  -25.2890    6.8110 C.3       3 GLC5        0.0000 
     21 CA         11.4130  -26.3220    8.5500 C.3       9 GLL5        0.0000 
     22 CA         11.3910  -24.2560    5.0720 C.3       6 GLP5        0.0000 
     23 CA          9.9400  -27.6295    9.1780 C.3       3 GLC5        0.0000 
     24 CA          8.4670  -28.9370    9.8060 C.3       6 GLP5        0.0000 
     25 CA         16.1780  -30.9090    4.1680 C.3       3 GLC5        0.0000 
     26 CA         16.8800  -29.1860    4.4630 C.3       9 GLL5        0.0000 
     27 CA         15.4760  -32.6320    3.8730 C.3       6 GLP5        0.0000 
     28 CA         18.4775  -29.7830    1.2130 C.3       3 GLC5        0.0000 
     29 CA         18.7110  -28.1570    2.3190 C.3       9 GLL5        0.0000 
     30 CA         18.2440  -31.4090    0.1070 C.3       6 GLP5        0.0000 
     31 N          21.6705  -28.5695    2.6665 N.am      1 SEC2        0.0000 
     32 N          20.8440  -28.5810    1.3950 N.am      7 SEL2        0.0000 
     33 N          22.4970  -28.5580    3.9380 N.am      4 SEP2        0.0000 
     34 NZ         20.6105  -24.9485    0.7175 N.4       2 LYC4        0.0000 
     35 NZ         20.2580  -26.4950    1.5460 N.4       8 LYL4        0.0000 
     36 NZ         20.9630  -23.4020   -0.1110 N.4       5 LYP4        0.0000 
     37 CA         14.4655  -22.2015    9.3905 C.3       3 GLC5        0.0000 
     38 CA         14.3640  -23.8600    8.3290 C.3       9 GLL5        0.0000 
     39 CA         15.1940  -20.6430   10.0090 C.3       6 GLP5        0.0000 
     40 CA         13.5295  -29.1970    6.6705 C.3       3 GLC5        0.0000 
     41 CA         13.9070  -27.7290    7.7720 C.3       9 GLL5        0.0000 
     42 CA         15.2200  -29.2570    8.0255 C.3       3 GLC5        0.0000 
     43 CA         15.8940  -30.6540    8.6830 C.3       6 GLP5        0.0000 
     44 CA         13.1011  -24.6467    6.1839 C.3       3 GLC5        0.0000 
     45 CA         15.3200  -25.5350    6.6110 C.3       9 GLL5        0.0000 
     46 CA         16.2338  -25.7452    3.1153 C.3       3 GLC5        0.0000 
     47 CA         18.9528  -29.2550    4.6762 C.3       3 GLC5        0.0000 
     48 CA         17.2430  -27.6980    4.3620 C.3       9 GLL5        0.0000 
     49 CA         20.8440  -30.0680    4.9400 C.3       6 GLP5        0.0000 
     50 CA         19.7120  -28.8912    3.9330 C.3       3 GLC5        0.0000 
     51 CA         18.4490  -27.2720    3.5330 C.3       9 GLL5        0.0000 
     52 CA         16.9842  -26.6230    2.1811 C.3       3 GLC5        0.0000 
@<TRIPOS>BOND
@<TRIPOS>SUBSTRUCTURE
     1 SEC2       31 GROUP        1 X    SEC  0     ROOT SEC X 2
     2 LYC4       34 GROUP        1 X    LYC  0     **** LYC X 4
     3 GLC5        1 GROUP        1 X    GLC  0     **** GLC X 6
     4 SEP2       33 GROUP        1 Y    SEP  0     ROOT SEP Y 9
     5 LYP4       36 GROUP        1 Y    LYP  0     **** LYP Y 11
     6 GLP5        3 GROUP        1 Y    GLP  0     **** GLP Y 13
     7 SEL2       32 GROUP        1 Z    SEL  0     ROOT SEL Z 16
     8 LYL4       35 GROUP        1 Z    LYL  0     **** LYL Z 18
     9 GLL5        2 GROUP        1 Z    GLL  0     **** GLL Z 20
@<TRIPOS>SET

