#    Name: 3o02_JN3_1_ligand
#    Modification time : Tue Mar 25 03:02:20 2014

@<TRIPOS>MOLECULE
3o02_JN3_1_ligand
   67    70     1     0     0
SMALL
NO_CHARGES


@<TRIPOS>ATOM
      1 C1         12.5510  -27.3450   10.4810 C.3       1 JN31        0.0000 
      2 C2         13.5580  -27.3320   11.6410 C.3       1 JN31        0.0000 
      3 C3         13.6160  -25.9950   12.3750 C.3       1 JN31        0.0000 
      4 O3         14.8160  -25.9860   13.1740 O.3       1 JN31        0.0000 
      5 C4         13.6880  -24.8240   11.4130 C.3       1 JN31        0.0000 
      6 C5         12.7590  -24.8360   10.1760 C.3       1 JN31        0.0000 
      7 C6         13.1100  -23.6600    9.2150 C.3       1 JN31        0.0000 
      8 C7         14.3640  -23.8600    8.3290 C.3       1 JN31        0.0000 
      9 O7         15.5860  -23.8150    9.1070 O.3       1 JN31        0.0000 
     10 C8         14.2410  -25.2200    7.6320 C.3       1 JN31        0.0000 
     11 C9         13.9500  -26.4190    8.5880 C.3       1 JN31        0.0000 
     12 C10        12.6830  -26.2010    9.4570 C.3       1 JN31        0.0000 
     13 C11        13.9070  -27.7290    7.7720 C.3       1 JN31        0.0000 
     14 C12        15.1850  -27.9910    6.9640 C.3       1 JN31        0.0000 
     15 C13        15.3630  -26.8810    5.9170 C.3       1 JN31        0.0000 
     16 C14        15.3200  -25.5350    6.6110 C.3       1 JN31        0.0000 
     17 C15        16.2890  -24.5370    5.9950 C.3       1 JN31        0.0000 
     18 C16        16.9460  -25.4070    4.9400 C.3       1 JN31        0.0000 
     19 C17        16.6090  -26.7240    5.0630 C.3       1 JN31        0.0000 
     20 C18        14.2040  -26.9850    4.8900 C.3       1 JN31        0.0000 
     21 C19        11.4130  -26.3220    8.5500 C.3       1 JN31        0.0000 
     22 C20        17.2430  -27.6980    4.3620 C.3       1 JN31        0.0000 
     23 C21        16.8800  -29.1860    4.4630 C.3       1 JN31        0.0000 
     24 C22        18.4490  -27.2720    3.5330 C.3       1 JN31        0.0000 
     25 C23        18.7110  -28.1570    2.3190 C.3       1 JN31        0.0000 
     26 O25        20.8440  -28.5810    1.3950 O.co2     1 JN31        0.0000 
     27 C24        20.0200  -27.7160    1.7060 C.2       1 JN31        0.0000 
     28 O26        20.2580  -26.4950    1.5460 O.co2     1 JN31        0.0000 
     29 H          11.5244  -27.3242   10.9014 H         1 JN31        0.0000 
     30 H          12.6413  -28.3111    9.9429 H         1 JN31        0.0000 
     31 H          14.5552  -27.5704   11.2463 H         1 JN31        0.0000 
     32 H          13.2870  -28.1232   12.3535 H         1 JN31        0.0000 
     33 H          12.7504  -25.8966   12.9912 H         1 JN31        0.0000 
     34 H          14.7423  -24.7184   11.0476 H         1 JN31        0.0000 
     35 H          13.4916  -23.8766   11.9787 H         1 JN31        0.0000 
     36 H          11.7272  -24.6125   10.5592 H         1 JN31        0.0000 
     37 H          13.2464  -22.7452    9.8211 H         1 JN31        0.0000 
     38 H          12.2386  -23.4753    8.5596 H         1 JN31        0.0000 
     39 H          14.3530  -23.0983    7.5664 H         1 JN31        0.0000 
     40 H          13.2611  -25.1393    7.0030 H         1 JN31        0.0000 
     41 H          14.8166  -26.4919    9.2704 H         1 JN31        0.0000 
     42 H          13.0507  -27.6883    7.0857 H         1 JN31        0.0000 
     43 H          13.7399  -28.5676    8.4610 H         1 JN31        0.0000 
     44 H          15.1030  -28.9452    6.4627 H         1 JN31        0.0000 
     45 H          16.0363  -27.9936    7.6303 H         1 JN31        0.0000 
     46 H          16.2460  -25.9459    7.5592 H         1 JN31        0.0000 
     47 H          16.9975  -24.2374    6.7092 H         1 JN31        0.0000 
     48 H          15.7571  -23.7552    5.5391 H         1 JN31        0.0000 
     49 H          18.0467  -25.2335    5.0218 H         1 JN31        0.0000 
     50 H          16.6600  -24.9790    3.9484 H         1 JN31        0.0000 
     51 H          17.4180  -26.8621    6.2052 H         1 JN31        0.0000 
     52 H          16.4018  -27.5383    3.2324 H         1 JN31        0.0000 
     53 H          19.3449  -27.2735    4.1768 H         1 JN31        0.0000 
     54 H          18.3011  -26.2330    3.1930 H         1 JN31        0.0000 
     55 H          17.9119  -28.0325    1.6070 H         1 JN31        0.0000 
     56 H          18.7813  -29.1848    2.6347 H         1 JN31        0.0000 
     57 H          14.2702  -26.2812    4.1827 H         1 JN31        0.0000 
     58 H          14.1993  -27.8696    4.4237 H         1 JN31        0.0000 
     59 H          13.3105  -26.8789    5.3263 H         1 JN31        0.0000 
     60 H          11.3954  -25.6182    7.8398 H         1 JN31        0.0000 
     61 H          11.3706  -27.2071    8.0866 H         1 JN31        0.0000 
     62 H          10.5691  -26.2268    9.0780 H         1 JN31        0.0000 
     63 H          17.4579  -29.7501    3.8732 H         1 JN31        0.0000 
     64 H          16.9866  -29.5318    5.3952 H         1 JN31        0.0000 
     65 H          15.9320  -29.3561    4.1938 H         1 JN31        0.0000 
     66 H          15.3929  -25.2783   12.7663 H         1 JN31        0.0000 
     67 H          16.1634  -23.2376    9.6844 H         1 JN31        0.0000 
@<TRIPOS>BOND
     1    2    1 1    
     2   12    1 1    
     3   29    1 1    
     4   30    1 1    
     5    3    2 1    
     6   31    2 1    
     7   32    2 1    
     8    4    3 1    
     9    5    3 1    
    10   33    3 1    
    11   66    4 1    
    12    6    5 1    
    13   34    5 1    
    14   35    5 1    
    15    7    6 1    
    16   12    6 1    
    17   36    6 1    
    18    8    7 1    
    19   37    7 1    
    20   38    7 1    
    21    9    8 1    
    22   10    8 1    
    23   39    8 1    
    24   67    9 1    
    25   11   10 1    
    26   16   10 1    
    27   40   10 1    
    28   12   11 1    
    29   13   11 1    
    30   41   11 1    
    31   21   12 1    
    32   14   13 1    
    33   42   13 1    
    34   43   13 1    
    35   15   14 1    
    36   44   14 1    
    37   45   14 1    
    38   16   15 1    
    39   19   15 1    
    40   20   15 1    
    41   17   16 1    
    42   46   16 1    
    43   18   17 1    
    44   47   17 1    
    45   48   17 1    
    46   19   18 1    
    47   49   18 1    
    48   50   18 1    
    49   22   19 1    
    50   51   19 1    
    51   57   20 1    
    52   58   20 1    
    53   59   20 1    
    54   60   21 1    
    55   61   21 1    
    56   62   21 1    
    57   23   22 1    
    58   24   22 1    
    59   52   22 1    
    60   63   23 1    
    61   64   23 1    
    62   65   23 1    
    63   25   24 1    
    64   53   24 1    
    65   54   24 1    
    66   27   25 1    
    67   55   25 1    
    68   56   25 1    
    69   27   26 ar   
    70   28   27 ar   
@<TRIPOS>SUBSTRUCTURE
     1 JN31        1 GROUP   
@<TRIPOS>SET

