#    Name: 3KAL_2_CAVITY_N1_6.mol2
#    Modification time : Tue Mar 11 06:40:37 2014

@<TRIPOS>MOLECULE
3KAL_2_CAVITY_N1_6.mol2
   88     0     7     0     0
SMALL
NO_CHARGES


@<TRIPOS>ATOM
      1 N         -28.0436  -34.1631   60.7433 N.2       2 ALA2        0.0000 
      2 N         -27.0896  -34.8624   59.8209 N.2       2 ALA2        0.0000 
      3 O         -30.0601  -33.5185   60.6083 O.2       2 ALA2        0.0000 
      4 O         -29.1061  -34.2177   59.6858 O.2       2 ALA2        0.0000 
      5 N         -28.1521  -34.9170   58.7634 N.2       2 ALA2        0.0000 
      6 CA        -27.1980  -35.6162   57.8410 C.3       6 GLY6        0.0000 
      7 O         -31.1226  -33.5731   59.5508 O.2       2 ALA2        0.0000 
      8 O         -30.1686  -34.2723   58.6284 O.2       2 ALA2        0.0000 
      9 O         -29.2145  -34.9716   57.7060 O.2       2 ALA2        0.0000 
     10 CA        -28.2605  -35.6709   56.7835 C.3       6 GLY6        0.0000 
     11 CA        -32.1850  -33.6277   58.4934 C.3       6 GLY6        0.0000 
     12 OD1       -31.2310  -34.3270   57.5710 O.3       3 ASP3        0.0000 
     13 DU        -30.2770  -35.0262   56.6485 H         7 CUB7        0.0000 
     14 CA        -29.3230  -35.7255   55.7261 C.3       6 GLY6        0.0000 
     15 O         -28.3689  -36.4247   54.8037 O.2       2 ALA2        0.0000 
     16 CA        -33.2475  -33.6823   57.4359 C.3       6 GLY6        0.0000 
     17 NZ        -32.2935  -34.3816   56.5135 N.2       4 LYS4        0.0000 
     18 DU        -31.3395  -35.0808   55.5911 H         7 CUB7        0.0000 
     19 O         -30.3854  -35.7801   54.6686 O.2       2 ALA2        0.0000 
     20 NZ        -32.4019  -35.1354   54.5336 N.2       4 LYS4        0.0000 
     21 NZ        -33.4644  -35.1901   53.4762 N.2       4 LYS4        0.0000 
     22 OD1       -27.5843  -32.8372   60.2133 O.3       3 ASP3        0.0000 
     23 O         -26.6303  -33.5364   59.2908 O.2       2 ALA2        0.0000 
     24 CA        -29.6008  -32.1926   60.0783 C.3       6 GLY6        0.0000 
     25 OD1       -28.6467  -32.8918   59.1558 O.3       3 ASP3        0.0000 
     26 CA        -27.6927  -33.5911   58.2334 C.3       6 GLY6        0.0000 
     27 OD1       -28.7552  -33.6457   57.1759 O.3       3 ASP3        0.0000 
     28 OD1       -29.8176  -33.7003   56.1185 O.3       3 ASP3        0.0000 
     29 CA        -28.8636  -34.3995   55.1961 C.3       6 GLY6        0.0000 
     30 CA        -27.9096  -35.0988   54.2736 C.3       6 GLY6        0.0000 
     31 OD1       -31.8341  -33.0557   55.9835 O.3       3 ASP3        0.0000 
     32 OD1       -30.8801  -33.7549   55.0610 O.3       3 ASP3        0.0000 
     33 O         -29.9261  -34.4542   54.1386 O.2       2 ALA2        0.0000 
     34 CA        -35.4712  -36.2070   61.9283 C.3       6 GLY6        0.0000 
     35 CA        -34.5172  -36.9062   61.0059 C.3       6 GLY6        0.0000 
     36 OG        -33.5631  -37.6055   60.0835 O.2       1 SER1        0.0000 
     37 CA        -36.5336  -36.2616   60.8709 C.3       6 GLY6        0.0000 
     38 CA        -35.5796  -36.9608   59.9484 C.3       6 GLY6        0.0000 
     39 OG        -34.6256  -37.6601   59.0260 O.2       1 SER1        0.0000 
     40 CA        -37.5961  -36.3162   59.8134 C.3       6 GLY6        0.0000 
     41 CA        -36.6421  -37.0154   58.8910 C.3       6 GLY6        0.0000 
     42 OD1       -35.6881  -37.7147   57.9686 O.3       3 ASP3        0.0000 
     43 CA        -36.7505  -37.7693   56.9111 C.3       6 GLY6        0.0000 
     44 O         -31.9426  -33.8095   54.0036 O.2       2 ALA2        0.0000 
     45 CA        -30.9885  -34.5088   53.0812 C.3       6 GLY6        0.0000 
     46 O         -27.3418  -33.0190   55.7235 O.2       2 ALA2        0.0000 
     47 OD1       -28.4042  -33.0736   54.6660 O.3       3 ASP3        0.0000 
     48 O         -29.4667  -33.1282   53.6086 O.2       2 ALA2        0.0000 
     49 CA        -28.5127  -33.8275   52.6862 C.3       6 GLY6        0.0000 
     50 CA        -36.9930  -37.5875   61.4009 C.3       6 GLY6        0.0000 
     51 CA        -36.0390  -38.2868   60.4785 C.3       6 GLY6        0.0000 
     52 CZ        -35.0850  -38.9860   59.5560 C.ar      5 PHE5        0.0000 
     53 O         -38.0555  -37.6421   60.3434 O.2       2 ALA2        0.0000 
     54 N         -37.1014  -38.3414   59.4210 N.2       2 ALA2        0.0000 
     55 CZ        -36.1474  -39.0406   58.4986 C.ar      5 PHE5        0.0000 
     56 N         -38.1639  -38.3960   58.3636 N.2       2 ALA2        0.0000 
     57 OD1       -37.2099  -39.0952   57.4411 O.3       3 ASP3        0.0000 
     58 CA        -36.6068  -40.3665   59.0286 C.3       6 GLY6        0.0000 
     59 O         -27.6574  -36.9422   58.3710 O.2       2 ALA2        0.0000 
     60 O         -29.6739  -36.2975   58.2360 O.2       2 ALA2        0.0000 
     61 O         -28.7199  -36.9968   57.3136 O.2       2 ALA2        0.0000 
     62 O         -27.7658  -37.6960   56.3911 O.2       2 ALA2        0.0000 
     63 CA        -32.6444  -34.9536   59.0234 C.3       6 GLY6        0.0000 
     64 O         -31.6904  -35.6529   58.1010 O.2       2 ALA2        0.0000 
     65 OG        -30.7364  -36.3521   57.1785 O.2       1 SER1        0.0000 
     66 O         -29.7823  -37.0514   56.2561 O.2       2 ALA2        0.0000 
     67 CA        -28.8283  -37.7506   55.3337 C.3       6 GLY6        0.0000 
     68 CA        -33.7069  -35.0082   57.9660 C.3       6 GLY6        0.0000 
     69 DU        -32.7528  -35.7075   57.0435 H         7 CUB7        0.0000 
     70 N         -31.7988  -36.4067   56.1211 N.2       2 ALA2        0.0000 
     71 O         -30.8448  -37.1060   55.1987 O.2       2 ALA2        0.0000 
     72 NZ        -34.7693  -35.0629   56.9085 N.2       4 LYS4        0.0000 
     73 NZ        -33.8153  -35.7621   55.9861 N.2       4 LYS4        0.0000 
     74 OD1       -32.8613  -36.4614   55.0636 O.3       3 ASP3        0.0000 
     75 CA        -34.8778  -35.8167   54.9286 C.3       6 GLY6        0.0000 
     76 OG        -29.1792  -38.3227   57.8436 O.2       1 SER1        0.0000 
     77 OD1       -34.0578  -35.5803   60.4759 O.3       3 ASP3        0.0000 
     78 O         -33.1038  -36.2795   59.5534 O.2       2 ALA2        0.0000 
     79 N         -30.2417  -38.3773   56.7861 N.2       2 ALA2        0.0000 
     80 CA        -35.1203  -35.6349   59.4184 C.3       6 GLY6        0.0000 
     81 OG        -34.1662  -36.3342   58.4960 O.2       1 SER1        0.0000 
     82 OG        -33.2122  -37.0334   57.5735 O.2       1 SER1        0.0000 
     83 N         -32.2582  -37.7327   56.6511 N.2       2 ALA2        0.0000 
     84 CA        -36.1827  -35.6895   58.3610 C.3       6 GLY6        0.0000 
     85 CA        -35.2287  -36.3888   57.4385 C.3       6 GLY6        0.0000 
     86 OD1       -34.2747  -37.0880   56.5161 O.3       3 ASP3        0.0000 
     87 CA        -37.6692  -40.4212   57.9712 C.3       6 GLY6        0.0000 
     88 O         -39.1911  -41.8017   57.4437 O.2       2 ALA2        0.0000 
@<TRIPOS>BOND
@<TRIPOS>SUBSTRUCTURE
     1 SER1       36 GROUP   
     2 ALA2        1 GROUP   
     3 ASP3       12 GROUP   
     4 LYS4       17 GROUP   
     5 PHE5       52 GROUP   
     6 GLY6        6 GROUP   
     7 CUB7       13 GROUP   
@<TRIPOS>SET

