#    Name: 3kal_ADP_2_INTS_M
#    Modification time : Mon Mar 24 19:04:26 2014

@<TRIPOS>MOLECULE
3kal_ADP_2_INTS_M
   73     0    15     0     0
SMALL
NO_CHARGES


@<TRIPOS>ATOM
      1 Zn        -29.4360  -31.4100   57.1355 Zn        4 ZIC7        0.0000 
      2 Zn        -28.4980  -31.7960   57.3270 Zn       14 ZIL7        0.0000 
      3 Zn        -30.3740  -31.0240   56.9440 Zn        9 ZIP7        0.0000 
      4 N         -25.5965  -32.1640   57.9605 N.am      2 SEC2        0.0000 
      5 N         -26.7670  -33.0080   58.5210 N.am     12 SEL2        0.0000 
      6 N         -24.4260  -31.3200   57.4000 N.am      7 SEP2        0.0000 
      7 N         -25.8580  -33.2255   57.4280 N.am      2 SEC2        0.0000 
      8 N         -24.9490  -33.4430   56.3350 N.am      7 SEP2        0.0000 
      9 NZ        -27.5615  -30.8610   60.6850 N.4       3 LYC4        0.0000 
     10 NZ        -27.3300  -30.8840   59.3110 N.4      13 LYL4        0.0000 
     11 NZ        -27.7930  -30.8380   62.0590 N.4       8 LYP4        0.0000 
     12 Zn        -27.6060  -29.8400   59.0075 Zn        4 ZIC7        0.0000 
     13 Zn        -27.3300  -30.8840   59.3110 Zn       14 ZIL7        0.0000 
     14 Zn        -27.8820  -28.7960   58.7040 Zn        9 ZIP7        0.0000 
     15 N         -27.5615  -30.8610   60.6850 N.am      2 SEC2        0.0000 
     16 N         -27.3300  -30.8840   59.3110 N.am     12 SEL2        0.0000 
     17 N         -27.7930  -30.8380   62.0590 N.am      7 SEP2        0.0000 
     18 NZ        -31.9025  -33.3610   61.8265 N.4       3 LYC4        0.0000 
     19 NZ        -31.2410  -32.8710   60.8450 N.4      13 LYL4        0.0000 
     20 NZ        -32.5640  -33.8510   62.8080 N.4       8 LYP4        0.0000 
     21 N         -31.9025  -33.3610   61.8265 N.am      2 SEC2        0.0000 
     22 N         -31.2410  -32.8710   60.8450 N.am     12 SEL2        0.0000 
     23 N         -32.5640  -33.8510   62.8080 N.am      7 SEP2        0.0000 
     24 Zn        -30.8550  -31.5305   57.7585 Zn        4 ZIC7        0.0000 
     25 Zn        -31.3360  -32.0370   58.5730 Zn       14 ZIL7        0.0000 
     26 N         -28.3945  -31.8445   60.8115 N.am      2 SEC2        0.0000 
     27 N         -28.9960  -32.8510   59.5640 N.am     12 SEL2        0.0000 
     28 CA        -33.7560  -33.5630   58.1765 C.3       5 GLC5        0.0000 
     29 CA        -32.8770  -34.8420   56.9060 C.3      15 GLL5        0.0000 
     30 CA        -34.6350  -32.2840   59.4470 C.3      10 GLP5        0.0000 
     31 O         -33.7080  -33.3525   55.2635 O.2       1 ALC1        0.0000 
     32 O         -32.8600  -33.9530   55.7780 O.2      11 ALL1        0.0000 
     33 O         -34.5560  -32.7520   54.7490 O.2       6 ALP1        0.0000 
     34 O         -33.7735  -32.6495   56.0440 O.2       1 ALC1        0.0000 
     35 O         -34.6870  -31.3460   56.3100 O.2       6 ALP1        0.0000 
     36 CA        -35.8410  -35.7265   56.3050 C.3       5 GLC5        0.0000 
     37 CA        -33.9790  -35.9410   56.8830 C.3      15 GLL5        0.0000 
     38 CA        -37.7030  -35.5120   55.7270 C.3      10 GLP5        0.0000 
     39 N         -34.2490  -37.8230   55.2880 N.am      2 SEC2        0.0000 
     40 N         -33.9550  -36.5850   55.5830 N.am     12 SEL2        0.0000 
     41 N         -34.5430  -39.0610   54.9930 N.am      7 SEP2        0.0000 
     42 CA        -32.7440  -38.6955   58.7575 C.3       5 GLC5        0.0000 
     43 CA        -33.4750  -36.8670   57.9480 C.3      15 GLL5        0.0000 
     44 CA        -32.0130  -40.5240   59.5670 C.3      10 GLP5        0.0000 
     45 N         -33.3920  -34.6790   62.0440 N.am      2 SEC2        0.0000 
     46 N         -34.2200  -35.5070   61.2800 N.am     12 SEL2        0.0000 
     47 CA        -35.9315  -35.1295   63.3360 C.3       5 GLC5        0.0000 
     48 CA        -36.6550  -36.3820   61.7450 C.3      15 GLL5        0.0000 
     49 CA        -35.2080  -33.8770   64.9270 C.3      10 GLP5        0.0000 
     50 CA        -37.7855  -37.9920   62.6815 C.3       5 GLC5        0.0000 
     51 CA        -38.9160  -39.6020   63.6180 C.3      10 GLP5        0.0000 
     52 CA        -38.2705  -35.3205   61.8625 C.3       5 GLC5        0.0000 
     53 CA        -39.8860  -34.2590   61.9800 C.3      10 GLP5        0.0000 
     54 O         -37.7830  -36.4115   63.9230 O.2       1 ALC1        0.0000 
     55 O         -36.8270  -35.8870   62.9840 O.2      11 ALL1        0.0000 
     56 O         -38.7390  -36.9360   64.8620 O.2       6 ALP1        0.0000 
     57 N         -38.8510  -37.7145   61.5970 N.am      2 SEC2        0.0000 
     58 N         -37.5800  -37.1920   61.1640 N.am     12 SEL2        0.0000 
     59 N         -40.1220  -38.2370   62.0300 N.am      7 SEP2        0.0000 
     60 CA        -38.2265  -36.4810   58.3735 C.3       5 GLC5        0.0000 
     61 CA        -37.4140  -37.7000   59.8740 C.3      15 GLL5        0.0000 
     62 CA        -39.0390  -35.2620   56.8730 C.3      10 GLP5        0.0000 
     63 CA        -37.3135  -35.5375   59.6645 C.3       5 GLC5        0.0000 
     64 CA        -37.2130  -33.3750   59.4550 C.3      10 GLP5        0.0000 
     65 CA        -36.1715  -38.5530   61.3755 C.3       5 GLC5        0.0000 
     66 CA        -34.9290  -39.4060   62.8770 C.3      10 GLP5        0.0000 
     67 CA        -37.5850  -39.3870   60.8560 C.3       5 GLC5        0.0000 
     68 CA        -37.7560  -41.0740   61.8380 C.3      10 GLP5        0.0000 
     69 CA        -39.1915  -36.9140   60.3975 C.3       5 GLC5        0.0000 
     70 CA        -40.9690  -36.1280   60.9210 C.3      10 GLP5        0.0000 
     71 CA        -36.4253  -34.9438   59.9975 C.3       5 GLC5        0.0000 
     72 CA        -35.3970  -36.1020   61.0150 C.3      15 GLL5        0.0000 
     73 CA        -35.2832  -37.9592   61.7085 C.3       5 GLC5        0.0000 
@<TRIPOS>BOND
@<TRIPOS>SUBSTRUCTURE
     1 ALC1       31 GROUP        1 X    ALC  0     ROOT ALC X 1
     2 SEC2        4 GROUP        1 X    SEC  0     **** SEC X 2
     3 LYC4        9 GROUP        1 X    LYC  0     **** LYC X 4
     4 ZIC7        1 GROUP        1 X    ZIC  0     **** ZIC X 5
     5 GLC5       28 GROUP        1 X    GLC  0     **** GLC X 6
     6 ALP1       33 GROUP        1 Y    ALP  0     ROOT ALP Y 8
     7 SEP2        6 GROUP        1 Y    SEP  0     **** SEP Y 9
     8 LYP4       11 GROUP        1 Y    LYP  0     **** LYP Y 11
     9 ZIP7        3 GROUP        1 Y    ZIP  0     **** ZIP Y 12
    10 GLP5       30 GROUP        1 Y    GLP  0     **** GLP Y 13
    11 ALL1       32 GROUP        1 Z    ALL  0     ROOT ALL Z 15
    12 SEL2        5 GROUP        1 Z    SEL  0     **** SEL Z 16
    13 LYL4       10 GROUP        1 Z    LYL  0     **** LYL Z 18
    14 ZIL7        2 GROUP        1 Z    ZIL  0     **** ZIL Z 19
    15 GLL5       29 GROUP        1 Z    GLL  0     **** GLL Z 20
@<TRIPOS>SET

