#    Name: 3kal_ADP_2_ligand
#    Modification time : Mon Mar 24 19:04:26 2014

@<TRIPOS>MOLECULE
3kal_ADP_2_ligand
   39    41     1     0     0
SMALL
NO_CHARGES


@<TRIPOS>ATOM
      1 PB        -27.8870  -32.1100   58.6580 P.3       1 ADP500      0.0000 
      2 O1B       -28.4980  -31.7960   57.3270 O.co2     1 ADP500      0.0000 
      3 O2B       -26.7670  -33.0080   58.5210 O.co2     1 ADP500      0.0000 
      4 O3B       -27.3300  -30.8840   59.3110 O.co2     1 ADP500      0.0000 
      5 PA        -30.5450  -32.9560   59.4950 P.3       1 ADP500      0.0000 
      6 O1A       -31.2410  -32.8710   60.8450 O.co2     1 ADP500      0.0000 
      7 O2A       -31.3360  -32.0370   58.5730 O.co2     1 ADP500      0.0000 
      8 O3A       -28.9960  -32.8510   59.5640 O.3       1 ADP500      0.0000 
      9 O5'       -30.6830  -34.4620   59.0150 O.3       1 ADP500      0.0000 
     10 C5'       -30.2650  -35.0550   57.7160 C.3       1 ADP500      0.0000 
     11 C4'       -31.6080  -35.6170   57.0900 C.3       1 ADP500      0.0000 
     12 O4'       -32.0580  -36.6260   58.0220 O.3       1 ADP500      0.0000 
     13 C3'       -32.8770  -34.8420   56.9060 C.3       1 ADP500      0.0000 
     14 O3'       -32.8600  -33.9530   55.7780 O.3       1 ADP500      0.0000 
     15 C2'       -33.9790  -35.9410   56.8830 C.3       1 ADP500      0.0000 
     16 O2'       -33.9550  -36.5850   55.5830 O.3       1 ADP500      0.0000 
     17 C1'       -33.4750  -36.8670   57.9480 C.3       1 ADP500      0.0000 
     18 N9        -34.0210  -36.4640   59.2640 N.pl3     1 ADP500      0.0000 
     19 C8        -33.4310  -35.7080   60.1960 C.2       1 ADP500      0.0000 
     20 N7        -34.2200  -35.5070   61.2800 N.2       1 ADP500      0.0000 
     21 C5        -35.3970  -36.1020   61.0150 C.ar      1 ADP500      0.0000 
     22 C6        -36.6550  -36.3820   61.7450 C.ar      1 ADP500      0.0000 
     23 N6        -36.8270  -35.8870   62.9840 N.pl3     1 ADP500      0.0000 
     24 N1        -37.5800  -37.1920   61.1640 N.ar      1 ADP500      0.0000 
     25 C2        -37.4140  -37.7000   59.8740 C.ar      1 ADP500      0.0000 
     26 N3        -36.2450  -37.5620   59.1750 N.ar      1 ADP500      0.0000 
     27 C4        -35.2490  -36.7830   59.7000 C.ar      1 ADP500      0.0000 
     28 H         -29.6052  -35.8749   57.8538 H         1 ADP500      0.0000 
     29 H         -29.8835  -34.3185   57.0538 H         1 ADP500      0.0000 
     30 H         -31.3614  -36.1489   56.1689 H         1 ADP500      0.0000 
     31 H         -33.0420  -34.2917   57.8530 H         1 ADP500      0.0000 
     32 H         -34.8733  -35.5158   57.1502 H         1 ADP500      0.0000 
     33 H         -33.6930  -37.8536   57.7222 H         1 ADP500      0.0000 
     34 H         -32.5155  -35.3305   60.1126 H         1 ADP500      0.0000 
     35 H         -37.6931  -36.1109   63.4310 H         1 ADP500      0.0000 
     36 H         -36.0734  -35.3393   63.3476 H         1 ADP500      0.0000 
     37 H         -38.2212  -38.2039   59.4345 H         1 ADP500      0.0000 
     38 H         -33.5887  -33.2923   55.9583 H         1 ADP500      0.0000 
     39 H         -33.3555  -36.0138   55.0224 H         1 ADP500      0.0000 
@<TRIPOS>BOND
     1    2    1 ar   
     2    3    1 ar   
     3    4    1 ar   
     4    8    1 1    
     5    6    5 ar   
     6    7    5 ar   
     7    8    5 1    
     8    9    5 1    
     9   10    9 1    
    10   11   10 1    
    11   28   10 1    
    12   29   10 1    
    13   12   11 1    
    14   13   11 1    
    15   30   11 1    
    16   17   12 1    
    17   14   13 1    
    18   15   13 1    
    19   31   13 1    
    20   38   14 1    
    21   16   15 1    
    22   17   15 1    
    23   32   15 1    
    24   39   16 1    
    25   18   17 1    
    26   33   17 1    
    27   19   18 1    
    28   27   18 1    
    29   20   19 2    
    30   34   19 1    
    31   21   20 1    
    32   22   21 ar   
    33   27   21 ar   
    34   23   22 1    
    35   24   22 ar   
    36   35   23 1    
    37   36   23 1    
    38   25   24 ar   
    39   26   25 ar   
    40   37   25 1    
    41   27   26 ar   
@<TRIPOS>SUBSTRUCTURE
     1 ADP500      1 GROUP   
@<TRIPOS>SET

