#    Name: 2o7n_2O7_1_INTS_M
#    Modification time : Tue Mar 25 22:01:46 2014

@<TRIPOS>MOLECULE
2o7n_2O7_1_INTS_M
   78     0     6     0     0
SMALL
NO_CHARGES


@<TRIPOS>ATOM
      1 CA          1.9760   26.8265   -3.9590 C.3       2 GLC5        0.0000 
      2 CA          2.4160   24.6610   -4.1060 C.3       6 GLL5        0.0000 
      3 CA          1.5360   28.9920   -3.8120 C.3       4 GLP5        0.0000 
      4 CA          3.3470   26.2245   -5.2560 C.3       2 GLC5        0.0000 
      5 CA          4.2780   27.7880   -6.4060 C.3       4 GLP5        0.0000 
      6 CA          3.1450   25.3210   -2.2880 C.3       2 GLC5        0.0000 
      7 CA          3.8740   25.9810   -0.4700 C.3       4 GLP5        0.0000 
      8 CA          2.8850   20.8655   -2.8765 C.3       2 GLC5        0.0000 
      9 CA          1.7200   22.2900   -3.8330 C.3       6 GLL5        0.0000 
     10 CA          4.0500   19.4410   -1.9200 C.3       4 GLP5        0.0000 
     11 CA          4.8030   21.3990   -3.1645 C.3       2 GLC5        0.0000 
     12 CA          5.0190   22.2440   -5.0240 C.3       6 GLL5        0.0000 
     13 CA          4.5870   20.5540   -1.3050 C.3       4 GLP5        0.0000 
     14 CA          5.1880   19.4240   -6.7915 C.3       2 GLC5        0.0000 
     15 CA          3.7380   20.0630   -5.4340 C.3       6 GLL5        0.0000 
     16 CA          6.6380   18.7850   -8.1490 C.3       4 GLP5        0.0000 
     17 CA          2.8360   18.9565   -6.8970 C.3       2 GLC5        0.0000 
     18 CA          1.9340   17.8500   -8.3600 C.3       4 GLP5        0.0000 
     19 CA          7.7170   24.5610   -4.6810 C.3       2 GLC5        0.0000 
     20 CA          7.4210   22.7220   -5.5970 C.3       6 GLL5        0.0000 
     21 CA          8.0130   26.4000   -3.7650 C.3       4 GLP5        0.0000 
     22 N           4.5860   25.5865   -5.3670 N.am      1 SEC2        0.0000 
     23 N           5.3100   24.6610   -4.6190 N.am      5 SEL2        0.0000 
     24 N           3.8620   26.5120   -6.1150 N.am      3 SEP2        0.0000 
     25 CA          2.4540   19.8155   -8.4360 C.3       2 GLC5        0.0000 
     26 CA          2.9740   21.7810   -8.5120 C.3       6 GLL5        0.0000 
     27 CA          5.4355   20.8735  -10.0305 C.3       2 GLC5        0.0000 
     28 CA          3.7930   22.0650   -9.6150 C.3       6 GLL5        0.0000 
     29 CA          7.0780   19.6820  -10.4460 C.3       4 GLP5        0.0000 
     30 CA          2.4955   20.4340  -10.3580 C.3       2 GLC5        0.0000 
     31 CA          1.1980   18.8030  -11.1010 C.3       4 GLP5        0.0000 
     32 N           2.5790   18.1075   -6.3560 N.am      1 SEC2        0.0000 
     33 N           3.6880   18.9300   -5.6500 N.am      5 SEL2        0.0000 
     34 N           1.4700   17.2850   -7.0620 N.am      3 SEP2        0.0000 
     35 CA          8.9710   24.9100   -5.0125 C.3       2 GLC5        0.0000 
     36 CA          9.9290   23.4200   -6.2600 C.3       6 GLL5        0.0000 
     37 CA         11.4215   24.4630   -5.6170 C.3       2 GLC5        0.0000 
     38 CA         12.9140   25.5060   -4.9740 C.3       4 GLP5        0.0000 
     39 CA         11.4520   22.1410   -7.0315 C.3       2 GLC5        0.0000 
     40 CA         12.9750   20.8620   -7.8030 C.3       4 GLP5        0.0000 
     41 CA         10.2135   24.7340   -7.5525 C.3       2 GLC5        0.0000 
     42 CA         10.4980   26.0480   -8.8450 C.3       4 GLP5        0.0000 
     43 CA          9.9190   23.4995   -4.2140 C.3       2 GLC5        0.0000 
     44 CA          9.9090   23.5790   -2.1680 C.3       4 GLP5        0.0000 
     45 CA          9.3890   21.6280   -7.4785 C.3       2 GLC5        0.0000 
     46 CA          8.8490   19.8360   -8.6970 C.3       4 GLP5        0.0000 
     47 CA          7.4365   18.4470   -2.9415 C.3       2 GLC5        0.0000 
     48 CA          8.7640   18.6380   -4.2650 C.3       6 GLL5        0.0000 
     49 CA          6.1090   18.2560   -1.6180 C.3       4 GLP5        0.0000 
     50 CA         10.8230   18.6570   -4.2425 C.3       2 GLC5        0.0000 
     51 CA         12.8820   18.6760   -4.2200 C.3       4 GLP5        0.0000 
     52 CA          9.0305   16.7575   -4.0540 C.3       2 GLC5        0.0000 
     53 CA          9.2970   14.8770   -3.8430 C.3       4 GLP5        0.0000 
     54 CA          7.7010   18.7115   -6.2070 C.3       2 GLC5        0.0000 
     55 CA          5.2360   25.8110  -11.2065 C.3       2 GLC5        0.0000 
     56 CA          5.0290   23.6920  -10.9630 C.3       6 GLL5        0.0000 
     57 CA          5.4430   27.9300  -11.4500 C.3       4 GLP5        0.0000 
     58 CA          5.2155   22.3740  -12.6385 C.3       2 GLC5        0.0000 
     59 CA          5.4020   21.0560  -14.3140 C.3       4 GLP5        0.0000 
     60 CA          3.9100   24.3885  -12.0400 C.3       2 GLC5        0.0000 
     61 CA          2.7910   25.0850  -13.1170 C.3       4 GLP5        0.0000 
     62 CA          3.9307   20.1092   -3.6085 C.3       2 GLC5        0.0000 
     63 CA          3.8850   21.4920   -5.1600 C.3       6 GLL5        0.0000 
     64 CA          7.8382   19.8495   -2.5740 C.3       2 GLC5        0.0000 
     65 CA          8.2650   20.1940   -4.7320 C.3       6 GLL5        0.0000 
     66 CA          8.0830   19.3180   -0.4780 C.3       4 GLP5        0.0000 
     67 CA          8.7935   20.2330   -6.8480 C.3       2 GLC5        0.0000 
     68 CA          8.4695   21.1797   -7.1647 C.3       2 GLC5        0.0000 
     69 CA          1.7712   22.9812   -9.6315 C.3       2 GLC5        0.0000 
     70 CA          0.7710   23.6680  -11.1910 C.3       4 GLP5        0.0000 
     71 CA          2.3803   23.1965  -10.4627 C.3       2 GLC5        0.0000 
     72 CA          6.6667   19.9918   -6.4942 C.3       2 GLC5        0.0000 
     73 CA          6.4690   21.8290   -5.0710 C.3       6 GLL5        0.0000 
     74 CA          2.0557   23.9748   -9.8373 C.3       2 GLC5        0.0000 
     75 CA          2.9310   24.1320   -7.9350 C.3       6 GLL5        0.0000 
     76 CA          8.2900   22.0378   -3.5611 C.3       2 GLC5        0.0000 
     77 CA          6.9220   20.5680   -4.6080 C.3       6 GLL5        0.0000 
     78 CA          8.7390   22.6260   -1.9700 C.3       4 GLP5        0.0000 
@<TRIPOS>BOND
@<TRIPOS>SUBSTRUCTURE
     1 SEC2       22 GROUP        1 X    SEC  0     ROOT SEC X 2
     2 GLC5        1 GROUP        1 X    GLC  0     **** GLC X 6
     3 SEP2       24 GROUP        1 Y    SEP  0     ROOT SEP Y 9
     4 GLP5        3 GROUP        1 Y    GLP  0     **** GLP Y 13
     5 SEL2       23 GROUP        1 Z    SEL  0     ROOT SEL Z 16
     6 GLL5        2 GROUP        1 Z    GLL  0     **** GLL Z 20
@<TRIPOS>SET

