#    Name: 2o7n_2O7_1_ligand
#    Modification time : Tue Mar 25 22:01:46 2014

@<TRIPOS>MOLECULE
2o7n_2O7_1_ligand
   43    46     1     0     0
SMALL
NO_CHARGES


@<TRIPOS>ATOM
      1 C1          2.6560   22.3970   -5.0690 C.3       1 2O71        0.0000 
      2 C3          2.4160   24.6610   -4.1060 C.3       1 2O71        0.0000 
      3 C9          1.7200   22.2900   -3.8330 C.3       1 2O71        0.0000 
      4 C12         4.6110   23.6630   -4.7870 C.2       1 2O71        0.0000 
      5 C13         5.0190   22.2440   -5.0240 C.2       1 2O71        0.0000 
      6 C14         3.8850   21.4920   -5.1600 C.2       1 2O71        0.0000 
      7 C15         3.7380   20.0630   -5.4340 C.1       1 2O71        0.0000 
      8 C20         8.2650   20.1940   -4.7320 C.ar      1 2O71        0.0000 
      9 C21         9.2110   21.0660   -5.2660 C.ar      1 2O71        0.0000 
     10 C24         7.4210   22.7220   -5.5970 C.ar      1 2O71        0.0000 
     11 O28         5.3100   24.6610   -4.6190 O.2       1 2O71        0.0000 
     12 C32         2.5690   22.8080   -7.6320 C.ar      1 2O71        0.0000 
     13 C33         2.9740   21.7810   -8.5120 C.ar      1 2O71        0.0000 
     14 C35         3.7930   22.0650   -9.6150 C.ar      1 2O71        0.0000 
     15 N2          3.2760   23.6800   -4.7630 N.am      1 2O71        0.0000 
     16 C6          1.3500   23.7530   -3.4600 C.3       1 2O71        0.0000 
     17 N16         3.6880   18.9300   -5.6500 N.1       1 2O71        0.0000 
     18 C17         6.4690   21.8290   -5.0710 C.ar      1 2O71        0.0000 
     19 C18         6.9220   20.5680   -4.6080 C.ar      1 2O71        0.0000 
     20 C23         8.7590   22.3250   -5.6680 C.ar      1 2O71        0.0000 
     21 CL26        9.9290   23.4200   -6.2600 Cl        1 2O71        0.0000 
     22 CL27        8.7640   18.6380   -4.2650 Cl        1 2O71        0.0000 
     23 C29         1.8050   22.4820   -6.3700 C.3       1 2O71        0.0000 
     24 C37         4.1860   23.3850   -9.8540 C.ar      1 2O71        0.0000 
     25 C38         3.7500   24.4310   -9.0320 C.ar      1 2O71        0.0000 
     26 C40         2.9310   24.1320   -7.9350 C.ar      1 2O71        0.0000 
     27 C42         5.0290   23.6920  -10.9630 C.1       1 2O71        0.0000 
     28 N43         5.6800   23.9470  -11.8880 N.1       1 2O71        0.0000 
     29 H           1.9379   25.2968   -4.8041 H         1 2O71        0.0000 
     30 H           2.9256   25.1805   -3.3375 H         1 2O71        0.0000 
     31 H           2.2476   21.8428   -3.0277 H         1 2O71        0.0000 
     32 H           0.8399   21.7604   -4.1009 H         1 2O71        0.0000 
     33 H          10.1777   20.8023   -5.3588 H         1 2O71        0.0000 
     34 H           7.1344   23.6438   -5.9203 H         1 2O71        0.0000 
     35 H           2.6636   20.8168   -8.3395 H         1 2O71        0.0000 
     36 H           4.0975   21.3142  -10.2351 H         1 2O71        0.0000 
     37 H           0.3887   23.9850   -3.8622 H         1 2O71        0.0000 
     38 H           1.3800   23.8625   -2.3985 H         1 2O71        0.0000 
     39 H           6.2465   19.9229   -4.1750 H         1 2O71        0.0000 
     40 H           1.0141   23.2422   -6.2079 H         1 2O71        0.0000 
     41 H           1.2790   21.5137   -6.4940 H         1 2O71        0.0000 
     42 H           4.0225   25.3909   -9.2270 H         1 2O71        0.0000 
     43 H           2.5851   24.8994   -7.3353 H         1 2O71        0.0000 
@<TRIPOS>BOND
     1    3    1 1    
     2    6    1 1    
     3   15    1 1    
     4   23    1 1    
     5   15    2 1    
     6   16    2 1    
     7   29    2 1    
     8   30    2 1    
     9   16    3 1    
    10   31    3 1    
    11   32    3 1    
    12    5    4 1    
    13   11    4 2    
    14   15    4 am   
    15    6    5 2    
    16   18    5 1    
    17    7    6 1    
    18   17    7 3    
    19    9    8 ar   
    20   19    8 ar   
    21   22    8 1    
    22   20    9 ar   
    23   33    9 1    
    24   18   10 ar   
    25   20   10 ar   
    26   34   10 1    
    27   13   12 ar   
    28   23   12 1    
    29   26   12 ar   
    30   14   13 ar   
    31   35   13 1    
    32   24   14 ar   
    33   36   14 1    
    34   37   16 1    
    35   38   16 1    
    36   19   18 ar   
    37   39   19 1    
    38   21   20 1    
    39   40   23 1    
    40   41   23 1    
    41   25   24 ar   
    42   27   24 1    
    43   26   25 ar   
    44   42   25 1    
    45   43   26 1    
    46   28   27 3    
@<TRIPOS>SUBSTRUCTURE
     1 2O71        1 GROUP   
@<TRIPOS>SET

