#    Name: 1x8v_ESL_1_INTS_M
#    Modification time : Mon Apr  7 15:08:31 2014

@<TRIPOS>MOLECULE
1x8v_ESL_1_INTS_M
   39     0     6     0     0
SMALL
NO_CHARGES


@<TRIPOS>ATOM
      1 CA        -18.8340   -2.1800   72.1415 C.3       2 GLC5        0.0000 
      2 CA        -19.5150   -1.5890   70.5350 C.3       6 GLL5        0.0000 
      3 CA        -18.1530   -2.7710   73.7480 C.3       4 GLP5        0.0000 
      4 CA        -18.4700    1.9330   68.5770 C.3       2 GLC5        0.0000 
      5 CA        -19.0550   -0.0130   68.1180 C.3       6 GLL5        0.0000 
      6 CA        -17.8850    3.8790   69.0360 C.3       4 GLP5        0.0000 
      7 CA        -15.9665    1.3440   67.1045 C.3       2 GLC5        0.0000 
      8 CA        -15.7960   -0.3440   68.0290 C.3       6 GLL5        0.0000 
      9 CA        -16.1370    3.0320   66.1800 C.3       4 GLP5        0.0000 
     10 CA        -16.5360   -0.5210   65.9305 C.3       2 GLC5        0.0000 
     11 CA        -17.2760   -0.6980   63.8320 C.3       4 GLP5        0.0000 
     12 CA        -14.4265    0.8385   70.6205 C.3       2 GLC5        0.0000 
     13 CA        -14.4260   -0.1270   68.7000 C.3       6 GLL5        0.0000 
     14 CA        -14.4270    1.8040   72.5410 C.3       4 GLP5        0.0000 
     15 CA        -14.7315    1.6490   67.8220 C.3       2 GLC5        0.0000 
     16 CA        -15.0370    3.4250   66.9440 C.3       4 GLP5        0.0000 
     17 CA        -13.5690    0.4005   66.7610 C.3       2 GLC5        0.0000 
     18 CA        -12.7120    0.9280   64.8220 C.3       4 GLP5        0.0000 
     19 CA        -13.0480    1.5060   68.7510 C.3       2 GLC5        0.0000 
     20 CA        -11.6700    3.1390   68.8020 C.3       4 GLP5        0.0000 
     21 O         -10.2965   -0.8770   71.4425 O.2       1 ALC1        0.0000 
     22 O         -11.0980   -1.8110   71.8990 O.2       5 ALL1        0.0000 
     23 O          -9.4950    0.0570   70.9860 O.2       3 ALP1        0.0000 
     24 CA        -15.1775   -4.1080   68.8983 C.3       2 GLC5        0.0000 
     25 CA        -16.1820   -2.5080   69.3260 C.3       6 GLL5        0.0000 
     26 CA        -13.6910   -5.2820   68.0510 C.3       4 GLP5        0.0000 
     27 CA        -17.7915   -3.7650   71.6043 C.3       2 GLC5        0.0000 
     28 CA        -17.1460   -3.3600   70.1650 C.3       6 GLL5        0.0000 
     29 CA        -17.7700   -4.0800   73.4350 C.3       4 GLP5        0.0000 
     30 CA        -20.3820    1.5302   67.9275 C.3       2 GLC5        0.0000 
     31 CA        -21.0010    3.3930   67.8860 C.3       4 GLP5        0.0000 
     32 CA        -18.6917   -1.2249   66.1410 C.3       2 GLC5        0.0000 
     33 CA        -18.4190   -1.6420   64.1650 C.3       4 GLP5        0.0000 
     34 CA        -15.9145    1.5713   69.3478 C.3       2 GLC5        0.0000 
     35 CA        -16.7180    3.3780   70.3310 C.3       4 GLP5        0.0000 
     36 CA        -14.0497   -3.5118   68.9567 C.3       2 GLC5        0.0000 
     37 CA        -14.0070   -1.1780   69.7030 C.3       6 GLL5        0.0000 
     38 CA        -13.7105   -4.2268   69.6675 C.3       2 GLC5        0.0000 
     39 CA        -14.3550   -3.2540   70.9670 C.3       6 GLL5        0.0000 
@<TRIPOS>BOND
@<TRIPOS>SUBSTRUCTURE
     1 ALC1       21 GROUP        1 X    ALC  0     ROOT ALC X 1
     2 GLC5        1 GROUP        1 X    GLC  0     **** GLC X 6
     3 ALP1       23 GROUP        1 Y    ALP  0     ROOT ALP Y 8
     4 GLP5        3 GROUP        1 Y    GLP  0     **** GLP Y 13
     5 ALL1       22 GROUP        1 Z    ALL  0     ROOT ALL Z 15
     6 GLL5        2 GROUP        1 Z    GLL  0     **** GLL Z 20
@<TRIPOS>SET

