#    Name: 1x8v_ESL_1_ligand
#    Modification time : Mon Apr  7 15:08:31 2014

@<TRIPOS>MOLECULE
1x8v_ESL_1_ligand
   45    48     1     0     0
SMALL
NO_CHARGES


@<TRIPOS>ATOM
      1 C2        -16.1820   -2.5080   69.3260 C.3       1 ESL471      0.0000 
      2 C3        -17.1460   -3.3600   70.1650 C.3       1 ESL471      0.0000 
      3 C4        -18.4800   -3.5400   69.3820 C.3       1 ESL471      0.0000 
      4 C5        -19.1080   -2.1770   69.1350 C.3       1 ESL471      0.0000 
      5 C6        -19.5150   -1.5890   70.5350 C.3       1 ESL471      0.0000 
      6 C7        -20.4070   -2.1390   68.2850 C.3       1 ESL471      0.0000 
      7 O1        -21.5720   -2.5540   69.0260 O.3       1 ESL471      0.0000 
      8 C8        -20.4710   -0.6520   67.8200 C.3       1 ESL471      0.0000 
      9 O2        -20.8160   -0.5730   66.4430 O.3       1 ESL471      0.0000 
     10 C9        -19.0550   -0.0130   68.1180 C.3       1 ESL471      0.0000 
     11 C10       -18.1660   -1.2830   68.2650 C.3       1 ESL471      0.0000 
     12 C12       -16.7960   -1.1140   68.9450 C.3       1 ESL471      0.0000 
     13 C14       -15.7960   -0.3440   68.0290 C.3       1 ESL471      0.0000 
     14 C15       -14.4260   -0.1270   68.7000 C.3       1 ESL471      0.0000 
     15 C16       -14.0070   -1.1780   69.7030 C.ar      1 ESL471      0.0000 
     16 C17       -12.7500   -1.0190   70.3460 C.ar      1 ESL471      0.0000 
     17 C18       -12.3020   -1.9700   71.2890 C.ar      1 ESL471      0.0000 
     18 O3        -11.0980   -1.8110   71.8990 O.3       1 ESL471      0.0000 
     19 C19       -13.1050   -3.0890   71.6010 C.ar      1 ESL471      0.0000 
     20 C20       -14.3550   -3.2540   70.9670 C.ar      1 ESL471      0.0000 
     21 C21       -14.8100   -2.3050   70.0220 C.ar      1 ESL471      0.0000 
     22 H         -15.9901   -3.0346   68.3797 H         1 ESL471      0.0000 
     23 H         -17.3542   -2.8612   71.0970 H         1 ESL471      0.0000 
     24 H         -16.7128   -4.3304   70.3419 H         1 ESL471      0.0000 
     25 H         -19.1456   -4.1526   69.9724 H         1 ESL471      0.0000 
     26 H         -18.2639   -4.0240   68.4407 H         1 ESL471      0.0000 
     27 H         -20.2221   -2.7299   67.4078 H         1 ESL471      0.0000 
     28 H         -21.1782   -0.1516   68.4604 H         1 ESL471      0.0000 
     29 H         -19.0983    0.4981   69.0254 H         1 ESL471      0.0000 
     30 H         -18.7515    0.5398   67.2881 H         1 ESL471      0.0000 
     31 H         -18.0925   -1.7548   67.3170 H         1 ESL471      0.0000 
     32 H         -16.9185   -0.5500   69.8567 H         1 ESL471      0.0000 
     33 H         -16.2313    0.6246   67.7771 H         1 ESL471      0.0000 
     34 H         -15.6600   -0.9135   67.1079 H         1 ESL471      0.0000 
     35 H         -14.4374    0.8681   69.1953 H         1 ESL471      0.0000 
     36 H         -13.6569   -0.0563   67.9006 H         1 ESL471      0.0000 
     37 H         -12.1678   -0.2081   70.1216 H         1 ESL471      0.0000 
     38 H         -12.7822   -3.7756   72.2825 H         1 ESL471      0.0000 
     39 H         -14.9375   -4.0657   71.1916 H         1 ESL471      0.0000 
     40 H         -18.7245   -1.4867   71.1389 H         1 ESL471      0.0000 
     41 H         -19.9378   -0.6868   70.4502 H         1 ESL471      0.0000 
     42 H         -20.1711   -2.1769   71.0082 H         1 ESL471      0.0000 
     43 H         -22.3500   -2.2366   68.4838 H         1 ESL471      0.0000 
     44 H         -20.2751    0.1876   66.0840 H         1 ESL471      0.0000 
     45 H         -10.4769   -1.5168   71.1726 H         1 ESL471      0.0000 
@<TRIPOS>BOND
     1    2    1 1    
     2   12    1 1    
     3   21    1 1    
     4   22    1 1    
     5    3    2 1    
     6   23    2 1    
     7   24    2 1    
     8    4    3 1    
     9   25    3 1    
    10   26    3 1    
    11    5    4 1    
    12    6    4 1    
    13   11    4 1    
    14   40    5 1    
    15   41    5 1    
    16   42    5 1    
    17    7    6 1    
    18    8    6 1    
    19   27    6 1    
    20   43    7 1    
    21    9    8 1    
    22   10    8 1    
    23   28    8 1    
    24   44    9 1    
    25   11   10 1    
    26   29   10 1    
    27   30   10 1    
    28   12   11 1    
    29   31   11 1    
    30   13   12 1    
    31   32   12 1    
    32   14   13 1    
    33   33   13 1    
    34   34   13 1    
    35   15   14 1    
    36   35   14 1    
    37   36   14 1    
    38   16   15 ar   
    39   21   15 ar   
    40   17   16 ar   
    41   37   16 1    
    42   18   17 1    
    43   19   17 ar   
    44   45   18 1    
    45   20   19 ar   
    46   38   19 1    
    47   21   20 ar   
    48   39   20 1    
@<TRIPOS>SUBSTRUCTURE
     1 ESL471      1 GROUP   
@<TRIPOS>SET

