#    Name: 2yw9_NAP_2_INTS_M
#    Modification time : Tue Mar 25 09:45:50 2014

@<TRIPOS>MOLECULE
2yw9_NAP_2_INTS_M
   74     0     6     0     0
SMALL
NO_CHARGES


@<TRIPOS>ATOM
      1 CA         70.0100  -27.0435   32.8390 C.3       2 GLC5        0.0000 
      2 CA         69.1480  -26.0000   31.3860 C.3       6 GLL5        0.0000 
      3 CA         70.8720  -28.0870   34.2920 C.3       4 GLP5        0.0000 
      4 CA         69.7795  -28.2805   28.8440 C.3       2 GLC5        0.0000 
      5 CA         68.8110  -26.8850   30.1920 C.3       6 GLL5        0.0000 
      6 CA         70.7480  -29.6760   27.4960 C.3       4 GLP5        0.0000 
      7 CA         69.1020  -27.6830   33.1410 C.3       2 GLC5        0.0000 
      8 CA         67.3320  -27.2790   31.9900 C.3       6 GLL5        0.0000 
      9 CA         66.7165  -26.1935   33.8150 C.3       2 GLC5        0.0000 
     10 CA         66.1010  -25.1080   35.6400 C.3       4 GLP5        0.0000 
     11 CA         63.0730  -27.6665   36.0440 C.3       2 GLC5        0.0000 
     12 CA         63.1470  -28.3010   34.3290 C.3       6 GLL5        0.0000 
     13 CA         62.9990  -27.0320   37.7590 C.3       4 GLP5        0.0000 
     14 N          63.1365  -29.5590   36.7120 N.am      1 SEC2        0.0000 
     15 N          63.6790  -29.1550   35.2770 N.am      5 SEL2        0.0000 
     16 N          62.5940  -29.9630   38.1470 N.am      3 SEP2        0.0000 
     17 CA         64.3965  -30.4770   33.8555 C.3       2 GLC5        0.0000 
     18 CA         65.0350  -29.4140   35.2770 C.3       6 GLL5        0.0000 
     19 CA         63.7580  -31.5400   32.4340 C.3       4 GLP5        0.0000 
     20 CA         63.7915  -30.7880   36.2110 C.3       2 GLC5        0.0000 
     21 CA         62.5480  -32.1620   37.1450 C.3       4 GLP5        0.0000 
     22 CA         64.9520  -28.8220   37.1120 C.3       2 GLC5        0.0000 
     23 CA         64.8690  -28.2300   38.9470 C.3       4 GLP5        0.0000 
     24 CA         66.3605  -28.3170   36.2615 C.3       2 GLC5        0.0000 
     25 CA         67.6860  -27.2200   37.2460 C.3       4 GLP5        0.0000 
     26 N          75.0895  -23.2785   29.4905 N.am      1 SEC2        0.0000 
     27 N          73.8050  -22.8970   29.1760 N.am      5 SEL2        0.0000 
     28 N          76.3740  -23.6600   29.8050 N.am      3 SEP2        0.0000 
     29 CA         74.5425  -21.7840   31.4005 C.3       2 GLC5        0.0000 
     30 CA         72.5240  -21.9540   31.6520 C.3       6 GLL5        0.0000 
     31 CA         76.5610  -21.6140   31.1490 C.3       4 GLP5        0.0000 
     32 CA         72.8970  -23.0895   33.3545 C.3       2 GLC5        0.0000 
     33 CA         73.2700  -24.2250   35.0570 C.3       4 GLP5        0.0000 
     34 CA         73.6250  -21.4920   33.4260 C.3       2 GLC5        0.0000 
     35 CA         74.7260  -21.0300   35.2000 C.3       4 GLP5        0.0000 
     36 CA         72.0195  -22.2070   34.1190 C.3       2 GLC5        0.0000 
     37 CA         71.9810  -20.7780   32.4630 C.3       6 GLL5        0.0000 
     38 CA         72.0580  -23.6360   35.7750 C.3       4 GLP5        0.0000 
     39 CA         72.7135  -19.8275   33.8385 C.3       2 GLC5        0.0000 
     40 CA         73.4460  -18.8770   35.2140 C.3       4 GLP5        0.0000 
     41 N          69.1755  -18.9150   34.0160 N.am      1 SEC2        0.0000 
     42 N          69.8880  -20.3280   33.4660 N.am      5 SEL2        0.0000 
     43 N          68.4630  -17.5020   34.5660 N.am      3 SEP2        0.0000 
     44 N          68.9040  -17.9610   33.1875 N.am      1 SEC2        0.0000 
     45 N          69.3450  -18.4200   31.8090 N.am      5 SEL2        0.0000 
     46 CA         73.8125  -18.9295   31.1385 C.3       2 GLC5        0.0000 
     47 CA         71.7620  -18.5240   31.8620 C.3       6 GLL5        0.0000 
     48 CA         75.8630  -19.3350   30.4150 C.3       4 GLP5        0.0000 
     49 CA         72.6040  -18.7005   33.5380 C.3       2 GLC5        0.0000 
     50 N          74.8015  -16.7255   25.4595 N.am      1 SEC2        0.0000 
     51 N          73.4220  -17.0230   26.0820 N.am      5 SEL2        0.0000 
     52 N          76.1810  -16.4280   24.8370 N.am      3 SEP2        0.0000 
     53 CA         74.2960  -15.1220   27.0870 C.3       2 GLC5        0.0000 
     54 CA         73.3540  -16.0030   28.8330 C.3       6 GLL5        0.0000 
     55 CA         75.2380  -14.2410   25.3410 C.3       4 GLP5        0.0000 
     56 CA         68.8177  -24.6492   33.1557 C.3       2 GLC5        0.0000 
     57 CA         69.4710  -24.5570   30.9830 C.3       6 GLL5        0.0000 
     58 CA         68.3260  -24.0200   35.1270 C.3       4 GLP5        0.0000 
     59 CA         65.3825  -26.4808   34.5160 C.3       2 GLC5        0.0000 
     60 CA         63.9830  -27.7150   33.3840 C.3       6 GLL5        0.0000 
     61 CA         63.0235  -26.1450   34.3552 C.3       2 GLC5        0.0000 
     62 CA         62.4820  -24.2820   34.8540 C.3       4 GLP5        0.0000 
     63 CA         64.1065  -29.7700   33.0311 C.3       2 GLC5        0.0000 
     64 CA         68.6977  -20.1750   32.2473 C.3       2 GLC5        0.0000 
     65 CA         70.5070  -20.5060   32.2160 C.3       6 GLL5        0.0000 
     66 CA         66.9100  -20.4980   32.6610 C.3       4 GLP5        0.0000 
     67 CA         74.4796  -18.1069   29.6799 C.3       2 GLC5        0.0000 
     68 CA         72.5750  -18.1650   29.5560 C.3       6 GLL5        0.0000 
     69 CA         71.7845  -14.2728   30.9758 C.3       2 GLC5        0.0000 
     70 CA         73.0780  -15.5080   30.1000 C.3       6 GLL5        0.0000 
     71 CA         70.7510  -12.6180   31.3620 C.3       4 GLP5        0.0000 
     72 CA         74.7725  -15.8161   30.7629 C.3       2 GLC5        0.0000 
     73 CA         72.5580  -16.3470   31.0790 C.3       6 GLL5        0.0000 
     74 CA         76.6580  -15.5810   31.2530 C.3       4 GLP5        0.0000 
@<TRIPOS>BOND
@<TRIPOS>SUBSTRUCTURE
     1 SEC2       14 GROUP        1 X    SEC  0     ROOT SEC X 2
     2 GLC5        1 GROUP        1 X    GLC  0     **** GLC X 6
     3 SEP2       16 GROUP        1 Y    SEP  0     ROOT SEP Y 9
     4 GLP5        3 GROUP        1 Y    GLP  0     **** GLP Y 13
     5 SEL2       15 GROUP        1 Z    SEL  0     ROOT SEL Z 16
     6 GLL5        2 GROUP        1 Z    GLL  0     **** GLL Z 20
@<TRIPOS>SET

