#    Name: 2yw9_NAP_2_ligand
#    Modification time : Tue Mar 25 09:45:50 2014

@<TRIPOS>MOLECULE
2yw9_NAP_2_ligand
   73    77     1     0     0
SMALL
NO_CHARGES


@<TRIPOS>ATOM
      1 PA         70.8970  -24.7260   28.7100 P.3       1 NAP501      0.0000 
      2 O1A        70.4960  -25.4900   27.5080 O.co2     1 NAP501      0.0000 
      3 O2A        71.8770  -25.5020   29.5100 O.co2     1 NAP501      0.0000 
      4 O5B        69.5640  -24.3900   29.5740 O.3       1 NAP501      0.0000 
      5 C5B        69.4710  -24.5570   30.9830 C.3       1 NAP501      0.0000 
      6 C4B        69.1480  -26.0000   31.3860 C.3       1 NAP501      0.0000 
      7 O4B        68.0420  -26.0860   32.2820 O.3       1 NAP501      0.0000 
      8 C3B        68.8110  -26.8850   30.1920 C.3       1 NAP501      0.0000 
      9 O3B        69.6920  -27.9840   30.1640 O.3       1 NAP501      0.0000 
     10 C2B        67.4040  -27.3590   30.4780 C.3       1 NAP501      0.0000 
     11 O2B        67.1200  -28.6440   29.9650 O.3       1 NAP501      0.0000 
     12 C1B        67.3320  -27.2790   31.9900 C.3       1 NAP501      0.0000 
     13 N9A        65.9120  -27.2760   32.3720 N.pl3     1 NAP501      0.0000 
     14 C8A        64.9120  -26.5910   31.7340 C.2       1 NAP501      0.0000 
     15 N7A        63.7470  -26.8620   32.3620 N.2       1 NAP501      0.0000 
     16 C5A        63.9830  -27.7150   33.3840 C.ar      1 NAP501      0.0000 
     17 C6A        63.1470  -28.3010   34.3290 C.ar      1 NAP501      0.0000 
     18 N6A        61.8430  -28.0410   34.3160 N.pl3     1 NAP501      0.0000 
     19 N1A        63.6790  -29.1550   35.2770 N.ar      1 NAP501      0.0000 
     20 C2A        65.0350  -29.4140   35.2770 C.ar      1 NAP501      0.0000 
     21 N3A        65.8610  -28.8300   34.3350 N.ar      1 NAP501      0.0000 
     22 C4A        65.3450  -27.9920   33.4000 C.ar      1 NAP501      0.0000 
     23 O3         71.5040  -23.3000   28.2550 O.3       1 NAP501      0.0000 
     24 PN         72.4800  -22.2600   29.0120 P.3       1 NAP501      0.0000 
     25 O1N        72.3700  -20.9580   28.3120 O.co2     1 NAP501      0.0000 
     26 O2N        73.8050  -22.8970   29.1760 O.co2     1 NAP501      0.0000 
     27 O5D        71.7780  -22.1350   30.4650 O.3       1 NAP501      0.0000 
     28 C5D        72.5240  -21.9540   31.6520 C.3       1 NAP501      0.0000 
     29 C4D        71.9810  -20.7780   32.4630 C.3       1 NAP501      0.0000 
     30 O4D        72.6680  -19.5820   32.1430 O.3       1 NAP501      0.0000 
     31 C3D        70.5070  -20.5060   32.2160 C.3       1 NAP501      0.0000 
     32 O3D        69.8880  -20.3280   33.4660 O.3       1 NAP501      0.0000 
     33 C2D        70.4640  -19.1980   31.4510 C.3       1 NAP501      0.0000 
     34 O2D        69.3450  -18.4200   31.8090 O.3       1 NAP501      0.0000 
     35 C1D        71.7620  -18.5240   31.8620 C.3       1 NAP501      0.0000 
     36 N1N        72.3080  -17.6590   30.7990 N.pl3     1 NAP501      0.0000 
     37 C2N        72.5750  -18.1650   29.5560 C.ar      1 NAP501      0.0000 
     38 C3N        73.1020  -17.3440   28.5570 C.ar      1 NAP501      0.0000 
     39 C7N        73.4020  -17.8940   27.1880 C.2       1 NAP501      0.0000 
     40 O7N        73.4220  -17.0230   26.0820 O.2       1 NAP501      0.0000 
     41 N7N        73.6560  -19.1960   27.0490 N.am      1 NAP501      0.0000 
     42 C4N        73.3540  -16.0030   28.8330 C.ar      1 NAP501      0.0000 
     43 C5N        73.0780  -15.5080   30.1000 C.ar      1 NAP501      0.0000 
     44 C6N        72.5580  -16.3470   31.0790 C.ar      1 NAP501      0.0000 
     45 P2B        66.3270  -28.7520   28.5550 P.3       1 NAP501      0.0000 
     46 O1X        67.3310  -28.6200   27.4270 O.co2     1 NAP501      0.0000 
     47 O2X        65.6180  -30.0830   28.4520 O.co2     1 NAP501      0.0000 
     48 O3X        65.3020  -27.6410   28.4600 O.co2     1 NAP501      0.0000 
     49 H          68.6841  -23.9100   31.4203 H         1 NAP501      0.0000 
     50 H          70.4160  -24.2779   31.4910 H         1 NAP501      0.0000 
     51 H          70.0402  -26.4298   31.8572 H         1 NAP501      0.0000 
     52 H          68.8123  -26.2990   29.3241 H         1 NAP501      0.0000 
     53 H          66.7326  -26.5902   30.0959 H         1 NAP501      0.0000 
     54 H          67.8355  -28.1434   32.3680 H         1 NAP501      0.0000 
     55 H          65.0301  -26.0190   30.9719 H         1 NAP501      0.0000 
     56 H          61.5167  -27.4645   33.5669 H         1 NAP501      0.0000 
     57 H          61.3063  -28.4454   35.0565 H         1 NAP501      0.0000 
     58 H          65.4370  -30.0502   35.9874 H         1 NAP501      0.0000 
     59 H          73.5872  -21.7480   31.4442 H         1 NAP501      0.0000 
     60 H          72.4905  -22.8451   32.3007 H         1 NAP501      0.0000 
     61 H          72.0999  -21.0058   33.5218 H         1 NAP501      0.0000 
     62 H          70.1040  -21.2713   31.6359 H         1 NAP501      0.0000 
     63 H          70.5267  -19.4213   30.4116 H         1 NAP501      0.0000 
     64 H          71.5685  -17.9503   32.7526 H         1 NAP501      0.0000 
     65 H          72.3898  -19.1596   29.3428 H         1 NAP501      0.0000 
     66 H          73.6444  -19.7387   27.8889 H         1 NAP501      0.0000 
     67 H          73.8352  -19.5124   26.1174 H         1 NAP501      0.0000 
     68 H          73.7383  -15.3908   28.1089 H         1 NAP501      0.0000 
     69 H          73.2584  -14.5176   30.3163 H         1 NAP501      0.0000 
     70 H          72.3636  -15.9641   32.0204 H         1 NAP501      0.0000 
     71 H          69.1000  -28.7894   30.1327 H         1 NAP501      0.0000 
     72 H          69.4653  -19.4229   33.4188 H         1 NAP501      0.0000 
     73 H          69.7080  -17.5015   31.9657 H         1 NAP501      0.0000 
@<TRIPOS>BOND
     1    2    1 ar   
     2    3    1 ar   
     3    4    1 1    
     4   23    1 1    
     5    5    4 1    
     6    6    5 1    
     7   49    5 1    
     8   50    5 1    
     9    7    6 1    
    10    8    6 1    
    11   51    6 1    
    12   12    7 1    
    13    9    8 1    
    14   10    8 1    
    15   52    8 1    
    16   71    9 1    
    17   11   10 1    
    18   12   10 1    
    19   53   10 1    
    20   45   11 1    
    21   13   12 1    
    22   54   12 1    
    23   14   13 1    
    24   22   13 1    
    25   15   14 2    
    26   55   14 1    
    27   16   15 1    
    28   17   16 ar   
    29   22   16 ar   
    30   18   17 1    
    31   19   17 ar   
    32   56   18 1    
    33   57   18 1    
    34   20   19 ar   
    35   21   20 ar   
    36   58   20 1    
    37   22   21 ar   
    38   24   23 1    
    39   25   24 ar   
    40   26   24 ar   
    41   27   24 1    
    42   28   27 1    
    43   29   28 1    
    44   59   28 1    
    45   60   28 1    
    46   30   29 1    
    47   31   29 1    
    48   61   29 1    
    49   35   30 1    
    50   32   31 1    
    51   33   31 1    
    52   62   31 1    
    53   72   32 1    
    54   34   33 1    
    55   35   33 1    
    56   63   33 1    
    57   73   34 1    
    58   36   35 1    
    59   64   35 1    
    60   37   36 ar   
    61   44   36 ar   
    62   38   37 ar   
    63   65   37 1    
    64   39   38 1    
    65   42   38 ar   
    66   40   39 2    
    67   41   39 am   
    68   66   41 1    
    69   67   41 1    
    70   43   42 ar   
    71   68   42 1    
    72   44   43 ar   
    73   69   43 1    
    74   70   44 1    
    75   46   45 ar   
    76   47   45 ar   
    77   48   45 ar   
@<TRIPOS>SUBSTRUCTURE
     1 NAP501      1 GROUP   
@<TRIPOS>SET

