#    Name: 3d4n_D4N_1_INTS_M
#    Modification time : Mon Mar 24 22:40:02 2014

@<TRIPOS>MOLECULE
3d4n_D4N_1_INTS_M
   59     0     6     0     0
SMALL
NO_CHARGES


@<TRIPOS>ATOM
      1 CA          5.4300    2.9270    7.3850 C.3       2 GLC5        0.0000 
      2 CA          7.1730    1.6100    7.4560 C.3       6 GLL5        0.0000 
      3 CA          3.6870    4.2440    7.3140 C.3       4 GLP5        0.0000 
      4 CA          4.2455    1.3960    6.9645 C.3       2 GLC5        0.0000 
      5 CA          6.0300    0.7050    7.0340 C.3       6 GLL5        0.0000 
      6 CA          2.4610    2.0870    6.8950 C.3       4 GLP5        0.0000 
      7 CA          5.3540   -5.5140   15.0705 C.3       2 GLC5        0.0000 
      8 CA          5.9150   -3.5280   15.2350 C.3       6 GLL5        0.0000 
      9 CA          4.7930   -7.5000   14.9060 C.3       4 GLP5        0.0000 
     10 CA          4.1775   -3.3330   15.7610 C.3       2 GLC5        0.0000 
     11 CA          2.4400   -3.1380   16.2870 C.3       4 GLP5        0.0000 
     12 CA          9.0415    1.7555   14.4290 C.3       2 GLC5        0.0000 
     13 CA          6.9540    1.0020   14.2500 C.3       6 GLL5        0.0000 
     14 CA         11.1290    2.5090   14.6080 C.3       4 GLP5        0.0000 
     15 CA          2.8935    0.9785   12.7910 C.3       2 GLC5        0.0000 
     16 CA          4.7770    0.2120   13.5950 C.3       6 GLL5        0.0000 
     17 CA          1.0100    1.7450   11.9870 C.3       4 GLP5        0.0000 
     18 CA          4.5060   -1.7525   11.8600 C.3       2 GLC5        0.0000 
     19 CA          5.1930   -1.0970   13.7850 C.3       6 GLL5        0.0000 
     20 CA          3.8190   -2.4080    9.9350 C.3       4 GLP5        0.0000 
     21 CA          2.9525    2.2120   11.5140 C.3       2 GLC5        0.0000 
     22 CA          4.8950    2.6790   11.0410 C.3       6 GLL5        0.0000 
     23 CA          3.5155    3.7380   10.2820 C.3       2 GLC5        0.0000 
     24 CA          2.1360    4.7970    9.5230 C.3       4 GLP5        0.0000 
     25 CA          8.4890   -3.3525   10.6995 C.3       2 GLC5        0.0000 
     26 CA          8.2630   -2.8850   12.5340 C.3       6 GLL5        0.0000 
     27 CA          8.7150   -3.8200    8.8650 C.3       4 GLP5        0.0000 
     28 CA          9.7175   -1.7700   11.6750 C.3       2 GLC5        0.0000 
     29 CA         11.1720   -0.6550   10.8160 C.3       4 GLP5        0.0000 
     30 CA          5.2520   -5.1780   12.9090 C.3       2 GLC5        0.0000 
     31 CA          6.1630   -3.3440   12.2750 C.3       6 GLL5        0.0000 
     32 CA          4.3410   -7.0120   13.5430 C.3       4 GLP5        0.0000 
     33 CA          4.9910   -2.8760   11.1050 C.3       2 GLC5        0.0000 
     34 CA          5.8985   -5.8755   13.4205 C.3       2 GLC5        0.0000 
     35 CA          7.4560   -4.7390   13.2980 C.3       6 GLL5        0.0000 
     36 CA          7.7630   -6.4250   12.5600 C.3       2 GLC5        0.0000 
     37 CA          8.0700   -8.1110   11.8220 C.3       4 GLP5        0.0000 
     38 N           2.3340    3.3935   13.3690 N.am      1 SEC2        0.0000 
     39 N           3.7520    2.8280   13.7330 N.am      5 SEL2        0.0000 
     40 N           0.9160    3.9590   13.0050 N.am      3 SEP2        0.0000 
     41 CA          6.1115    6.2430   12.4025 C.3       2 GLC5        0.0000 
     42 CA          7.4840    4.7490   11.4710 C.3       6 GLL5        0.0000 
     43 CA          4.7390    7.7370   13.3340 C.3       4 GLP5        0.0000 
     44 CA          8.8200    5.8480   10.8235 C.3       2 GLC5        0.0000 
     45 CA         10.1560    6.9470   10.1760 C.3       4 GLP5        0.0000 
     46 CA          4.1845    2.5335    8.9235 C.3       2 GLC5        0.0000 
     47 CA          5.6950    1.7080   10.1810 C.3       6 GLL5        0.0000 
     48 CA          2.6740    3.3590    7.6660 C.3       4 GLP5        0.0000 
     49 CA          9.4460    0.3955    9.8455 C.3       2 GLC5        0.0000 
     50 CA          7.7200    1.4460    8.8750 C.3       6 GLL5        0.0000 
     51 CA          7.0320   -3.2550   10.7220 C.3       2 GLC5        0.0000 
     52 CA          7.2070   -3.4580   13.0810 C.3       6 GLL5        0.0000 
     53 CA          7.3790   -3.1090    8.7660 C.3       4 GLP5        0.0000 
     54 CA          7.0557   -1.2620    7.7633 C.3       2 GLC5        0.0000 
     55 CA          7.4350    0.4650    6.4870 C.3       6 GLL5        0.0000 
     56 CA          6.4002   -1.1110    5.8022 C.3       2 GLC5        0.0000 
     57 CA          6.0680   -2.8070    4.8440 C.3       4 GLP5        0.0000 
     58 CA          9.2338   -4.4226   12.9744 C.3       2 GLC5        0.0000 
     59 CA         10.8720   -4.8900   12.8960 C.3       4 GLP5        0.0000 
@<TRIPOS>BOND
@<TRIPOS>SUBSTRUCTURE
     1 SEC2       38 GROUP        1 X    SEC  0     ROOT SEC X 2
     2 GLC5        1 GROUP        1 X    GLC  0     **** GLC X 6
     3 SEP2       40 GROUP        1 Y    SEP  0     ROOT SEP Y 9
     4 GLP5        3 GROUP        1 Y    GLP  0     **** GLP Y 13
     5 SEL2       39 GROUP        1 Z    SEL  0     ROOT SEL Z 16
     6 GLL5        2 GROUP        1 Z    GLL  0     **** GLL Z 20
@<TRIPOS>SET

