#    Name: 3d4n_D4N_1_ligand
#    Modification time : Mon Mar 24 22:40:02 2014

@<TRIPOS>MOLECULE
3d4n_D4N_1_ligand
   57    59     1     0     0
SMALL
NO_CHARGES


@<TRIPOS>ATOM
      1 O1          6.6560    3.0040    5.6540 O.2       1 D4N293      0.0000 
      2 C1          7.1730    1.6100    7.4560 C.3       1 D4N293      0.0000 
      3 C2          7.2070   -3.4580   13.0810 C.3       1 D4N293      0.0000 
      4 C3          7.0830    2.9580    6.7930 C.2       1 D4N293      0.0000 
      5 C5          6.9500   -2.7730   14.4160 C.3       1 D4N293      0.0000 
      6 C6          6.0300    0.7050    7.0340 C.3       1 D4N293      0.0000 
      7 C7          5.9150   -3.5280   15.2350 C.3       1 D4N293      0.0000 
      8 C8          6.4900   -1.3600   14.2060 C.ar      1 D4N293      0.0000 
      9 C9          7.3700   -0.3100   14.4390 C.ar      1 D4N293      0.0000 
     10 C10         6.9540    1.0020   14.2500 C.ar      1 D4N293      0.0000 
     11 C11         5.6570    1.2620   13.8240 C.ar      1 D4N293      0.0000 
     12 C12         4.7770    0.2120   13.5950 C.ar      1 D4N293      0.0000 
     13 C13         5.1930   -1.0970   13.7850 C.ar      1 D4N293      0.0000 
     14 C14         7.4350    0.4650    6.4870 C.3       1 D4N293      0.0000 
     15 C18         4.8950    2.6790   11.0410 C.3       1 D4N293      0.0000 
     16 F4          8.2630   -2.8850   12.5340 F         1 D4N293      0.0000 
     17 F1          6.1630   -3.3440   12.2750 F         1 D4N293      0.0000 
     18 F3          7.4560   -4.7390   13.2980 F         1 D4N293      0.0000 
     19 O6          8.1920   -2.7560   15.1190 O.3       1 D4N293      0.0000 
     20 S14         5.1820    2.7690   13.6060 S.o2      1 D4N293      0.0000 
     21 O15         5.7530    3.5790   14.6470 O.2       1 D4N293      0.0000 
     22 O16         3.7520    2.8280   13.7330 O.2       1 D4N293      0.0000 
     23 N17         5.6330    3.3380   12.1490 N.pl3     1 D4N293      0.0000 
     24 C22         7.1120    3.3760   12.0070 C.3       1 D4N293      0.0000 
     25 C68         7.4840    4.7490   11.4710 C.3       1 D4N293      0.0000 
     26 C21         7.7190    2.3010   11.1130 C.3       1 D4N293      0.0000 
     27 C19         5.6950    1.7080   10.1810 C.3       1 D4N293      0.0000 
     28 N20         6.9960    2.2840    9.8470 N.4       1 D4N293      0.0000 
     29 C23         7.7200    1.4460    8.8750 C.3       1 D4N293      0.0000 
     30 N1          7.4630    4.0370    7.4760 N.am      1 D4N293      0.0000 
     31 H           5.5362    1.1544    6.3636 H         1 D4N293      0.0000 
     32 H           5.8838    0.0790    7.7283 H         1 D4N293      0.0000 
     33 H           8.3309   -0.5047   14.7519 H         1 D4N293      0.0000 
     34 H           7.6038    1.7787   14.4248 H         1 D4N293      0.0000 
     35 H           3.8150    0.4070   13.2839 H         1 D4N293      0.0000 
     36 H           4.5408   -1.8750   13.6141 H         1 D4N293      0.0000 
     37 H           7.8144   -0.2467    6.9799 H         1 D4N293      0.0000 
     38 H           7.4667    0.8287    5.6151 H         1 D4N293      0.0000 
     39 H           4.4580    3.4575   10.3682 H         1 D4N293      0.0000 
     40 H           4.0135    2.1295   11.4541 H         1 D4N293      0.0000 
     41 H           7.5691    3.2982   13.0014 H         1 D4N293      0.0000 
     42 H           7.6384    1.3432   11.6233 H         1 D4N293      0.0000 
     43 H           8.7710    2.5339   10.9605 H         1 D4N293      0.0000 
     44 H           5.1191    1.4950    9.2754 H         1 D4N293      0.0000 
     45 H           5.8140    0.7731   10.7368 H         1 D4N293      0.0000 
     46 H           6.8763    3.2763    9.4865 H         1 D4N293      0.0000 
     47 H           8.7886    1.7065    8.8638 H         1 D4N293      0.0000 
     48 H           7.6448    0.3841    9.1519 H         1 D4N293      0.0000 
     49 H           7.8014    3.8745    8.4028 H         1 D4N293      0.0000 
     50 H           7.3756    4.9122    7.0003 H         1 D4N293      0.0000 
     51 H           6.2074   -4.4639   15.4313 H         1 D4N293      0.0000 
     52 H           5.7417   -3.0845   16.1144 H         1 D4N293      0.0000 
     53 H           5.0374   -3.5888   14.7594 H         1 D4N293      0.0000 
     54 H           8.4723    4.8467   11.3540 H         1 D4N293      0.0000 
     55 H           7.0645    4.9263   10.5807 H         1 D4N293      0.0000 
     56 H           7.1879    5.4803   12.0854 H         1 D4N293      0.0000 
     57 H           7.9412   -2.7206   16.0864 H         1 D4N293      0.0000 
@<TRIPOS>BOND
     1    4    1 2    
     2    4    2 1    
     3    6    2 1    
     4   14    2 1    
     5   29    2 1    
     6    5    3 1    
     7   16    3 1    
     8   17    3 1    
     9   18    3 1    
    10   30    4 am   
    11    7    5 1    
    12    8    5 1    
    13   19    5 1    
    14   14    6 1    
    15   31    6 1    
    16   32    6 1    
    17   51    7 1    
    18   52    7 1    
    19   53    7 1    
    20    9    8 ar   
    21   13    8 ar   
    22   10    9 ar   
    23   33    9 1    
    24   11   10 ar   
    25   34   10 1    
    26   12   11 ar   
    27   20   11 1    
    28   13   12 ar   
    29   35   12 1    
    30   36   13 1    
    31   37   14 1    
    32   38   14 1    
    33   23   15 1    
    34   27   15 1    
    35   39   15 1    
    36   40   15 1    
    37   57   19 1    
    38   21   20 2    
    39   22   20 2    
    40   23   20 1    
    41   24   23 1    
    42   25   24 1    
    43   26   24 1    
    44   41   24 1    
    45   54   25 1    
    46   55   25 1    
    47   56   25 1    
    48   28   26 1    
    49   42   26 1    
    50   43   26 1    
    51   28   27 1    
    52   44   27 1    
    53   45   27 1    
    54   29   28 1    
    55   46   28 1    
    56   47   29 1    
    57   48   29 1    
    58   49   30 1    
    59   50   30 1    
@<TRIPOS>SUBSTRUCTURE
     1 D4N293      1 GROUP   
@<TRIPOS>SET

