#    Name: 2hdu_F12_6_INTS_M
#    Modification time : Tue Mar 25 15:56:01 2014

@<TRIPOS>MOLECULE
2hdu_F12_6_INTS_M
   28     0     9     0     0
SMALL
NO_CHARGES


@<TRIPOS>ATOM
      1 NZ         74.8010   14.0570   13.7565 N.4       2 LYC4        0.0000 
      2 NZ         74.5230   13.3020   12.4830 N.4       8 LYL4        0.0000 
      3 NZ         73.9400   15.2040   15.5910 N.4       5 LYP4        0.0000 
      4 N          74.8010   14.0570   13.7565 N.am      1 SEC2        0.0000 
      5 N          74.5230   13.3020   12.4830 N.am      7 SEL2        0.0000 
      6 N          75.0790   14.8120   15.0300 N.am      4 SEP2        0.0000 
      7 NZ         72.8010   13.4865   14.3870 N.4       2 LYC4        0.0000 
      8 NZ         72.8080   12.3230   13.5550 N.4       8 LYL4        0.0000 
      9 N          72.8010   13.4865   14.3870 N.am      1 SEC2        0.0000 
     10 N          72.8080   12.3230   13.5550 N.am      7 SEL2        0.0000 
     11 N          72.7940   14.6500   15.2190 N.am      4 SEP2        0.0000 
     12 CA         77.0180    8.1750   10.7410 C.3       3 GLC5        0.0000 
     13 CA         75.2830    9.0860   10.8320 C.3       9 GLL5        0.0000 
     14 CA         78.7530    7.2640   10.6500 C.3       6 GLP5        0.0000 
     15 CA         75.6255    8.1625   12.5005 C.3       3 GLC5        0.0000 
     16 CA         75.9680    7.2390   14.1690 C.3       6 GLP5        0.0000 
     17 CA         77.9200   11.9325   11.5460 C.3       3 GLC5        0.0000 
     18 CA         77.9000   12.7900    9.7170 C.3       9 GLL5        0.0000 
     19 CA         77.9400   11.0750   13.3750 C.3       6 GLP5        0.0000 
     20 CA         74.6688   10.7207   13.8965 C.3       3 GLC5        0.0000 
     21 CA         74.1280   10.9900   12.2000 C.3       9 GLL5        0.0000 
     22 CA         75.5580   11.0500   15.4660 C.3       6 GLP5        0.0000 
     23 CA         74.8200    8.2342   13.1453 C.3       3 GLC5        0.0000 
     24 CA         73.4310    9.7930   12.4540 C.3       9 GLL5        0.0000 
     25 CA         74.2060    7.0815   10.4407 C.3       3 GLC5        0.0000 
     26 CA         73.9130    8.6660   11.7890 C.3       9 GLL5        0.0000 
     27 CA         73.8140    5.2870    9.5710 C.3       6 GLP5        0.0000 
     28 CA         76.6018   10.4980   12.2127 C.3       3 GLC5        0.0000 
@<TRIPOS>BOND
@<TRIPOS>SUBSTRUCTURE
     1 SEC2        4 GROUP        1 X    SEC  0     ROOT SEC X 2
     2 LYC4        1 GROUP        1 X    LYC  0     **** LYC X 4
     3 GLC5       12 GROUP        1 X    GLC  0     **** GLC X 6
     4 SEP2        6 GROUP        1 Y    SEP  0     ROOT SEP Y 9
     5 LYP4        3 GROUP        1 Y    LYP  0     **** LYP Y 11
     6 GLP5       14 GROUP        1 Y    GLP  0     **** GLP Y 13
     7 SEL2        5 GROUP        1 Z    SEL  0     ROOT SEL Z 16
     8 LYL4        2 GROUP        1 Z    LYL  0     **** LYL Z 18
     9 GLL5       13 GROUP        1 Z    GLL  0     **** GLL Z 20
@<TRIPOS>SET

