#    Name: 2hdu_F12_6_ligand
#    Modification time : Tue Mar 25 15:56:01 2014

@<TRIPOS>MOLECULE
2hdu_F12_6_ligand
   18    18     1     0     0
SMALL
NO_CHARGES


@<TRIPOS>ATOM
      1 O9         74.5230   13.3020   12.4830 O.co2     1 F121005     0.0000 
      2 C7         73.7980   12.3170   12.7870 C.2       1 F121005     0.0000 
      3 O8         72.8080   12.3230   13.5550 O.co2     1 F121005     0.0000 
      4 C3         74.1280   10.9900   12.2000 C.2       1 F121005     0.0000 
      5 C4         73.4310    9.7930   12.4540 C.2       1 F121005     0.0000 
      6 C5         73.9130    8.6660   11.7890 C.2       1 F121005     0.0000 
      7 S6         75.2830    9.0860   10.8320 S.3       1 F121005     0.0000 
      8 C2         75.2440   10.7560   11.2690 C.2       1 F121005     0.0000 
      9 N1         76.0900   11.7470   10.8620 N.am      1 F121005     0.0000 
     10 C13        77.1050   11.5520   10.0200 C.2       1 F121005     0.0000 
     11 O14        77.3750   10.4770    9.5200 O.2       1 F121005     0.0000 
     12 C12        77.9000   12.7900    9.7170 C.3       1 F121005     0.0000 
     13 H          72.6499    9.7607   13.0663 H         1 F121005     0.0000 
     14 H          73.6738    7.7904   11.7495 H         1 F121005     0.0000 
     15 H          75.9183   12.7275   11.2466 H         1 F121005     0.0000 
     16 H          78.3067   13.1815   10.5424 H         1 F121005     0.0000 
     17 H          78.6490   12.6040    9.0811 H         1 F121005     0.0000 
     18 H          77.3340   13.5027    9.3027 H         1 F121005     0.0000 
@<TRIPOS>BOND
     1    2    1 ar   
     2    3    2 ar   
     3    4    2 1    
     4    5    4 1    
     5    8    4 2    
     6    6    5 2    
     7   13    5 1    
     8    7    6 1    
     9   14    6 1    
    10    8    7 1    
    11    9    8 1    
    12   10    9 am   
    13   15    9 1    
    14   11   10 2    
    15   12   10 1    
    16   16   12 1    
    17   17   12 1    
    18   18   12 1    
@<TRIPOS>SUBSTRUCTURE
     1 F121005     1 GROUP   
@<TRIPOS>SET

