#    Name: 1ESN_1_CAVITY_N1_ALL.mol2
#    Modification time : Mon Mar 10 21:26:17 2014

@<TRIPOS>MOLECULE
1ESN_1_CAVITY_N1_ALL.mol2
   87     0     7     0     0
SMALL
NO_CHARGES


@<TRIPOS>ATOM
      1 OD1        -2.7981   62.4781   -3.5672 O.3       3 ASP3        0.0000 
      2 N          -0.2294   61.4317   -5.4531 N.2       2 ALA2        0.0000 
      3 O          -1.5383   62.1322   -5.2385 O.2       2 ALA2        0.0000 
      4 O          -2.8472   62.8327   -5.0239 O.2       2 ALA2        0.0000 
      5 CA         -0.2784   61.7864   -6.9097 C.3       6 GLY6        0.0000 
      6 O          -1.5873   62.4869   -6.6951 O.2       2 ALA2        0.0000 
      7 CZ         -0.3274   62.1411   -8.3664 C.ar      5 PHE5        0.0000 
      8 O          -1.6363   62.8416   -8.1518 O.2       2 ALA2        0.0000 
      9 CA         -0.6112   61.9916    0.8747 C.3       6 GLY6        0.0000 
     10 O          -1.9201   62.6921    1.0893 O.2       2 ALA2        0.0000 
     11 OD1        -0.6602   62.3463   -0.5820 O.3       3 ASP3        0.0000 
     12 OD1        -1.9691   63.0468   -0.3673 O.3       3 ASP3        0.0000 
     13 OD1        -2.0181   63.4015   -1.8240 O.3       3 ASP3        0.0000 
     14 OD1         0.5507   62.3551   -3.7099 O.3       3 ASP3        0.0000 
     15 OD1        -0.7582   63.0556   -3.4952 O.3       3 ASP3        0.0000 
     16 O          -2.0671   63.7561   -3.2806 O.2       2 ALA2        0.0000 
     17 CA          0.5016   62.7098   -5.1665 C.3       6 GLY6        0.0000 
     18 O          -0.8073   63.4103   -4.9519 O.2       2 ALA2        0.0000 
     19 CA          0.4526   63.0645   -6.6231 C.3       6 GLY6        0.0000 
     20 O          -0.8563   63.7650   -6.4085 O.2       2 ALA2        0.0000 
     21 CA          0.4036   63.4192   -8.0798 C.3       6 GLY6        0.0000 
     22 O          -0.9053   64.1197   -7.8652 O.2       2 ALA2        0.0000 
     23 OG          2.1598   63.8473    1.2332 O.2       1 SER1        0.0000 
     24 OG          0.8508   64.5478    1.4479 O.2       1 SER1        0.0000 
     25 DU         -0.4581   65.2483    1.6625 H         7 CUB7        0.0000 
     26 DU          0.8018   64.9024   -0.0088 H         7 CUB7        0.0000 
     27 CA         -0.5071   65.6029    0.2059 C.3       6 GLY6        0.0000 
     28 CZ          2.0617   64.5566   -1.6800 C.ar      5 PHE5        0.0000 
     29 DU          0.7528   65.2571   -1.4654 H         7 CUB7        0.0000 
     30 CA         -0.5561   65.9576   -1.2508 C.3       6 GLY6        0.0000 
     31 CZ          2.0127   64.9113   -3.1367 C.ar      5 PHE5        0.0000 
     32 CA          0.7038   65.6118   -2.9220 C.3       6 GLY6        0.0000 
     33 CA         -0.6051   66.3123   -2.7074 C.3       6 GLY6        0.0000 
     34 CA          0.6547   65.9665   -4.3787 C.3       6 GLY6        0.0000 
     35 OG          0.1689   62.9150    2.6179 O.2       1 SER1        0.0000 
     36 CA          1.4287   62.5692    0.9466 C.3       6 GLY6        0.0000 
     37 OG          0.1198   63.2697    1.1613 O.2       1 SER1        0.0000 
     38 O          -1.1891   63.9702    1.3759 O.2       2 ALA2        0.0000 
     39 CZ          2.9458   69.0914   -0.6056 C.ar      5 PHE5        0.0000 
     40 N           1.6369   69.7919   -0.3910 N.2       2 ALA2        0.0000 
     41 N           0.3280   70.4924   -0.1764 N.2       2 ALA2        0.0000 
     42 DU          1.5328   66.1805    0.2778 H         7 CUB7        0.0000 
     43 DU          0.2239   66.8810    0.4925 H         7 CUB7        0.0000 
     44 CA         -1.0850   67.5815    0.7071 C.3       6 GLY6        0.0000 
     45 CZ          2.7927   65.8347   -1.3934 C.ar      5 PHE5        0.0000 
     46 CZ          1.4838   66.5352   -1.1788 C.ar      5 PHE5        0.0000 
     47 CA          0.1749   67.2357   -0.9642 C.3       6 GLY6        0.0000 
     48 CA         -1.1340   67.9362   -0.7496 C.3       6 GLY6        0.0000 
     49 CZ          1.4348   66.8899   -2.6354 C.ar      5 PHE5        0.0000 
     50 CA          2.6886   62.2233   -0.7246 C.3       6 GLY6        0.0000 
     51 CA          1.3797   62.9239   -0.5100 C.3       6 GLY6        0.0000 
     52 OD1         0.0708   63.6244   -0.2954 O.3       3 ASP3        0.0000 
     53 CA         -1.2381   64.3249   -0.0807 C.3       6 GLY6        0.0000 
     54 OD1         1.3307   63.2785   -1.9666 O.3       3 ASP3        0.0000 
     55 OD1         0.0218   63.9790   -1.7520 O.3       3 ASP3        0.0000 
     56 CA         -1.2871   64.6795   -1.5374 C.3       6 GLY6        0.0000 
     57 DU          1.2817   63.6332   -3.4233 H         7 CUB7        0.0000 
     58 CA         -0.0272   64.3337   -3.2086 C.3       6 GLY6        0.0000 
     59 CA         -1.3361   65.0342   -2.9940 C.3       6 GLY6        0.0000 
     60 CA          2.5415   63.2874   -5.0945 C.3       6 GLY6        0.0000 
     61 CZ          1.2326   63.9879   -4.8799 C.ar      5 PHE5        0.0000 
     62 CA         -0.0763   64.6884   -4.6653 C.3       6 GLY6        0.0000 
     63 CA          2.4925   63.6421   -6.5512 C.3       6 GLY6        0.0000 
     64 CZ          1.1836   64.3426   -6.3365 C.ar      5 PHE5        0.0000 
     65 O          -0.1253   65.0431   -6.1219 O.2       2 ALA2        0.0000 
     66 CZ          1.1346   64.6973   -7.7932 C.ar      5 PHE5        0.0000 
     67 NZ         -3.5782   61.5547   -5.3105 N.2       4 LYS4        0.0000 
     68 CA         -4.8871   62.2552   -5.0958 C.3       6 GLY6        0.0000 
     69 NZ         -2.3183   61.2088   -6.9817 N.2       4 LYS4        0.0000 
     70 O          -3.6272   61.9093   -6.7671 O.2       2 ALA2        0.0000 
     71 O          -4.9361   62.6098   -6.5525 O.2       2 ALA2        0.0000 
     72 NZ         -2.3673   61.5635   -8.4384 N.2       4 LYS4        0.0000 
     73 O          -3.6762   62.2640   -8.2237 O.2       2 ALA2        0.0000 
     74 O          -4.9851   62.9645   -8.0091 O.2       2 ALA2        0.0000 
     75 N           0.3770   70.1377    1.2803 N.2       2 ALA2        0.0000 
     76 DU          0.9549   68.1591    0.7791 H         7 CUB7        0.0000 
     77 DU         -0.3540   68.8596    0.9937 H         7 CUB7        0.0000 
     78 N          -1.6629   69.5601    1.2083 N.2       2 ALA2        0.0000 
     79 CZ          2.2148   67.8133   -0.8922 C.ar      5 PHE5        0.0000 
     80 DU          0.9059   68.5138   -0.6776 H         7 CUB7        0.0000 
     81 CA         -0.4030   69.2143   -0.4630 C.3       6 GLY6        0.0000 
     82 CA          0.8569   68.8685   -2.1342 C.3       6 GLY6        0.0000 
     83 NZ         -4.3092   60.2766   -5.5971 N.2       4 LYS4        0.0000 
     84 NZ         -4.3582   60.6313   -7.0537 N.2       4 LYS4        0.0000 
     85 CA         -5.6671   61.3318   -6.8391 C.3       6 GLY6        0.0000 
     86 NZ         -4.4072   60.9859   -8.5103 N.2       4 LYS4        0.0000 
     87 N          -5.7161   61.6864   -8.2957 N.2       2 ALA2        0.0000 
@<TRIPOS>BOND
@<TRIPOS>SUBSTRUCTURE
     1 SER1       23 GROUP   
     2 ALA2        2 GROUP   
     3 ASP3        1 GROUP   
     4 LYS4       67 GROUP   
     5 PHE5        7 GROUP   
     6 GLY6        5 GROUP   
     7 CUB7       25 GROUP   
@<TRIPOS>SET

