#    Name: 1esn_ANP_1_INTS_M
#    Modification time : Tue Mar 25 00:14:11 2014

@<TRIPOS>MOLECULE
1esn_ANP_1_INTS_M
   54     0    12     0     0
SMALL
NO_CHARGES


@<TRIPOS>ATOM
      1 N          -2.2895   64.4995   -5.1285 N.am      1 SEC2        0.0000 
      2 N          -1.6770   63.7840   -3.8850 N.am      9 SEL2        0.0000 
      3 N          -2.9020   65.2150   -6.3720 N.am      5 SEP2        0.0000 
      4 NZ         -4.2745   61.5035   -2.4210 N.4       2 LYC4        0.0000 
      5 NZ         -2.6410   61.5470   -3.2230 N.4      10 LYL4        0.0000 
      6 NZ         -5.9080   61.4600   -1.6190 N.4       6 LYP4        0.0000 
      7 Zn         -1.7515   60.9220   -2.7240 Zn        3 ZIC7        0.0000 
      8 Zn         -2.6410   61.5470   -3.2230 Zn       11 ZIL7        0.0000 
      9 Zn         -0.8620   60.2970   -2.2250 Zn        7 ZIP7        0.0000 
     10 NZ         -5.0375   62.4355   -2.4460 N.4       2 LYC4        0.0000 
     11 NZ         -4.1670   63.4110   -3.2730 N.4      10 LYL4        0.0000 
     12 N          -4.5420   64.4295   -2.3480 N.am      1 SEC2        0.0000 
     13 N          -4.1670   63.4110   -3.2730 N.am      9 SEL2        0.0000 
     14 N          -4.9170   65.4480   -1.4230 N.am      5 SEP2        0.0000 
     15 N          -5.0375   62.4355   -2.4460 N.am      1 SEC2        0.0000 
     16 N          -5.9080   61.4600   -1.6190 N.am      5 SEP2        0.0000 
     17 NZ         -4.8825   61.9750   -0.6790 N.4       2 LYC4        0.0000 
     18 NZ         -3.8570   62.4900    0.2610 N.4      10 LYL4        0.0000 
     19 N          -3.9285   62.9855    1.6375 N.am      1 SEC2        0.0000 
     20 N          -3.8570   62.4900    0.2610 N.am      9 SEL2        0.0000 
     21 N          -4.0000   63.4810    3.0140 N.am      5 SEP2        0.0000 
     22 N          -3.8095   61.6545    1.4370 N.am      1 SEC2        0.0000 
     23 N          -3.7620   60.8190    2.6130 N.am      5 SEP2        0.0000 
     24 N          -4.8825   61.9750   -0.6790 N.am      1 SEC2        0.0000 
     25 Zn         -1.3425   60.7505   -1.1855 Zn        3 ZIC7        0.0000 
     26 Zn         -1.8230   61.2040   -0.1460 Zn       11 ZIL7        0.0000 
     27 N          -1.7340   60.1910    0.7340 N.am      1 SEC2        0.0000 
     28 N          -1.8230   61.2040   -0.1460 N.am      9 SEL2        0.0000 
     29 N          -1.6450   59.1780    1.6140 N.am      5 SEP2        0.0000 
     30 N           0.2225   60.9270    3.0275 N.am      1 SEC2        0.0000 
     31 N          -0.0170   62.1590    2.5310 N.am      9 SEL2        0.0000 
     32 N           0.4620   59.6950    3.5240 N.am      5 SEP2        0.0000 
     33 N           0.7715   62.1735    3.5625 N.am      1 SEC2        0.0000 
     34 N           1.5600   62.1880    4.5940 N.am      5 SEP2        0.0000 
     35 CA         -1.0390   68.0700    5.6835 C.3       4 GLC5        0.0000 
     36 CA          0.4270   67.2840    4.7860 C.3      12 GLL5        0.0000 
     37 CA         -2.5050   68.8560    6.5810 C.3       8 GLP5        0.0000 
     38 CA          0.8665   64.0795   10.4100 C.3       4 GLC5        0.0000 
     39 CA         -0.1680   64.8270    8.9540 C.3      12 GLL5        0.0000 
     40 CA          1.9010   63.3320   11.8660 C.3       8 GLP5        0.0000 
     41 CA          2.8440   67.5965    8.3960 C.3       4 GLC5        0.0000 
     42 CA          1.0220   66.9640    8.9540 C.3      12 GLL5        0.0000 
     43 CA          4.6660   68.2290    7.8380 C.3       8 GLP5        0.0000 
     44 CA          2.5450   66.0240   10.0630 C.3       4 GLC5        0.0000 
     45 CA          4.0680   65.0840   11.1720 C.3       8 GLP5        0.0000 
     46 CA         -0.7930   67.2885    8.9070 C.3       4 GLC5        0.0000 
     47 CA         -2.6080   67.6130    8.8600 C.3       8 GLP5        0.0000 
     48 CA         -1.2700   66.9995    7.1895 C.3       4 GLC5        0.0000 
     49 CA          0.2540   66.1920    6.9930 C.3      12 GLL5        0.0000 
     50 CA         -2.7940   67.8070    7.3860 C.3       8 GLP5        0.0000 
     51 CA          0.5770   63.1220    7.5338 C.3       4 GLC5        0.0000 
     52 CA         -0.2920   65.0510    7.5190 C.3      12 GLL5        0.0000 
     53 CA          1.3840   61.3050    6.8310 C.3       8 GLP5        0.0000 
     54 CA         -1.4190   66.2760    8.5482 C.3       4 GLC5        0.0000 
@<TRIPOS>BOND
@<TRIPOS>SUBSTRUCTURE
     1 SEC2        1 GROUP        1 X    SEC  0     ROOT SEC X 2
     2 LYC4        4 GROUP        1 X    LYC  0     **** LYC X 4
     3 ZIC7        7 GROUP        1 X    ZIC  0     **** ZIC X 5
     4 GLC5       35 GROUP        1 X    GLC  0     **** GLC X 6
     5 SEP2        3 GROUP        1 Y    SEP  0     ROOT SEP Y 9
     6 LYP4        6 GROUP        1 Y    LYP  0     **** LYP Y 11
     7 ZIP7        9 GROUP        1 Y    ZIP  0     **** ZIP Y 12
     8 GLP5       37 GROUP        1 Y    GLP  0     **** GLP Y 13
     9 SEL2        2 GROUP        1 Z    SEL  0     ROOT SEL Z 16
    10 LYL4        5 GROUP        1 Z    LYL  0     **** LYL Z 18
    11 ZIL7        8 GROUP        1 Z    ZIL  0     **** ZIL Z 19
    12 GLL5       36 GROUP        1 Z    GLL  0     **** GLL Z 20
@<TRIPOS>SET

