#    Name: 1esn_ANP_1_ligand
#    Modification time : Tue Mar 25 00:14:11 2014

@<TRIPOS>MOLECULE
1esn_ANP_1_ligand
   42    44     1     0     0
SMALL
NO_CHARGES


@<TRIPOS>ATOM
      1 PG         -2.6560   63.0420   -3.0110 P.3       1 ANP401      0.0000 
      2 O1G        -1.6770   63.7840   -3.8850 O.co2     1 ANP401      0.0000 
      3 O2G        -2.6410   61.5470   -3.2230 O.co2     1 ANP401      0.0000 
      4 O3G        -4.1670   63.4110   -3.2730 O.co2     1 ANP401      0.0000 
      5 PB         -2.4510   62.5740   -0.0520 P.3       1 ANP401      0.0000 
      6 O1B        -3.8570   62.4900    0.2610 O.co2     1 ANP401      0.0000 
      7 O2B        -1.8230   61.2040   -0.1460 O.co2     1 ANP401      0.0000 
      8 N3B        -2.1870   63.3860   -1.4730 N.4       1 ANP401      0.0000 
      9 PA         -0.1570   63.3700    1.5490 P.3       1 ANP401      0.0000 
     10 O1A        -0.0170   62.1590    2.5310 O.co2     1 ANP401      0.0000 
     11 O2A         0.7710   63.3000    0.3810 O.co2     1 ANP401      0.0000 
     12 O3A        -1.6870   63.4170    1.0710 O.3       1 ANP401      0.0000 
     13 O5'         0.0620   64.7240    2.3820 O.3       1 ANP401      0.0000 
     14 C5'        -0.0340   65.9720    1.6480 C.3       1 ANP401      0.0000 
     15 C4'         0.5550   67.1070    2.4940 C.3       1 ANP401      0.0000 
     16 O4'        -0.2830   67.2510    3.6390 O.3       1 ANP401      0.0000 
     17 C3'         1.9260   66.7880    3.0460 C.3       1 ANP401      0.0000 
     18 O3'         2.9160   67.3730    2.2120 O.3       1 ANP401      0.0000 
     19 C2'         1.8500   67.3230    4.4240 C.3       1 ANP401      0.0000 
     20 O2'         2.3070   68.7030    4.4150 O.3       1 ANP401      0.0000 
     21 C1'         0.4270   67.2840    4.7860 C.3       1 ANP401      0.0000 
     22 N9          0.0140   66.1900    5.6690 N.pl3     1 ANP401      0.0000 
     23 C8         -0.6530   65.0590    5.4200 C.2       1 ANP401      0.0000 
     24 N7         -0.8700   64.3250    6.5010 N.2       1 ANP401      0.0000 
     25 C5         -0.2920   65.0510    7.5190 C.ar      1 ANP401      0.0000 
     26 C6         -0.1680   64.8270    8.9540 C.ar      1 ANP401      0.0000 
     27 N6         -0.5850   63.8600    9.6710 N.pl3     1 ANP401      0.0000 
     28 N1          0.5080   65.8490    9.5770 N.ar      1 ANP401      0.0000 
     29 C2          1.0220   66.9640    8.9540 C.ar      1 ANP401      0.0000 
     30 N3          0.9130   67.1750    7.6590 N.ar      1 ANP401      0.0000 
     31 C4          0.2540   66.1920    6.9930 C.ar      1 ANP401      0.0000 
     32 H          -1.0722   66.2219    1.4234 H         1 ANP401      0.0000 
     33 H           0.5228   65.9254    0.7107 H         1 ANP401      0.0000 
     34 H           0.5882   67.9981    1.9290 H         1 ANP401      0.0000 
     35 H           1.9942   65.7137    3.0905 H         1 ANP401      0.0000 
     36 H           2.4162   66.7228    5.0773 H         1 ANP401      0.0000 
     37 H           0.2046   68.2479    5.3196 H         1 ANP401      0.0000 
     38 H          -0.9580   64.7962    4.4987 H         1 ANP401      0.0000 
     39 H           1.5251   67.6715    9.5682 H         1 ANP401      0.0000 
     40 H           2.4616   67.5168    1.3329 H         1 ANP401      0.0000 
     41 H           2.7848   68.8116    3.5433 H         1 ANP401      0.0000 
     42 H          -1.0937   63.2722    9.0420 H         1 ANP401      0.0000 
@<TRIPOS>BOND
     1    2    1 ar   
     2    3    1 ar   
     3    4    1 ar   
     4    8    1 1    
     5    6    5 ar   
     6    7    5 ar   
     7    8    5 1    
     8   12    5 1    
     9   10    9 ar   
    10   11    9 ar   
    11   12    9 1    
    12   13    9 1    
    13   14   13 1    
    14   15   14 1    
    15   32   14 1    
    16   33   14 1    
    17   16   15 1    
    18   17   15 1    
    19   34   15 1    
    20   21   16 1    
    21   18   17 1    
    22   19   17 1    
    23   35   17 1    
    24   40   18 1    
    25   20   19 1    
    26   21   19 1    
    27   36   19 1    
    28   41   20 1    
    29   22   21 1    
    30   37   21 1    
    31   23   22 1    
    32   31   22 1    
    33   24   23 2    
    34   38   23 1    
    35   25   24 1    
    36   26   25 ar   
    37   31   25 ar   
    38   27   26 1    
    39   28   26 ar   
    40   42   27 1    
    41   29   28 ar   
    42   30   29 ar   
    43   39   29 1    
    44   31   30 ar   
@<TRIPOS>SUBSTRUCTURE
     1 ANP401      1 GROUP   
@<TRIPOS>SET

